# generated using pymatgen
data_ZnH32C28NO12
_symmetry_space_group_name_H-M   'P 1'
_cell_length_a   8.92561963
_cell_length_b   14.15313750
_cell_length_c   14.85247985
_cell_angle_alpha   90.71930807
_cell_angle_beta   85.30884661
_cell_angle_gamma   90.77211646
_symmetry_Int_Tables_number   1
_chemical_formula_structural   ZnH32C28NO12
_chemical_formula_sum   'Zn2 H64 C56 N2 O24'
_cell_volume   1869.66863844
_cell_formula_units_Z   2
loop_
 _symmetry_equiv_pos_site_id
 _symmetry_equiv_pos_as_xyz
  1  'x, y, z'
loop_
 _atom_site_type_symbol
 _atom_site_label
 _atom_site_symmetry_multiplicity
 _atom_site_fract_x
 _atom_site_fract_y
 _atom_site_fract_z
 _atom_site_occupancy
 _atom_site_pbe_bader_charge
 _atom_site_pbe_bader_spin_density
 _atom_site_pbe_cm5_charge
 _atom_site_pbe_ddec_charge
 _atom_site_pbe_ddec_spin_density
 _atom_site_pbe_ddec_sum_bond_order
 _atom_site_pbe_magmom
Zn  Zn0  1  0.52706204  0.59360589  0.51404282  1  1.298882  0  0.692412  0.846639  0  2.405528  0
Zn  Zn1  1  0.52297508  0.39101890  0.48764330  1  1.301959  0  0.681824  0.843968  0  2.376254  0
H  H2  1  0.29792198  0.06211862  0.57206238  1  0.131955  0  0.123983  0.136522  0  0.9783  0
H  H3  1  0.76262242  0.92774791  0.50172585  1  0.10455  0  0.122234  0.132757  0  0.980241  0
H  H4  1  0.73426520  0.05731466  0.42244864  1  0.0843  0  0.121237  0.134557  0  0.984039  0
H  H5  1  0.27836835  0.92029516  0.51358653  1  0.129019  0  0.121577  0.13171  0  0.983155  0
H  H6  1  0.06638999  0.28802668  0.51225119  1  0.634519  0  0.348985  0.395886  0  0.842625  0
H  H7  1  0.95785337  0.71952320  0.59325654  1  0.675823  0  0.320431  0.370908  0  0.929646  0
H  H8  1  0.95827802  0.24342064  0.35733518  1  0.638071  0  0.351221  0.395031  0  0.845163  0
H  H9  1  0.07641328  0.71979783  0.44534828  1  0.661643  0  0.317061  0.368182  0  0.941597  0
H  H10  1  0.12053742  0.72408653  0.93564940  1  0.054966  0  0.099837  0.06541  0  0.993308  0
H  H11  1  0.10017650  0.60315800  0.96601491  1  0.025266  0  0.08635  0.039936  0  1.02767  0
H  H12  1  0.15923835  0.67629861  0.77204170  1  0.068223  0  0.091031  0.099238  0  0.995301  0
H  H13  1  0.14540486  0.55637697  0.80191730  1  0.040376  0  0.091157  0.09119  0  0.97867  0
H  H14  1  0.87826065  0.57964262  0.86933067  1  0.002996  0  0.083232  0.106561  0  1.015895  0
H  H15  1  0.89953950  0.60966464  0.75399512  1  0.028182  0  0.088246  0.125523  0  1.00145  0
H  H16  1  0.89011465  0.70033784  0.83766550  1  0.040595  0  0.081675  0.104441  0  1.018355  0
H  H17  1  0.01439971  0.36431424  0.03983176  1  0.053729  0  0.101356  0.069019  0  0.991683  0
H  H18  1  0.07558066  0.48428419  0.03324932  1  0.053182  0  0.088247  0.044935  0  1.028938  0
H  H19  1  0.99692003  0.37872149  0.21071555  1  0.030123  0  0.083403  0.072927  0  1.018751  0
H  H20  1  0.05664085  0.49734851  0.20141337  1  0.038063  0  0.089568  0.087267  0  0.983374  0
H  H21  1  0.82360455  0.52853433  0.11306800  1  0.013351  0  0.078341  0.096435  0  1.050336  0
H  H22  1  0.78375596  0.49979758  0.22844142  1  0.034715  0  0.0885  0.134541  0  0.990078  0
H  H23  1  0.75814654  0.41364247  0.14427143  1  0.044293  0  0.084105  0.114918  0  1.031725  0
H  H24  1  0.77561955  0.65534007  0.99544071  1  0.032923  0  0.092898  0.052461  0  1.015823  0
H  H25  1  0.73252653  0.67413022  0.11404144  1  0.088614  0  0.10344  0.071231  0  1.032825  0
H  H26  1  0.66317577  0.81314488  0.96719658  1  0.035029  0  0.089387  0.079317  0  0.999753  0
H  H27  1  0.62639694  0.83038497  0.08475092  1  0.00809  0  0.090828  0.082052  0  1.001193  0
H  H28  1  0.90621179  0.82326763  0.10432969  1  0.011061  0  0.086527  0.114192  0  1.004793  0
H  H29  1  0.86324843  0.91629596  0.03183899  1  -0.012507  0  0.084555  0.110587  0  1.008857  0
H  H30  1  0.94249686  0.81039227  0.98562402  1  0.007432  0  0.082518  0.103095  0  1.04422  0
H  H31  1  0.73029792  0.37729978  0.00260644  1  0.028264  0  0.095022  0.057645  0  1.000496  0
H  H32  1  0.70814367  0.28589535  0.92060856  1  0.060152  0  0.096062  0.059485  0  1.023382  0
H  H33  1  0.61879348  0.27496769  0.12469491  1  0.030547  0  0.091458  0.086173  0  1.003961  0
H  H34  1  0.56990870  0.18851774  0.04526974  1  0.009898  0  0.091551  0.08319  0  0.98476  0
H  H35  1  0.84825949  0.16034801  0.00171285  1  0.014488  0  0.083566  0.107438  0  1.005981  0
H  H36  1  0.79681114  0.13751622  0.11750878  1  0.034131  0  0.081054  0.104918  0  1.012971  0
H  H37  1  0.89410909  0.24322970  0.08624837  1  0.014011  0  0.086335  0.115113  0  1.028138  0
H  H38  1  0.65707104  0.69395079  0.72754980  1  0.065534  0  0.089914  0.058789  0  1.030308  0
H  H39  1  0.58178575  0.70741473  0.84224585  1  0.072176  0  0.099844  0.065927  0  1.003377  0
H  H40  1  0.46876150  0.81766901  0.68601264  1  0.030924  0  0.077427  0.06386  0  1.036505  0
H  H41  1  0.41578541  0.83379000  0.80190589  1  0.019799  0  0.09284  0.088911  0  0.973697  0
H  H42  1  0.68085477  0.88370548  0.82956099  1  0.029248  0  0.084955  0.112421  0  1.016052  0
H  H43  1  0.61554020  0.95464449  0.74401154  1  0.020292  0  0.079436  0.105737  0  1.037755  0
H  H44  1  0.74068352  0.86017411  0.71496791  1  0.022356  0  0.076124  0.101613  0  1.035241  0
H  H45  1  0.33258208  0.27743499  0.33769283  1  0.021689  0  0.086837  0.05303  0  1.024753  0
H  H46  1  0.46127478  0.30111822  0.24351673  1  0.065286  0  0.098092  0.067474  0  1.023326  0
H  H47  1  0.14308706  0.21662290  0.23329903  1  -0.023357  0  0.07928  0.061893  0  1.000298  0
H  H48  1  0.27514288  0.23470685  0.14025234  1  0.093717  0  0.096059  0.101457  0  0.99614  0
H  H49  1  0.45312372  0.12081122  0.20674805  1  0.033448  0  0.083517  0.109882  0  1.013245  0
H  H50  1  0.27787191  0.06486937  0.19131830  1  0.041643  0  0.086149  0.115139  0  1.012643  0
H  H51  1  0.32004764  0.10298036  0.30085337  1  -0.004854  0  0.071096  0.089018  0  1.03181  0
H  H52  1  0.50881603  0.80630973  0.28302125  1  0.015494  0  0.093082  0.059759  0  0.970182  0
H  H53  1  0.37301004  0.71675539  0.31573884  1  0.096697  0  0.091508  0.069607  0  1.04886  0
H  H54  1  0.40222577  0.81946023  0.13339215  1  0.03614  0  0.088387  0.081074  0  1.002933  0
H  H55  1  0.27756445  0.72460071  0.15971336  1  0.021318  0  0.094119  0.094299  0  0.978225  0
H  H56  1  0.14492365  0.81745911  0.28590468  1  0.020589  0  0.08169  0.114813  0  1.016666  0
H  H57  1  0.15061328  0.88286204  0.18447704  1  0.030495  0  0.085071  0.11039  0  1.015504  0
H  H58  1  0.27536527  0.91260515  0.26767460  1  0.012596  0  0.075641  0.094397  0  1.036798  0
H  H59  1  0.50946345  0.22897345  0.70165237  1  0.052812  0  0.086841  0.053153  0  0.999283  0
H  H60  1  0.36774849  0.27544480  0.77921527  1  0.073466  0  0.102556  0.076031  0  0.979976  0
H  H61  1  0.61195803  0.13753537  0.82708337  1  0.032096  0  0.087081  0.079069  0  0.978324  0
H  H62  1  0.46837158  0.18367637  0.90404461  1  0.031206  0  0.093405  0.091724  0  1.00391  0
H  H63  1  0.27048192  0.10628199  0.81510740  1  0.046303  0  0.086634  0.114698  0  0.998592  0
H  H64  1  0.39709245  0.02065038  0.84987757  1  0.027839  0  0.087211  0.11621  0  1.004762  0
H  H65  1  0.41236893  0.06023571  0.73671229  1  0.014716  0  0.072743  0.088544  0  1.040706  0
C  C66  1  0.54647760  0.47373606  0.66815704  1  1.565785  0  0.219805  0.637509  0  4.121424  0
C  C67  1  0.46550594  0.51706854  0.33772998  1  1.588154  0  0.224551  0.637694  0  4.130037  0
C  C68  1  0.39300708  0.09561588  0.53371952  1  -0.057144  0  -0.062975  -0.189075  0  3.902073  0
C  C69  1  0.65468486  0.89073851  0.50624925  1  0.041506  0  -0.062058  -0.178327  0  3.897495  0
C  C70  1  0.63552614  0.09338430  0.45305803  1  0.058026  0  -0.065271  -0.178471  0  3.88297  0
C  C71  1  0.38705096  0.88651728  0.51428972  1  -0.012582  0  -0.062967  -0.186649  0  3.900518  0
C  C72  1  0.24351885  0.50093339  0.53348828  1  1.706163  0  0.227134  0.66214  0  4.243155  0
C  C73  1  0.80464354  0.49123798  0.47827704  1  1.691916  0  0.224307  0.66871  0  4.239789  0
C  C74  1  0.51694111  0.04351079  0.49904262  1  0.087907  0  0.023403  0.124123  0  3.982886  0
C  C75  1  0.51999546  0.93992284  0.50730568  1  -0.016909  0  0.023483  0.123166  0  3.987701  0
C  C76  1  0.08526277  0.50555775  0.52299184  1  -0.300087  0  -0.029712  -0.126212  0  3.950088  0
C  C77  1  0.95739019  0.50054057  0.50112132  1  0.033648  0  -0.028176  -0.118982  0  3.947079  0
C  C78  1  0.38907153  0.57226010  0.89472961  1  0.500796  0  0.071827  0.103511  0  4.073027  0
C  C79  1  0.32199434  0.45133619  0.11199015  1  0.541676  0  0.073543  0.114143  0  4.05767  0
C  C80  1  0.48218664  0.59120987  0.09180115  1  0.502929  0  0.078669  0.10944  0  4.047597  0
C  C81  1  0.48525673  0.41622752  0.91988396  1  0.480259  0  0.072727  0.102094  0  4.039188  0
C  C82  1  0.44631303  0.56706549  0.80379973  1  0.509901  0  0.078693  0.141044  0  4.047718  0
C  C83  1  0.34382411  0.45129514  0.20437868  1  0.514052  0  0.07108  0.126276  0  4.074051  0
C  C84  1  0.48428435  0.59945255  0.18645097  1  0.514182  0  0.070279  0.126998  0  4.055011  0
C  C85  1  0.52333461  0.40560364  0.82646952  1  0.550666  0  0.072889  0.133733  0  4.066664  0
C  C86  1  0.50868933  0.48218909  0.76791549  1  0.057963  0  -0.029474  -0.208125  0  3.957117  0
C  C87  1  0.42849770  0.52458430  0.24155252  1  0.059903  0  -0.02702  -0.204741  0  3.971655  0
C  C88  1  0.41740631  0.50026249  0.95494377  1  0.089803  0  -0.016508  -0.0688  0  4.014158  0
C  C89  1  0.40157215  0.51590125  0.05395687  1  0.003679  0  -0.01964  -0.082375  0  4.013322  0
C  C90  1  0.38964831  0.19271306  0.51963789  1  0.49475  0  0.145807  0.153778  0  3.904409  0
C  C91  1  0.65202968  0.79266814  0.51321620  1  0.492574  0  0.146535  0.151833  0  3.87349  0
C  C92  1  0.62508164  0.19056042  0.44214857  1  0.47425  0  0.137883  0.146678  0  3.90286  0
C  C93  1  0.39129720  0.78831490  0.51935039  1  0.513825  0  0.150959  0.164063  0  3.853823  0
C  C94  1  0.24565777  0.24117586  0.55534568  1  1.60551  0  0.243731  0.55639  0  4.130018  0
C  C95  1  0.80885840  0.75093562  0.51309651  1  1.611318  0  0.255327  0.567221  0  4.103375  0
C  C96  1  0.74542921  0.23737453  0.37968084  1  1.549982  0  0.243252  0.542807  0  4.1319  0
C  C97  1  0.23252102  0.74490133  0.52403878  1  1.600885  0  0.253763  0.568097  0  4.104297  0
C  C98  1  0.15482900  0.65206239  0.91550653  1  0.403695  0  -0.066795  0.04466  0  3.885156  0
C  C99  1  0.10558930  0.62740179  0.82202204  1  -0.053234  0  -0.177619  -0.150226  0  3.971812  0
C  C100  1  0.93454559  0.62953513  0.82091740  1  -0.062557  0  -0.244652  -0.348356  0  3.964412  0
C  C101  1  0.07284635  0.42045285  0.07545112  1  0.369369  0  -0.067358  0.03664  0  3.87884  0
C  C102  1  0.99343343  0.44147866  0.16819063  1  -0.026829  0  -0.176529  -0.140751  0  3.986821  0
C  C103  1  0.83118066  0.47245034  0.16290154  1  -0.069883  0  -0.249193  -0.354035  0  3.948384  0
C  C104  1  0.69964690  0.69132632  0.04676432  1  0.367065  0  -0.071451  0.01905  0  3.884926  0
C  C105  1  0.70501546  0.79755534  0.03308685  1  0.025871  0  -0.168843  -0.126438  0  3.982951  0
C  C106  1  0.86276042  0.83910010  0.03900284  1  -0.015197  0  -0.244216  -0.352856  0  3.982144  0
C  C107  1  0.66158014  0.31519919  0.98577788  1  0.399135  0  -0.072371  0.021457  0  3.88498  0
C  C108  1  0.65644545  0.24156585  0.05962101  1  0.017799  0  -0.168588  -0.13254  0  3.980374  0
C  C109  1  0.80715177  0.19325494  0.06642551  1  -0.062801  0  -0.244279  -0.351294  0  3.979358  0
C  C110  1  0.55645373  0.71370791  0.77119357  1  0.37313  0  -0.07387  0.027767  0  3.865482  0
C  C111  1  0.51046511  0.81412495  0.75347688  1  0.001561  0  -0.172522  -0.126715  0  3.979908  0
C  C112  1  0.64385523  0.88204711  0.76069022  1  -0.087649  0  -0.249929  -0.36007  0  3.985458  0
C  C113  1  0.34113578  0.29465566  0.26545227  1  0.439694  0  -0.075963  0.03608  0  3.872383  0
C  C114  1  0.26478072  0.21769620  0.21244449  1  -0.032838  0  -0.174382  -0.140025  0  3.982422  0
C  C115  1  0.33231856  0.12133344  0.22867634  1  -0.087989  0  -0.247775  -0.34779  0  3.989096  0
C  C116  1  0.43910994  0.74839397  0.25799118  1  0.395411  0  -0.077434  0.028298  0  3.869701  0
C  C117  1  0.33598011  0.78481463  0.18956123  1  -0.01437  0  -0.173309  -0.139204  0  3.968681  0
C  C118  1  0.22041028  0.85305420  0.23446319  1  -0.071972  0  -0.247184  -0.351125  0  3.985271  0
C  C119  1  0.48264269  0.24783178  0.77327017  1  0.399374  0  -0.06941  0.050309  0  3.857701  0
C  C120  1  0.49495553  0.16232050  0.83321147  1  -0.02167  0  -0.173155  -0.144823  0  3.978432  0
C  C121  1  0.38793233  0.08301646  0.80750097  1  -0.103083  0  -0.24388  -0.34446  0  3.985289  0
N  N122  1  0.50409917  0.24075242  0.47508876  1  -1.190551  0  -0.280592  -0.23356  0  3.3898  0
N  N123  1  0.52252822  0.74128055  0.51934470  1  -1.160508  0  -0.280441  -0.217484  0  3.374665  0
O  O124  1  0.60558158  0.54655702  0.62833174  1  -1.165163  0  -0.324209  -0.568698  0  2.377236  0
O  O125  1  0.51817238  0.43821709  0.35909614  1  -1.148147  0  -0.3046  -0.538689  0  2.387768  0
O  O126  1  0.44513583  0.58828221  0.39044462  1  -1.160591  0  -0.311597  -0.549142  0  2.379777  0
O  O127  1  0.51218858  0.39736108  0.62816482  1  -1.150505  0  -0.306603  -0.537881  0  2.314874  0
O  O128  1  0.30946184  0.57135814  0.56712576  1  -1.149427  0  -0.297762  -0.523936  0  2.318497  0
O  O129  1  0.74990616  0.40759194  0.48478240  1  -1.129664  0  -0.307972  -0.539326  0  2.299046  0
O  O130  1  0.74012521  0.56567575  0.45566638  1  -1.148347  0  -0.309341  -0.541291  0  2.298216  0
O  O131  1  0.30168536  0.42437627  0.50324909  1  -1.138849  0  -0.295963  -0.528039  0  2.385953  0
O  O132  1  0.21342778  0.25753380  0.63493303  1  -1.091177  0  -0.254629  -0.430345  0  2.096847  0
O  O133  1  0.15498230  0.25225226  0.48822700  1  -1.120148  0  -0.321813  -0.469289  0  2.29993  0
O  O134  1  0.89678688  0.75716777  0.44483614  1  -1.135026  0  -0.266474  -0.470852  0  2.162621  0
O  O135  1  0.84447582  0.72476091  0.59359766  1  -1.163958  0  -0.293464  -0.431039  0  2.33426  0
O  O136  1  0.71884527  0.28064423  0.31298088  1  -1.085756  0  -0.2323  -0.398958  0  2.149323  0
O  O137  1  0.88473802  0.21547694  0.40260814  1  -1.116868  0  -0.329876  -0.485917  0  2.270675  0
O  O138  1  0.14790334  0.75163608  0.59374723  1  -1.127564  0  -0.265883  -0.472014  0  2.156468  0
O  O139  1  0.19035839  0.72148924  0.44347637  1  -1.150875  0  -0.299827  -0.4397  0  2.358119  0
O  O140  1  0.31537246  0.65324126  0.92454607  1  -1.070569  0  -0.205684  -0.231202  0  2.545506  0
O  O141  1  0.22497000  0.38602472  0.07746050  1  -1.064582  0  -0.203174  -0.226453  0  2.528602  0
O  O142  1  0.54878514  0.65725883  0.03472862  1  -1.06859  0  -0.183533  -0.195683  0  2.603877  0
O  O143  1  0.50832833  0.34489858  0.97899499  1  -1.069707  0  -0.192181  -0.207676  0  2.581987  0
O  O144  1  0.43704315  0.64745533  0.75330278  1  -1.06306  0  -0.200765  -0.218464  0  2.533258  0
O  O145  1  0.27112377  0.38581457  0.26092314  1  -1.078197  0  -0.20691  -0.228618  0  2.542141  0
O  O146  1  0.54855517  0.67971450  0.22165137  1  -1.06627  0  -0.208545  -0.231204  0  2.510306  0
O  O147  1  0.58745677  0.32256522  0.79407512  1  -1.073806  0  -0.209751  -0.232097  0  2.524192  0
