# generated using pymatgen
data_FeH13C12S2N
_symmetry_space_group_name_H-M   'P 1'
_cell_length_a   6.94354186
_cell_length_b   7.25083614
_cell_length_c   13.05655448
_cell_angle_alpha   95.78761294
_cell_angle_beta   105.42605375
_cell_angle_gamma   89.98832733
_symmetry_Int_Tables_number   1
_chemical_formula_structural   FeH13C12S2N
_chemical_formula_sum   'Fe2 H26 C24 S4 N2'
_cell_volume   630.19722716
_cell_formula_units_Z   2
loop_
 _symmetry_equiv_pos_site_id
 _symmetry_equiv_pos_as_xyz
  1  'x, y, z'
loop_
 _atom_site_type_symbol
 _atom_site_label
 _atom_site_symmetry_multiplicity
 _atom_site_fract_x
 _atom_site_fract_y
 _atom_site_fract_z
 _atom_site_occupancy
 _atom_site_hle17_ddec_charge
 _atom_site_hle17_ddec_spin_density
 _atom_site_hle17_ddec_sum_bond_order
 _atom_site_hle17_magmom
 _atom_site_hse06_10hf_ddec_charge
 _atom_site_hse06_10hf_ddec_spin_density
 _atom_site_hse06_10hf_ddec_sum_bond_order
 _atom_site_hse06_10hf_magmom
 _atom_site_hse06_ddec_charge
 _atom_site_hse06_ddec_spin_density
 _atom_site_hse06_ddec_sum_bond_order
 _atom_site_hse06_magmom
 _atom_site_pbe_cm5_charge
 _atom_site_pbe_ddec_charge
 _atom_site_pbe_ddec_spin_density
 _atom_site_pbe_ddec_sum_bond_order
 _atom_site_pbe_magmom
Fe  Fe0  1  0.63118483  0.83164827  0.28308226  1  0.644184  3.826656  2.543137  3.398  0.57733  3.79  3.06851  3.396  0.656481  3.86027  3.006672  3.531  0.456378  0.513834  3.723269  3.117983  3.273
Fe  Fe1  1  0.65125183  0.33180714  0.28304954  1  0.644753  3.828611  2.541974  3.398  0.5778  3.791539  3.067492  3.396  0.657177  3.861943  3.005317  3.531  0.456505  0.514435  3.72539  3.116788  3.274
H  H2  1  0.29635485  0.69128026  0.16951050  1  0.311999  0.001063  0.936669  0.002  0.300579  0.002213  1.001556  0.004  0.308175  0.001595  0.996774  0.003  0.263064  0.29445  0.002716  1.005793  0.004
H  H3  1  0.87302896  0.19115110  0.16976103  1  0.312162  0.00105  0.935958  0.002  0.300782  0.002194  1.000829  0.004  0.308371  0.00158  0.99604  0.003  0.263029  0.29465  0.002693  1.005106  0.004
H  H4  1  0.31064515  0.90203891  0.13167541  1  0.317668  -0.000302  0.922295  0.0  0.309702  0.000561  0.980066  0.002  0.315745  0.00036  0.977433  0.002  0.281796  0.305285  0.000841  0.981906  0.002
H  H5  1  0.82103295  0.40177027  0.13169365  1  0.31788  -0.000294  0.922383  0.0  0.309838  0.000563  0.980155  0.002  0.315917  0.000362  0.977492  0.002  0.281637  0.305413  0.000844  0.981997  0.002
H  H6  1  0.22928986  0.87315224  0.23598092  1  0.325923  0.000803  0.899051  0.002  0.319562  0.001533  0.953819  0.004  0.326968  0.00111  0.949153  0.003  0.279921  0.313883  0.002002  0.957411  0.004
H  H7  1  0.00620941  0.37317275  0.23626529  1  0.327059  0.000798  0.896913  0.002  0.320379  0.00153  0.951927  0.004  0.327787  0.001108  0.947257  0.003  0.280354  0.314729  0.001997  0.95546  0.004
H  H8  1  0.77877306  0.49596755  0.60712350  1  0.100435  -0.00079  0.952113  -0.001  0.113688  -2e-06  1.008995  0.0  0.116369  -6.4e-05  1.008665  0.0  0.098786  0.111663  6e-05  1.009448  0.0
H  H9  1  0.82808347  0.99516539  0.60670153  1  0.099716  -0.000773  0.952704  -0.001  0.113176  1.8e-05  1.009405  0.0  0.115856  -4.9e-05  1.009084  0.0  0.098714  0.111146  8.7e-05  1.009864  0.0
H  H10  1  0.10179273  0.54057882  0.74975193  1  0.083225  -6.5e-05  0.958464  0.001  0.095055  -0.000135  1.018707  0.0  0.097321  -0.000161  1.018377  0.0  0.096744  0.093242  -0.0001  1.019241  0.0
H  H11  1  0.64887732  0.03956023  0.74965153  1  0.082675  -4.9e-05  0.959427  0.001  0.09475  -0.000115  1.019362  0.0  0.097031  -0.000149  1.019022  0.0  0.096633  0.092953  -7.2e-05  1.019857  0.0
H  H12  1  0.39308307  0.69432147  0.71328399  1  0.07788  -0.000636  0.988151  -0.001  0.088793  8.7e-05  1.052098  0.0  0.091071  1.6e-05  1.052113  0.0  0.092648  0.086999  0.000174  1.052336  0.0
H  H13  1  0.32146858  0.19440107  0.71394139  1  0.076517  -0.000668  0.987745  -0.001  0.087774  5.9e-05  1.051481  0.0  0.090001  -3e-06  1.051532  0.0  0.091987  0.086014  0.000136  1.051686  0.0
H  H14  1  0.36861933  0.78936747  0.53242494  1  0.086722  0.000274  0.97555  0.001  0.096151  0.000317  1.038457  0.0  0.097971  0.000149  1.039405  0.0  0.093842  0.09484  0.000482  1.037953  0.0
H  H15  1  0.16416573  0.28977927  0.53313416  1  0.087037  0.000271  0.975897  0.001  0.09604  0.000307  1.03904  0.0  0.097795  0.000142  1.040081  0.0  0.093545  0.09477  0.000473  1.038486  0.0
H  H16  1  0.04702616  0.74433761  0.39057156  1  0.081173  -0.000736  0.984351  -0.001  0.089625  0.000192  1.052543  0.0  0.092342  -6.3e-05  1.052001  0.0  0.085952  0.087556  0.000491  1.053016  0.0
H  H17  1  0.34309009  0.24491476  0.39101261  1  0.081149  -0.000742  0.985109  -0.001  0.089947  0.000198  1.052763  0.0  0.09259  -6e-05  1.052277  0.0  0.086068  0.087934  0.000501  1.053195  0.0
H  H18  1  0.97083446  0.91881264  0.99423162  1  0.089976  -0.000508  0.98293  -0.001  0.099246  6.1e-05  1.048228  0.0  0.10178  3e-06  1.048509  0.0  0.090825  0.097289  0.000119  1.048416  0.0
H  H19  1  0.02339959  0.41893628  0.99383018  1  0.089759  -0.00051  0.9836  -0.001  0.099068  6.2e-05  1.048964  0.0  0.101587  3e-06  1.049225  0.0  0.09071  0.097146  0.000119  1.049101  0.0
H  H20  1  0.88766440  0.75329641  0.81239976  1  0.081064  3.8e-05  0.980332  0.0  0.09115  -2.7e-05  1.045788  0.0  0.093024  -6.1e-05  1.046028  0.0  0.096309  0.089981  1.9e-05  1.045468  0.0
H  H21  1  0.92493171  0.25326155  0.81208366  1  0.081806  3.3e-05  0.979391  0.0  0.091487  -3.1e-05  1.045202  0.0  0.093347  -6.4e-05  1.045462  0.0  0.096586  0.090323  1.2e-05  1.044867  0.0
H  H22  1  0.64387763  0.48405542  0.76339224  1  0.083554  -0.000498  0.974023  -0.001  0.094548  2.5e-05  1.037061  0.0  0.096838  -1.3e-05  1.037029  0.0  0.097588  0.093018  7.3e-05  1.037057  0.0
H  H23  1  0.11961731  0.98365247  0.76324434  1  0.084308  -0.000513  0.972468  -0.001  0.09487  -6e-06  1.035896  0.0  0.09725  -3.5e-05  1.035705  0.0  0.097768  0.093341  3.4e-05  1.035888  0.0
H  H24  1  0.47694794  0.39023358  0.89776123  1  0.087949  -2.5e-05  0.971409  0.0  0.099133  -0.000105  1.032732  0.0  0.100635  -0.000115  1.034139  0.0  0.097126  0.098119  -8.2e-05  1.031716  0.0
H  H25  1  0.42092181  0.88989929  0.89788126  1  0.087689  -2.2e-05  0.970782  0.0  0.09889  -0.000102  1.03219  0.0  0.100322  -0.000114  1.033656  0.0  0.097153  0.097939  -7.7e-05  1.031092  0.0
H  H26  1  0.55364534  0.55930120  0.07849984  1  0.079084  0.000243  1.013226  -0.001  0.086451  0.001062  1.08578  0.0  0.088133  0.000729  1.086626  0.0  0.086518  0.085391  0.001452  1.085077  0.0
H  H27  1  0.52466962  0.05938249  0.07848443  1  0.078069  0.000241  1.013507  -0.001  0.085867  0.001049  1.085631  0.0  0.087557  0.00072  1.086449  0.0  0.086555  0.084798  0.001437  1.08496  0.0
C  C28  1  0.89276590  0.62096852  0.49114447  1  0.102512  -0.023659  3.785561  -0.021  0.127168  -0.005683  4.030649  -0.006  0.133067  -0.008304  4.05392  -0.007  -0.015216  0.122514  -0.003133  4.015479  -0.005
C  C29  1  0.59802062  0.12091994  0.49115630  1  0.102534  -0.023768  3.783101  -0.021  0.127636  -0.005727  4.027757  -0.006  0.133539  -0.008394  4.051007  -0.008  -0.015325  0.122992  -0.003171  4.012595  -0.005
C  C30  1  0.90838401  0.56172811  0.59210016  1  -0.126201  0.01444  3.73364  0.021  -0.143971  0.00903  3.974953  0.012  -0.147295  0.007578  3.994455  0.011  -0.098591  -0.141555  0.010577  3.961971  0.014
C  C31  1  0.68361516  0.06121977  0.59195945  1  -0.125433  0.014442  3.734861  0.021  -0.143546  0.008975  3.976335  0.012  -0.146912  0.00754  3.995895  0.011  -0.098649  -0.141089  0.010505  3.96333  0.014
C  C32  1  0.08901654  0.58747920  0.67139805  1  -0.076257  -0.016794  3.795527  -0.012  -0.086224  -0.005318  4.044256  -0.004  -0.087461  -0.006965  4.065082  -0.005  -0.095913  -0.085522  -0.003854  4.030506  -0.003
C  C33  1  0.58281418  0.08687673  0.67148746  1  -0.075544  -0.016954  3.795986  -0.012  -0.085689  -0.005435  4.044845  -0.004  -0.086941  -0.007093  4.065664  -0.005  -0.095618  -0.084997  -0.003928  4.031098  -0.003
C  C34  1  0.25349305  0.67222636  0.65070162  1  -0.082519  0.014661  3.778092  0.02  -0.098284  0.009211  4.026772  0.012  -0.100899  0.007765  4.048202  0.01  -0.099156  -0.096576  0.010897  4.012612  0.014
C  C35  1  0.39790762  0.17214141  0.65115983  1  -0.080274  0.014828  3.775089  0.02  -0.09631  0.009363  4.0238  0.012  -0.098863  0.007893  4.045196  0.011  -0.098228  -0.09466  0.011118  4.009641  0.014
C  C36  1  0.23956845  0.72620611  0.54935024  1  -0.054871  -0.016975  3.779984  -0.012  -0.064696  -0.005061  4.021943  -0.004  -0.065236  -0.00685  4.043691  -0.005  -0.091603  -0.064411  -0.003445  4.007297  -0.003
C  C37  1  0.31009214  0.22641540  0.54990875  1  -0.055054  -0.01719  3.77977  -0.013  -0.064477  -0.005212  4.021944  -0.004  -0.065019  -0.007002  4.043671  -0.005  -0.091178  -0.064191  -0.003606  4.007337  -0.003
C  C38  1  0.06017075  0.70047882  0.46963305  1  -0.129841  0.014986  3.76024  0.021  -0.144665  0.009945  3.99815  0.013  -0.149875  0.008395  4.020493  0.012  -0.10023  -0.140661  0.011615  3.982894  0.015
C  C39  1  0.40919812  0.20077492  0.46996211  1  -0.130858  0.015216  3.758587  0.022  -0.146134  0.010193  3.996539  0.014  -0.151271  0.008587  4.018872  0.012  -0.10061  -0.142188  0.011857  3.981309  0.015
C  C40  1  0.77365362  0.74697877  0.05092492  1  0.115001  -0.017978  3.797652  -0.016  0.137154  -0.006422  4.041407  -0.007  0.144786  -0.007516  4.063376  -0.007  -0.018464  0.13067  -0.00452  4.026746  -0.006
C  C41  1  0.27696570  0.24685949  0.05075479  1  0.114979  -0.0179  3.798385  -0.016  0.137279  -0.006418  4.042042  -0.007  0.144903  -0.007487  4.063985  -0.007  -0.018409  0.130807  -0.00454  4.027388  -0.006
C  C42  1  0.86441370  0.80155716  0.97380233  1  -0.13542  0.011031  3.734955  0.016  -0.150489  0.007261  3.975264  0.01  -0.15485  0.005861  3.995336  0.008  -0.104794  -0.147303  0.008768  3.962079  0.012
C  C43  1  0.10942659  0.30153928  0.97353176  1  -0.135369  0.01106  3.736588  0.016  -0.150595  0.0073  3.976521  0.01  -0.154938  0.005881  3.996601  0.008  -0.104765  -0.147387  0.008844  3.963259  0.012
C  C44  1  0.81656671  0.70843709  0.87107283  1  -0.069033  -0.011808  3.791835  -0.009  -0.081097  -0.004128  4.03878  -0.003  -0.081697  -0.005041  4.060171  -0.003  -0.09448  -0.080478  -0.003253  4.023554  -0.003
C  C45  1  0.05485134  0.20847456  0.87075427  1  -0.069645  -0.011754  3.791358  -0.008  -0.081333  -0.004147  4.03818  -0.003  -0.081952  -0.005028  4.059614  -0.003  -0.094629  -0.080687  -0.003267  4.022903  -0.003
C  C46  1  0.67946170  0.55850221  0.84320679  1  -0.096128  0.010087  3.792841  0.014  -0.109108  0.006964  4.040191  0.009  -0.112443  0.005607  4.06145  0.008  -0.100399  -0.106323  0.008561  4.024898  0.011
C  C47  1  0.16407018  0.05851224  0.84293252  1  -0.096813  0.0099  3.791955  0.014  -0.109202  0.006772  4.038982  0.009  -0.112563  0.005461  4.060183  0.007  -0.100807  -0.106398  0.008285  4.023639  0.01
C  C48  1  0.58601493  0.50543212  0.91851789  1  -0.059563  -0.012241  3.773652  -0.009  -0.070648  -0.00467  4.01468  -0.003  -0.070745  -0.005471  4.035991  -0.004  -0.093155  -0.07045  -0.003902  3.999764  -0.003
C  C49  1  0.33267496  0.00542703  0.91840876  1  -0.059497  -0.012133  3.771803  -0.009  -0.070723  -0.004595  4.013018  -0.003  -0.070799  -0.005394  4.034445  -0.004  -0.092616  -0.070501  -0.003833  3.997942  -0.003
C  C50  1  0.63107662  0.59964299  0.02112421  1  -0.163669  0.009756  3.776776  0.014  -0.173641  0.007051  4.01224  0.01  -0.179614  0.005689  4.03483  0.008  -0.109394  -0.169169  0.008639  3.996688  0.012
C  C51  1  0.38995174  0.09965338  0.02101891  1  -0.16148  0.00966  3.775679  0.014  -0.171905  0.006985  4.011242  0.01  -0.177884  0.005629  4.033876  0.008  -0.109419  -0.16742  0.008549  3.995619  0.012
S  S52  1  0.65888747  0.59938852  0.39368006  1  -0.381828  0.103306  2.602353  0.131  -0.36562  0.098439  3.055165  0.103  -0.40745  0.073382  3.03907  0.073  -0.204179  -0.333893  0.11985  3.071193  0.127
S  S53  1  0.73406454  0.09941279  0.39357180  1  -0.381947  0.103425  2.602944  0.131  -0.366094  0.098547  3.05604  0.103  -0.407815  0.073521  3.039697  0.074  -0.204419  -0.334359  0.119904  3.072074  0.127
S  S54  1  0.84078570  0.86671413  0.18045283  1  -0.478153  0.064701  2.334093  0.09  -0.453704  0.056415  2.721361  0.068  -0.490275  0.037001  2.70954  0.046  -0.212389  -0.422529  0.074849  2.729298  0.087
S  S55  1  0.33916187  0.36712506  0.18020308  1  -0.479015  0.064844  2.331734  0.091  -0.45447  0.056641  2.717969  0.069  -0.491172  0.037117  2.706252  0.047  -0.212682  -0.423175  0.075221  2.725707  0.087
N  N56  1  0.33402863  0.82885135  0.19696577  1  -0.815247  0.029938  3.002491  0.033  -0.783581  0.030344  3.22383  0.027  -0.813287  0.024249  3.20945  0.019  -0.779777  -0.760557  0.035656  3.234422  0.032
N  N57  1  0.86258631  0.32875749  0.19707860  1  -0.816778  0.029928  3.000465  0.033  -0.78471  0.03034  3.222613  0.027  -0.814479  0.024256  3.208063  0.019  -0.77965  -0.761645  0.035669  3.233243  0.032
