# generated using pymatgen
data_CuH19C25N3O7
_symmetry_space_group_name_H-M   'P 1'
_cell_length_a   10.13422861
_cell_length_b   11.01038735
_cell_length_c   12.86440000
_cell_angle_alpha   109.82087608
_cell_angle_beta   101.25393183
_cell_angle_gamma   94.61182422
_symmetry_Int_Tables_number   1
_chemical_formula_structural   CuH19C25N3O7
_chemical_formula_sum   'Cu2 H38 C50 N6 O14'
_cell_volume   1307.60861592
_cell_formula_units_Z   2
loop_
 _symmetry_equiv_pos_site_id
 _symmetry_equiv_pos_as_xyz
  1  'x, y, z'
loop_
 _atom_site_type_symbol
 _atom_site_label
 _atom_site_symmetry_multiplicity
 _atom_site_fract_x
 _atom_site_fract_y
 _atom_site_fract_z
 _atom_site_occupancy
 _atom_site_pbe_bader_charge
 _atom_site_pbe_bader_spin_density
 _atom_site_pbe_cm5_charge
 _atom_site_pbe_ddec_charge
 _atom_site_pbe_ddec_spin_density
 _atom_site_pbe_ddec_sum_bond_order
 _atom_site_pbe_magmom
Cu  Cu0  1  0.03026917  0.82727533  0.23600972  1  1.064906  0.569967  0.738174  0.755489  0.753009  2.249988  0.567
Cu  Cu1  1  0.96972950  0.17272672  0.76398693  1  1.064569  -0.569924  0.73812  0.755482  -0.752632  2.2499  -0.567
H  H2  1  0.12883811  0.97429350  0.10908239  1  0.124935  0.001664  0.119596  0.101519  0.000768  1.006879  0.001
H  H3  1  0.87116793  0.02571051  0.89091752  1  0.124932  -0.001662  0.119611  0.101518  -0.000766  1.006879  -0.001
H  H4  1  0.91154857  0.05195003  0.35970943  1  0.123028  0.001976  0.123803  0.103441  0.000933  0.988216  0.002
H  H5  1  0.08845312  0.94805202  0.64028458  1  0.122978  -0.001972  0.123805  0.103461  -0.000931  0.988214  -0.002
H  H6  1  0.24915920  0.88540143  0.39052320  1  0.640075  -0.000119  0.275359  0.370324  -8.5e-05  0.978038  0.0
H  H7  1  0.75082494  0.11459182  0.60947800  1  0.640078  0.00012  0.275355  0.370295  8.5e-05  0.97807  0.0
H  H8  1  0.18964921  0.00549549  0.46187928  1  0.579752  -0.000107  0.312233  0.396761  -6e-06  0.89008  0.0
H  H9  1  0.81033707  0.99450460  0.53811413  1  0.579533  0.000108  0.312179  0.39671  7e-06  0.890151  0.0
H  H10  1  0.64325476  0.32752659  0.58676520  1  0.187704  3.3e-05  0.122679  0.147796  2.2e-05  0.982161  0.0
H  H11  1  0.35674814  0.67247057  0.41323690  1  0.187726  -3.2e-05  0.122673  0.147782  -2.1e-05  0.982171  0.0
H  H12  1  0.63928481  0.63414585  0.91695968  1  0.082974  6e-06  0.101868  0.102943  -1.6e-05  1.041348  0.0
H  H13  1  0.36071270  0.36585522  0.08304274  1  0.082876  -7e-06  0.101862  0.102974  1.5e-05  1.041295  0.0
H  H14  1  0.57814241  0.83328126  0.24889652  1  0.105686  0.00052  0.109371  0.121591  0.000409  1.002033  0.0
H  H15  1  0.42185578  0.16671786  0.75110698  1  0.105725  -0.00052  0.109374  0.121573  -0.000408  1.002086  0.0
H  H16  1  0.47921604  0.35470875  0.71314739  1  0.155598  -5e-06  0.132407  0.111495  2e-06  1.017056  0.0
H  H17  1  0.52078701  0.64528938  0.28685425  1  0.15561  4e-06  0.132425  0.111507  -2e-06  1.01709  0.0
H  H18  1  0.95303771  0.47406072  0.39511554  1  0.15419  0.001017  0.115074  0.130632  0.00055  1.028524  0.001
H  H19  1  0.04696129  0.52594328  0.60488174  1  0.154576  -0.001014  0.115038  0.130603  -0.000548  1.028556  -0.001
H  H20  1  0.23032410  0.66496853  0.96530959  1  0.118811  0.000228  0.100662  0.109291  0.000212  1.027892  0.0
H  H21  1  0.76967276  0.33502862  0.03469314  1  0.118821  -0.000228  0.100652  0.109288  -0.000212  1.027912  0.0
H  H22  1  0.96917475  0.69710251  0.39373668  1  0.14276  0.002268  0.127922  0.112031  0.001123  0.97419  0.002
H  H23  1  0.03082107  0.30290051  0.60625749  1  0.142813  -0.002264  0.127883  0.112057  -0.00112  0.974189  -0.002
H  H24  1  0.07001831  0.35416409  0.07145922  1  0.17054  0.000819  0.110011  0.137451  0.000408  1.063715  0.001
H  H25  1  0.92999192  0.64584089  0.92854395  1  0.170499  -0.000818  0.110009  0.137465  -0.000407  1.063669  -0.001
H  H26  1  0.89535311  0.27631386  0.36238901  1  0.153556  0.000983  0.113183  0.138767  0.000528  1.02601  0.001
H  H27  1  0.10465160  0.72368819  0.63761013  1  0.153536  -0.000981  0.113212  0.138798  -0.000527  1.026103  -0.001
H  H28  1  0.64457502  0.72993956  0.62140528  1  0.149086  1e-05  0.120901  0.137667  1e-05  0.977994  0.0
H  H29  1  0.35542252  0.27005564  0.37859544  1  0.14899  -9e-06  0.120885  0.137633  -9e-06  0.978019  0.0
H  H30  1  0.08338501  0.58425810  0.08620158  1  0.126585  0.001717  0.116961  0.088878  0.00078  1.030057  0.001
H  H31  1  0.91662054  0.41574297  0.91379819  1  0.126707  -0.001714  0.116931  0.088839  -0.000778  1.030119  -0.001
H  H32  1  0.12369624  0.19527585  0.09937329  1  0.141163  0.000866  0.109523  0.129141  0.00046  1.031844  0.001
H  H33  1  0.87631197  0.80472913  0.90062880  1  0.141265  -0.000865  0.109542  0.129176  -0.00046  1.031807  -0.001
H  H34  1  0.47224486  0.74181256  0.74243518  1  0.139212  -1e-06  0.144057  0.12545  -1e-06  0.945831  0.0
H  H35  1  0.52775602  0.25818459  0.25756740  1  0.139123  -1e-06  0.144022  0.125379  -0.0  0.945881  0.0
H  H36  1  0.32259307  0.46039924  0.78497129  1  0.101883  5.3e-05  0.125318  0.123138  2.5e-05  0.965225  0.0
H  H37  1  0.67740311  0.53959988  0.21502880  1  0.101904  -5.3e-05  0.125321  0.123104  -2.5e-05  0.965269  0.0
H  H38  1  0.28798059  0.60507840  0.76209662  1  0.11601  1.6e-05  0.123193  0.119739  6e-06  0.989033  0.0
H  H39  1  0.71202061  0.39492071  0.23790425  1  0.116038  -1.6e-05  0.123198  0.11973  -6e-06  0.989065  0.0
C  C40  1  0.07918353  0.04540432  0.16346506  1  0.451854  -0.000923  0.04417  0.093383  -5.1e-05  3.945046  -0.001
C  C41  1  0.92082234  0.95459870  0.83653454  1  0.451794  0.000925  0.044184  0.093432  5.5e-05  3.945173  0.001
C  C42  1  0.95808937  0.08854982  0.30430686  1  0.461444  -0.000343  0.051546  0.097391  0.000602  3.917727  0.0
C  C43  1  0.04191148  0.91145320  0.69568964  1  0.460955  0.000347  0.051538  0.097306  -0.000597  3.917978  0.0
C  C44  1  0.30459931  0.79799471  0.19665662  1  1.56718  -0.001065  0.204041  0.560313  0.00029  4.224583  -0.003
C  C45  1  0.69539855  0.20200245  0.80334472  1  1.567235  0.001062  0.204053  0.56039  -0.000289  4.224499  0.003
C  C46  1  0.01120425  0.25751770  0.23238073  1  -0.036662  -0.002879  0.01529  0.108982  -0.00194  3.960835  -0.002
C  C47  1  0.98880497  0.74248728  0.76762074  1  -0.037056  0.002878  0.01524  0.108953  0.00194  3.960852  0.002
C  C48  1  0.01318054  0.39233333  0.23424873  1  -0.057978  -0.002804  0.010611  0.094564  -0.001887  3.974243  -0.002
C  C49  1  0.98682348  0.60767067  0.76575088  1  -0.05796  0.002802  0.010645  0.094667  0.001886  3.974257  0.002
C  C50  1  0.39478539  0.75154311  0.11499518  1  -0.054873  0.008575  -0.019254  -0.027732  0.006065  3.979005  0.007
C  C51  1  0.60521348  0.24845405  0.88500708  1  -0.054953  -0.00856  -0.019256  -0.027705  -0.006052  3.979057  -0.007
C  C52  1  0.60959931  0.42128735  0.62116592  1  0.006661  1.8e-05  -0.064713  -0.125774  2e-05  3.916343  0.0
C  C53  1  0.39040459  0.57870980  0.37883556  1  0.00672  -1.2e-05  -0.064726  -0.125722  -1.5e-05  3.916418  0.0
C  C54  1  0.62246861  0.73591713  0.08592949  1  -0.072907  0.009987  -0.017712  -0.008454  0.00714  3.993551  0.008
C  C55  1  0.37752974  0.26408296  0.91407277  1  -0.072974  -0.009968  -0.017685  -0.008398  -0.007124  3.993461  -0.008
C  C56  1  0.56758485  0.66525309  0.97003016  1  0.059135  0.000578  -0.089977  -0.158442  0.000392  3.965403  0.001
C  C57  1  0.43241249  0.33474700  0.02997272  1  0.059107  -0.000575  -0.090009  -0.158525  -0.00039  3.965402  -0.001
C  C58  1  0.53618956  0.77786770  0.15855615  1  -0.010843  0.000929  -0.084168  -0.13253  0.000781  3.959343  0.001
C  C59  1  0.46380930  0.22212946  0.84144689  1  -0.010845  -0.00093  -0.084193  -0.132546  -0.000781  3.959365  -0.001
C  C60  1  0.51856305  0.43443645  0.69021943  1  0.387696  3.9e-05  0.070761  0.054321  2.5e-05  3.814695  0.0
C  C61  1  0.48143900  0.56556169  0.30978205  1  0.387697  -3.9e-05  0.070658  0.054083  -2.5e-05  3.814856  0.0
C  C62  1  0.98402372  0.49217728  0.32462953  1  0.044981  0.005821  -0.070832  -0.154138  0.004105  3.905865  0.005
C  C63  1  0.01597527  0.50782672  0.67536697  1  0.044429  -0.005812  -0.070897  -0.154285  -0.004096  3.905965  -0.005
C  C64  1  0.65442085  0.52716070  0.59314715  1  0.001426  9e-05  0.021799  0.042189  6.6e-05  3.871926  0.0
C  C65  1  0.34557902  0.47283646  0.40685449  1  0.001224  -8.5e-05  0.021845  0.042258  -6.2e-05  3.871897  0.0
C  C66  1  0.34064952  0.68285627  0.99818410  1  -0.050146  -0.000416  -0.080454  -0.13264  -0.000229  3.891131  0.0
C  C67  1  0.65934834  0.31714089  0.00181724  1  -0.050321  0.000418  -0.080476  -0.132692  0.00023  3.891298  0.0
C  C68  1  0.99254693  0.61886310  0.32470626  1  0.446348  -0.000146  0.058629  0.114557  0.000742  3.885753  0.0
C  C69  1  0.00744888  0.38113993  0.67528869  1  0.446503  0.00015  0.058687  0.114569  -0.000737  3.8858  0.0
C  C70  1  0.04796177  0.42583825  0.14575233  1  -0.039367  0.004796  -0.089253  -0.189486  0.003421  3.942407  0.004
C  C71  1  0.95204008  0.57416478  0.85424744  1  -0.039407  -0.004788  -0.089322  -0.189648  -0.003414  3.942427  -0.004
C  C72  1  0.94984823  0.21413752  0.30514959  1  0.013615  0.005465  -0.071982  -0.147413  0.003842  3.881928  0.004
C  C73  1  0.05015362  0.78586550  0.69484629  1  0.014339  -0.005456  -0.072079  -0.147483  -0.003835  3.882219  -0.004
C  C74  1  0.60925178  0.64607557  0.64104786  1  0.010654  1e-06  -0.068126  -0.135316  4e-06  3.946357  0.0
C  C75  1  0.39074995  0.35392061  0.35895456  1  0.01065  2e-06  -0.068193  -0.135446  -1e-06  3.946537  0.0
C  C76  1  0.05533219  0.55433015  0.15236592  1  0.399555  -0.000885  0.038025  0.083534  -8.2e-05  3.95682  -0.001
C  C77  1  0.94467135  0.44567092  0.84763198  1  0.399358  0.000888  0.038032  0.083561  8.5e-05  3.956791  0.001
C  C78  1  0.74216387  0.51250278  0.50570597  1  1.631608  -2.2e-05  0.175742  0.529294  -9e-06  4.333073  0.0
C  C79  1  0.25783416  0.48749535  0.49429411  1  1.63156  1e-05  0.175617  0.529185  5e-06  4.333229  0.0
C  C80  1  0.42718002  0.63797607  0.92500940  1  -0.090242  0.000753  -0.014989  0.083809  0.000465  3.982554  0.001
C  C81  1  0.57281769  0.36202011  0.07499318  1  -0.090131  -0.000754  -0.01507  0.083716  -0.000466  3.982756  -0.001
C  C82  1  0.07523831  0.16911945  0.15913190  1  -0.012408  0.004894  -0.081101  -0.172068  0.003446  3.925632  0.004
C  C83  1  0.92476874  0.83088456  0.84086817  1  -0.012396  -0.004887  -0.081218  -0.172235  -0.003439  3.92566  -0.004
C  C84  1  0.51612831  0.65428068  0.70762509  1  0.400492  1.7e-05  0.074111  0.060707  1e-05  3.84064  0.0
C  C85  1  0.48387241  0.34571550  0.29237718  1  0.400465  -1.8e-05  0.074141  0.060788  -1.1e-05  3.840612  0.0
C  C86  1  0.36830211  0.56036639  0.79937075  1  0.261185  0.000221  -0.040519  -0.131176  0.000152  3.836644  0.0
C  C87  1  0.63169676  0.43963077  0.20062918  1  0.261092  -0.000221  -0.040566  -0.131227  -0.000152  3.836794  0.0
C  C88  1  0.77452205  0.76622644  0.12726870  1  1.534714  -0.002073  0.188989  0.550281  -0.000615  4.243356  -0.004
C  C89  1  0.22547646  0.23377462  0.87273231  1  1.534712  0.002069  0.188924  0.550242  0.000615  4.243342  0.004
N  N90  1  0.02336001  0.00604896  0.23582709  1  -1.231558  0.082182  -0.356002  -0.237232  0.056586  3.655102  0.07
N  N91  1  0.97664385  0.99395407  0.76417143  1  -1.231639  -0.082084  -0.355986  -0.23719  -0.056497  3.655234  -0.07
N  N92  1  0.02918870  0.64983148  0.24056590  1  -1.217295  0.084524  -0.352666  -0.21701  0.058198  3.618089  0.072
N  N93  1  0.97081199  0.35017057  0.75943029  1  -1.217137  -0.084415  -0.3527  -0.217035  -0.058101  3.618184  -0.072
N  N94  1  0.47140887  0.54897546  0.73088288  1  -1.216965  1e-05  -0.205757  0.101651  3e-06  3.743309  0.0
N  N95  1  0.52859318  0.45102267  0.26912016  1  -1.216929  -1.1e-05  -0.205716  0.101848  -4e-06  3.743176  0.0
O  O96  1  0.17225094  0.91046362  0.42819153  1  -1.220032  0.007207  -0.593791  -0.781524  0.005024  1.972389  0.007
O  O97  1  0.82773216  0.08953549  0.57180655  1  -1.219778  -0.007187  -0.593782  -0.781497  -0.005009  1.972503  -0.007
O  O98  1  0.18124747  0.80239501  0.15066896  1  -1.136198  0.096046  -0.322843  -0.557005  0.063878  2.386171  0.087
O  O99  1  0.81875305  0.19760606  0.84933003  1  -1.136316  -0.095898  -0.322921  -0.557132  -0.063755  2.386211  -0.087
O  O100  1  0.75141165  0.39582131  0.44804298  1  -1.18193  0.000748  -0.349078  -0.592835  0.000484  2.120056  0.0
O  O101  1  0.24858855  0.60417780  0.55195772  1  -1.182099  -0.000416  -0.349248  -0.593056  -0.000272  2.120102  0.0
O  O102  1  0.35436559  0.82753250  0.30148258  1  -1.176496  0.001536  -0.317641  -0.546583  0.000759  2.152851  0.002
O  O103  1  0.64562760  0.17246075  0.69851924  1  -1.176492  -0.001528  -0.317688  -0.546687  -0.000753  2.152819  -0.002
O  O104  1  0.79093604  0.61746869  0.49828169  1  -1.169131  0.000472  -0.351716  -0.57734  0.000308  2.080102  0.0
O  O105  1  0.20906299  0.38252945  0.50171856  1  -1.169162  -7.2e-05  -0.351834  -0.577476  -5.3e-05  2.080305  0.0
O  O106  1  0.84555768  0.75031005  0.05489687  1  -1.172054  0.001878  -0.326347  -0.569007  0.000982  2.220835  0.003
O  O107  1  0.15444168  0.24969005  0.94510243  1  -1.172147  -0.001861  -0.326336  -0.569031  -0.00097  2.220958  -0.003
O  O108  1  0.82483812  0.80697916  0.23561890  1  -1.109102  0.112775  -0.326365  -0.544019  0.074902  2.228815  0.101
O  O109  1  0.17516257  0.19302289  0.76438040  1  -1.109208  -0.112623  -0.326484  -0.544153  -0.07477  2.22877  -0.101
