# generated using pymatgen
data_CuH8C12BrN2
_symmetry_space_group_name_H-M   'P 1'
_cell_length_a   3.84004828
_cell_length_b   10.03326892
_cell_length_c   13.73200180
_cell_angle_alpha   104.30754023
_cell_angle_beta   93.91740708
_cell_angle_gamma   96.72253615
_symmetry_Int_Tables_number   1
_chemical_formula_structural   CuH8C12BrN2
_chemical_formula_sum   'Cu2 H16 C24 Br2 N4'
_cell_volume   506.52873427
_cell_formula_units_Z   2
loop_
 _symmetry_equiv_pos_site_id
 _symmetry_equiv_pos_as_xyz
  1  'x, y, z'
loop_
 _atom_site_type_symbol
 _atom_site_label
 _atom_site_symmetry_multiplicity
 _atom_site_fract_x
 _atom_site_fract_y
 _atom_site_fract_z
 _atom_site_occupancy
 _atom_site_hle17_bader_spin_density
 _atom_site_hle17_ddec_charge
 _atom_site_hle17_ddec_spin_density
 _atom_site_hle17_ddec_sum_bond_order
 _atom_site_hle17_magmom
 _atom_site_hse06_10hf_bader_spin_density
 _atom_site_hse06_10hf_ddec_charge
 _atom_site_hse06_10hf_ddec_spin_density
 _atom_site_hse06_10hf_ddec_sum_bond_order
 _atom_site_hse06_10hf_magmom
 _atom_site_hse06_bader_spin_density
 _atom_site_hse06_ddec_charge
 _atom_site_hse06_ddec_spin_density
 _atom_site_hse06_ddec_sum_bond_order
 _atom_site_hse06_magmom
 _atom_site_pbe_bader_spin_density
 _atom_site_pbe_cm5_charge
 _atom_site_pbe_ddec_charge
 _atom_site_pbe_ddec_spin_density
 _atom_site_pbe_ddec_sum_bond_order
 _atom_site_pbe_magmom
Cu  Cu0  1  0.20922620  0.12097538  0.53405505  1  0  0.352912  0  1.998701  0  0  0.258662  0  2.487673  0  0  0.270069  0  2.431687  0  0  0.306263  0.254041  0  2.524037  0
Cu  Cu1  1  0.79078926  0.87902475  0.46594064  1  0  0.352858  0  1.998857  0  0  0.25862  0  2.487825  0  0  0.270053  0  2.431855  0  0  0.306278  0.253997  0  2.524164  0
H  H2  1  0.56903738  0.87444040  0.02345758  1  0  0.048946  0  0.960615  0  0  0.057965  0  1.031057  0  0  0.060263  0  1.028934  0  0  0.1011  0.056444  0  1.032126  0
H  H3  1  0.43092788  0.12556579  0.97653758  1  0  0.048913  0  0.960516  0  0  0.057949  0  1.03094  0  0  0.060259  0  1.028803  0  0  0.101106  0.056429  0  1.032006  0
H  H4  1  0.87742670  0.98921191  0.90505930  1  0  0.085998  0  0.982229  0  0  0.097431  0  1.045795  0  0  0.099889  0  1.045708  0  0  0.097825  0.095803  0  1.045428  0
H  H5  1  0.12255655  0.01079328  0.09494037  1  0  0.0859  0  0.982296  0  0  0.097358  0  1.045856  0  0  0.099806  0  1.045775  0  0  0.09779  0.095736  0  1.045484  0
H  H6  1  0.93387688  0.84657645  0.72953725  1  0  0.097131  0  0.980264  0  0  0.107479  0  1.044466  0  0  0.110027  0  1.043323  0  0  0.089459  0.105493  0  1.045254  0
H  H7  1  0.06613149  0.15342570  0.27046451  1  0  0.097142  0  0.980253  0  0  0.107476  0  1.044475  0  0  0.110028  0  1.043332  0  0  0.089492  0.105489  0  1.045269  0
H  H8  1  0.80868554  0.61902122  0.60258795  1  0  0.099402  0  0.948951  0  0  0.109317  0  1.012777  0  0  0.112554  0  1.011041  0  0  0.098099  0.106729  0  1.014362  0
H  H9  1  0.19134595  0.38097163  0.39742127  1  0  0.099419  0  0.948995  0  0  0.109418  0  1.012724  0  0  0.112651  0  1.011009  0  0  0.098153  0.106845  0  1.014279  0
H  H10  1  0.55140388  0.36882655  0.55636815  1  0  0.102001  0  0.9803  0  0  0.109432  0  1.051596  0  0  0.114156  0  1.047629  0  0  0.09068  0.105852  0  1.054511  0
H  H11  1  0.44863870  0.63116844  0.44363656  1  0  0.101932  0  0.980393  0  0  0.1094  0  1.051637  0  0  0.114124  0  1.047674  0  0  0.090671  0.105824  0  1.054538  0
H  H12  1  0.92435239  0.07622434  0.71035100  1  0  0.072757  0  0.968487  0  0  0.07999  0  1.03921  0  0  0.083146  0  1.035477  0  0  0.098923  0.077487  0  1.041668  0
H  H13  1  0.07564185  0.92377467  0.28964629  1  0  0.072727  0  0.968556  0  0  0.079972  0  1.03927  0  0  0.083126  0  1.035529  0  0  0.098917  0.077468  0  1.04173  0
H  H14  1  0.86337242  0.21154326  0.88693732  1  0  0.095946  0  0.96885  0  0  0.106794  0  1.031057  0  0  0.109481  0  1.030954  0  0  0.102145  0.104885  0  1.031081  0
H  H15  1  0.13661624  0.78845469  0.11305967  1  0  0.095982  0  0.96885  0  0  0.106841  0  1.031034  0  0  0.109526  0  1.030929  0  0  0.102158  0.104932  0  1.03106  0
H  H16  1  0.14090188  0.46021587  0.94478132  1  0  0.104543  0  0.958114  0  0  0.110751  0  1.029145  0  0  0.114588  0  1.023808  0  0  0.109131  0.107771  0  1.033198  0
H  H17  1  0.85908226  0.53978413  0.05521742  1  0  0.104477  0  0.95816  0  0  0.110684  0  1.029209  0  0  0.114512  0  1.023894  0  0  0.109106  0.107703  0  1.03326  0
C  C18  1  0.59387860  0.81475080  0.94652590  1  0  0.119594  0  3.784934  0  0  0.092382  0  4.049665  0  0  0.099138  0  4.067134  0  0  0.041037  0.08777  0  4.03856  0
C  C19  1  0.40607645  0.18524808  0.05347211  1  0  0.119742  0  3.784951  0  0  0.092557  0  4.049642  0  0  0.099305  0  4.067107  0  0  0.041084  0.087946  0  4.038539  0
C  C20  1  0.76693592  0.87988564  0.87999353  1  0  -0.144383  0  3.77956  0  0  -0.155668  0  4.030486  0  0  -0.163412  0  4.053227  0  0  -0.099946  -0.150258  0  4.01405  0
C  C21  1  0.23303423  0.12011953  0.12000299  1  0  -0.14433  0  3.779809  0  0  -0.155678  0  4.030752  0  0  -0.163413  0  4.053501  0  0  -0.099965  -0.150271  0  4.014318  0
C  C22  1  0.79713238  0.80207612  0.78361807  1  0  -0.036341  0  3.69636  0  0  -0.060906  0  3.940969  0  0  -0.0578  0  3.959708  0  0  -0.071941  -0.062832  0  3.927928  0
C  C23  1  0.20285406  0.19792285  0.21638271  1  0  -0.036233  0  3.696175  0  0  -0.060791  0  3.940783  0  0  -0.057685  0  3.959512  0  0  -0.071942  -0.062721  0  3.92776  0
C  C24  1  0.67222911  0.57349028  0.65631280  1  0  -0.064953  0  3.721256  0  0  -0.086798  0  3.970447  0  0  -0.085994  0  3.990598  0  0  -0.079778  -0.08786  0  3.958007  0
C  C25  1  0.32780236  0.42650258  0.34369350  1  0  -0.06506  0  3.721311  0  0  -0.086994  0  3.970532  0  0  -0.086183  0  3.990654  0  0  -0.079809  -0.088057  0  3.958107  0
C  C26  1  0.53064530  0.43661712  0.63072370  1  0  -0.140804  0  3.719747  0  0  -0.160195  0  3.971894  0  0  -0.166151  0  3.99128  0  0  -0.092148  -0.156674  0  3.959904  0
C  C27  1  0.46940114  0.56337372  0.36928105  1  0  -0.14057  0  3.719772  0  0  -0.15999  0  3.971916  0  0  -0.165952  0  3.991309  0  0  -0.092151  -0.156466  0  3.959915  0
C  C28  1  0.04115434  0.18478720  0.73821637  1  0  0.135972  0  3.686505  0  0  0.101061  0  3.940526  0  0  0.111498  0  3.954645  0  0  0.037911  0.0948  0  3.929894  0
C  C29  1  0.95884287  0.81521285  0.26178334  1  0  0.136006  0  3.686679  0  0  0.101084  0  3.94072  0  0  0.111534  0  3.954831  0  0  0.037965  0.094823  0  3.930088  0
C  C30  1  0.00886239  0.26028413  0.83667866  1  0  -0.128095  0  3.758198  0  0  -0.139555  0  4.014428  0  0  -0.148753  0  4.036332  0  0  -0.090436  -0.133503  0  3.998812  0
C  C31  1  0.99113776  0.73971697  0.16331984  1  0  -0.128011  0  3.758273  0  0  -0.139476  0  4.014496  0  0  -0.148669  0  4.036395  0  0  -0.090428  -0.133424  0  3.998873  0
C  C32  1  0.15629837  0.39821231  0.86860705  1  0  -0.011182  0  3.683371  0  0  -0.045656  0  3.944037  0  0  -0.037729  0  3.957298  0  0  -0.060233  -0.050247  0  3.934711  0
C  C33  1  0.84368124  0.60178976  0.13139271  1  0  -0.011192  0  3.683468  0  0  -0.045711  0  3.944108  0  0  -0.037793  0  3.957376  0  0  -0.060249  -0.050307  0  3.934803  0
C  C34  1  0.33051385  0.45968913  0.80058372  1  0  -0.059377  0  3.742315  0  0  -0.042207  0  3.966233  0  0  -0.049908  0  3.991655  0  0  -0.000871  -0.037557  0  3.949264  0
C  C35  1  0.66948404  0.54031300  0.19941493  1  0  -0.05931  0  3.742305  0  0  -0.042016  0  3.966053  0  0  -0.04971  0  3.991471  0  0  -0.000861  -0.037369  0  3.949083  0
C  C36  1  0.48218372  0.60457635  0.82793396  1  0  0.16913  0  3.752828  0  0  0.167115  0  3.989686  0  0  0.173042  0  4.011285  0  0  0.119891  0.163726  0  3.974581  0
C  C37  1  0.51779588  0.39542572  0.17206508  1  0  0.169166  0  3.752955  0  0  0.167085  0  3.989808  0  0  0.173008  0  4.011407  0  0  0.119871  0.163701  0  3.974704  0
C  C38  1  0.65177220  0.66058490  0.75486650  1  0  0.010688  0  3.779848  0  0  0.027623  0  4.010307  0  0  0.023628  0  4.03381  0  0  -0.007317  0.029953  0  3.994835  0
C  C39  1  0.34823286  0.33941517  0.24513409  1  0  0.010581  0  3.779747  0  0  0.027552  0  4.010178  0  0  0.023562  0  4.033676  0  0  -0.007344  0.029878  0  3.994719  0
C  C40  1  0.35452475  0.37691954  0.70147181  1  0  0.211067  0  3.747893  0  0  0.207427  0  3.979925  0  0  0.215453  0  4.001943  0  0  0.110349  0.201523  0  3.966389  0
C  C41  1  0.64548751  0.62307845  0.29853290  1  0  0.210872  0  3.747933  0  0  0.207223  0  3.979955  0  0  0.21525  0  4.001977  0  0  0.110355  0.201318  0  3.966417  0
Br  Br42  1  0.68460108  0.11824749  0.42191520  1  0  -0.466224  0  1.574159  0  0  -0.396632  0  2.007368  0  0  -0.414286  0  1.963453  0  0  -0.222995  -0.383803  0  2.035465  0
Br  Br43  1  0.31543109  0.88175581  0.57808137  1  0  -0.466209  0  1.574228  0  0  -0.396623  0  2.007431  0  0  -0.414265  0  1.963486  0  0  -0.223004  -0.38381  0  2.035554  0
N  N44  1  0.45603125  0.68183321  0.92264390  1  0  -0.336692  0  3.06711  0  0  -0.302411  0  3.336031  0  0  -0.315161  0  3.353264  0  0  -0.314887  -0.293961  0  3.324592  0
N  N45  1  0.54393856  0.31817092  0.07735315  1  0  -0.336826  0  3.067173  0  0  -0.302551  0  3.336102  0  0  -0.315303  0  3.353342  0  0  -0.31491  -0.294098  0  3.324658  0
N  N46  1  0.21094373  0.23946944  0.67188486  1  0  -0.318014  0  3.336912  0  0  -0.243392  0  3.626282  0  0  -0.257745  0  3.633576  0  0  -0.362251  -0.235573  0  3.622294  0
N  N47  1  0.78906655  0.76053065  0.32811509  1  0  -0.317997  0  3.337227  0  0  -0.243399  0  3.626618  0  0  -0.257764  0  3.633926  0  0  -0.362293  -0.235576  0  3.622616  0
