# generated using pymatgen
data_ZnH16C10(N3Cl)2
_symmetry_space_group_name_H-M   'P 1'
_cell_length_a   6.33233263
_cell_length_b   7.24509429
_cell_length_c   18.12012285
_cell_angle_alpha   101.19141795
_cell_angle_beta   90.00096345
_cell_angle_gamma   115.88376193
_symmetry_Int_Tables_number   1
_chemical_formula_structural   ZnH16C10(N3Cl)2
_chemical_formula_sum   'Zn2 H32 C20 N12 Cl4'
_cell_volume   730.31188665
_cell_formula_units_Z   2
loop_
 _symmetry_equiv_pos_site_id
 _symmetry_equiv_pos_as_xyz
  1  'x, y, z'
loop_
 _atom_site_type_symbol
 _atom_site_label
 _atom_site_symmetry_multiplicity
 _atom_site_fract_x
 _atom_site_fract_y
 _atom_site_fract_z
 _atom_site_occupancy
 _atom_site_hle17_bader_spin_density
 _atom_site_hle17_ddec_charge
 _atom_site_hle17_ddec_spin_density
 _atom_site_hle17_ddec_sum_bond_order
 _atom_site_hle17_magmom
 _atom_site_hse06_10hf_bader_spin_density
 _atom_site_hse06_10hf_ddec_charge
 _atom_site_hse06_10hf_ddec_spin_density
 _atom_site_hse06_10hf_ddec_sum_bond_order
 _atom_site_hse06_10hf_magmom
 _atom_site_hse06_bader_spin_density
 _atom_site_hse06_ddec_charge
 _atom_site_hse06_ddec_spin_density
 _atom_site_hse06_ddec_sum_bond_order
 _atom_site_hse06_magmom
 _atom_site_pbe_bader_spin_density
 _atom_site_pbe_cm5_charge
 _atom_site_pbe_ddec_charge
 _atom_site_pbe_ddec_spin_density
 _atom_site_pbe_ddec_sum_bond_order
 _atom_site_pbe_magmom
Zn  Zn0  1  0.81990074  0.00019238  0.74989072  1  0  0.853293  0  2.169101  0  0  0.682358  0  2.666785  0  0  0.721113  0  2.620818  0  0  0.55397  0.655724  0  2.698021  0
Zn  Zn1  1  0.18008867  0.99979793  0.25010719  1  0  0.853356  0  2.169063  0  0  0.68236  0  2.666879  0  0  0.721108  0  2.620905  0  0  0.553965  0.655725  0  2.698114  0
H  H2  1  0.40162239  0.27365183  0.74073349  1  0  0.112806  0  0.94169  0  0  0.120346  0  1.009331  0  0  0.123392  0  1.00542  0  0  0.134631  0.118021  0  1.012233  0
H  H3  1  0.12779835  0.72642039  0.75911904  1  0  0.112204  0  0.940997  0  0  0.119629  0  1.00881  0  0  0.122637  0  1.004942  0  0  0.134421  0.117311  0  1.011717  0
H  H4  1  0.59837194  0.72633885  0.25927383  1  0  0.112783  0  0.94182  0  0  0.120384  0  1.009375  0  0  0.123432  0  1.005461  0  0  0.134662  0.118055  0  1.012284  0
H  H5  1  0.87217541  0.27355755  0.24088293  1  0  0.11217  0  0.940996  0  0  0.119611  0  1.008785  0  0  0.122615  0  1.004924  0  0  0.134405  0.117294  0  1.011688  0
H  H6  1  0.85589754  0.88254392  0.56798312  1  0  0.093779  0  0.951055  0  0  0.097662  0  1.02388  0  0  0.100496  0  1.02023  0  0  0.133356  0.0955  0  1.026736  0
H  H7  1  0.97270518  0.11731096  0.93189905  1  0  0.093125  0  0.951801  0  0  0.09774  0  1.023987  0  0  0.100602  0  1.02028  0  0  0.133182  0.095589  0  1.026826  0
H  H8  1  0.14408389  0.11744622  0.43201037  1  0  0.093629  0  0.951295  0  0  0.097537  0  1.0241  0  0  0.100368  0  1.020455  0  0  0.1333  0.095392  0  1.026942  0
H  H9  1  0.02732899  0.88270573  0.06809250  1  0  0.093213  0  0.95145  0  0  0.097741  0  1.023719  0  0  0.100605  0  1.020012  0  0  0.133178  0.095599  0  1.026551  0
H  H10  1  0.69015938  0.12159670  0.59636454  1  0  0.071887  0  0.943815  0  0  0.083126  0  1.020975  0  0  0.083347  0  1.020603  0  0  0.106646  0.082759  0  1.021564  0
H  H11  1  0.56790266  0.87783685  0.90348615  1  0  0.071655  0  0.943086  0  0  0.083297  0  1.019821  0  0  0.083497  0  1.019498  0  0  0.106748  0.082935  0  1.0204  0
H  H12  1  0.30984189  0.87839206  0.40363381  1  0  0.071925  0  0.943802  0  0  0.08315  0  1.020938  0  0  0.08337  0  1.020567  0  0  0.10664  0.082782  0  1.021527  0
H  H13  1  0.43209774  0.12216913  0.09651180  1  0  0.071604  0  0.943109  0  0  0.083289  0  1.019827  0  0  0.083486  0  1.019509  0  0  0.106757  0.082927  0  1.020406  0
H  H14  1  0.74276650  0.35589973  0.66294302  1  0  0.079124  0  0.927876  0  0  0.095895  0  0.990948  0  0  0.096115  0  0.991233  0  0  0.108065  0.095576  0  0.990892  0
H  H15  1  0.38625093  0.64361810  0.83689926  1  0  0.07787  0  0.928797  0  0  0.094728  0  0.991893  0  0  0.094975  0  0.992162  0  0  0.107842  0.094437  0  0.991796  0
H  H16  1  0.25722545  0.64408302  0.33706206  1  0  0.079092  0  0.927891  0  0  0.09587  0  0.990953  0  0  0.096089  0  0.991238  0  0  0.108083  0.09555  0  0.990893  0
H  H17  1  0.61375108  0.35638164  0.16309934  1  0  0.077846  0  0.928783  0  0  0.094756  0  0.991853  0  0  0.095001  0  0.992121  0  0  0.107837  0.094465  0  0.991752  0
H  H18  1  0.64827763  0.49651193  0.55584709  1  0  0.069788  0  0.944648  0  0  0.086539  0  1.009268  0  0  0.087278  0  1.009685  0  0  0.083498  0.085907  0  1.009125  0
H  H19  1  0.15148534  0.50278826  0.94393472  1  0  0.070476  0  0.944985  0  0  0.087331  0  1.009561  0  0  0.088036  0  1.01  0  0  0.083871  0.086685  0  1.009442  0
H  H20  1  0.35172147  0.50348828  0.44416368  1  0  0.069847  0  0.944554  0  0  0.086555  0  1.009178  0  0  0.087283  0  1.009606  0  0  0.08347  0.085931  0  1.009042  0
H  H21  1  0.84852852  0.49721937  0.05606555  1  0  0.070593  0  0.945017  0  0  0.087414  0  1.009608  0  0  0.088133  0  1.010036  0  0  0.08391  0.086791  0  1.009465  0
H  H22  1  0.60421294  0.26108488  0.49184377  1  0  0.074135  0  0.945708  0  0  0.085917  0  1.018569  0  0  0.087458  0  1.017652  0  0  0.087376  0.084779  0  1.019261  0
H  H23  1  0.34213793  0.73830706  0.00793886  1  0  0.074197  0  0.94588  0  0  0.08646  0  1.018235  0  0  0.087953  0  1.017362  0  0  0.087679  0.085348  0  1.018921  0
H  H24  1  0.39577808  0.73892760  0.50816017  1  0  0.074131  0  0.945747  0  0  0.085923  0  1.018556  0  0  0.087467  0  1.017635  0  0  0.087376  0.084789  0  1.019253  0
H  H25  1  0.65787038  0.26170527  0.99206121  1  0  0.074141  0  0.945877  0  0  0.086453  0  1.018198  0  0  0.087946  0  1.01733  0  0  0.087686  0.085339  0  1.018888  0
H  H26  1  0.06808094  0.58501548  0.58536435  1  0  0.059863  0  0.950189  0  0  0.0782  0  1.011478  0  0  0.0785  0  1.012709  0  0  0.076725  0.077901  0  1.010718  0
H  H27  1  0.48355042  0.41487505  0.91463504  1  0  0.060262  0  0.949422  0  0  0.078455  0  1.010807  0  0  0.078796  0  1.012008  0  0  0.076724  0.078119  0  1.010063  0
H  H28  1  0.93191802  0.41498444  0.41463922  1  0  0.059889  0  0.950103  0  0  0.078206  0  1.01145  0  0  0.078507  0  1.012679  0  0  0.076742  0.077909  0  1.010689  0
H  H29  1  0.51647132  0.58514203  0.08536647  1  0  0.060194  0  0.949504  0  0  0.078393  0  1.01086  0  0  0.078735  0  1.012062  0  0  0.076682  0.078057  0  1.010117  0
H  H30  1  0.02486266  0.33503222  0.53623114  1  0  0.059032  0  0.94784  0  0  0.077976  0  1.009496  0  0  0.078096  0  1.011196  0  0  0.083503  0.077824  0  1.008459  0
H  H31  1  0.68946605  0.66520394  0.96381186  1  0  0.058713  0  0.94845  0  0  0.077922  0  1.009862  0  0  0.078107  0  1.011489  0  0  0.083339  0.07774  0  1.008833  0
H  H32  1  0.97512916  0.66496924  0.46377145  1  0  0.059073  0  0.947719  0  0  0.078029  0  1.009384  0  0  0.078146  0  1.011085  0  0  0.083525  0.077878  0  1.008345  0
H  H33  1  0.31053751  0.33480520  0.03618686  1  0  0.058733  0  0.948374  0  0  0.077922  0  1.009801  0  0  0.078117  0  1.011408  0  0  0.083347  0.077733  0  1.008783  0
C  C34  1  0.30024809  0.18507244  0.68680916  1  0  0.182388  0  3.632268  0  0  0.100385  0  3.895479  0  0  0.114474  0  3.907026  0  0  0.164892  0.091409  0  3.887471  0
C  C35  1  0.11484633  0.81489795  0.81305953  1  0  0.183748  0  3.632465  0  0  0.101956  0  3.896085  0  0  0.116087  0  3.907627  0  0  0.166109  0.092967  0  3.888065  0
C  C36  1  0.69973355  0.81490864  0.31319305  1  0  0.182378  0  3.632347  0  0  0.100311  0  3.895516  0  0  0.114396  0  3.907067  0  0  0.164818  0.091336  0  3.887503  0
C  C37  1  0.88514866  0.18509087  0.18694048  1  0  0.183752  0  3.632302  0  0  0.101967  0  3.895945  0  0  0.116099  0  3.907486  0  0  0.166046  0.092979  0  3.887921  0
C  C38  1  0.02883802  0.98510116  0.59773373  1  0  0.195794  0  3.710837  0  0  0.14219  0  4.000674  0  0  0.15374  0  4.013209  0  0  0.148772  0.134584  0  3.99232  0
C  C39  1  0.04314748  0.01476187  0.90216032  1  0  0.195917  0  3.710606  0  0  0.141789  0  4.000161  0  0  0.153313  0  4.012756  0  0  0.148821  0.134187  0  3.99179  0
C  C40  1  0.97115376  0.01489388  0.40226508  1  0  0.196037  0  3.711001  0  0  0.142397  0  4.000832  0  0  0.15395  0  4.013364  0  0  0.148849  0.134775  0  3.992474  0
C  C41  1  0.95685675  0.98525809  0.09783478  1  0  0.195789  0  3.710789  0  0  0.141729  0  4.00035  0  0  0.15325  0  4.012948  0  0  0.148786  0.134124  0  3.991973  0
C  C42  1  0.64536097  0.25404213  0.60892312  1  0  -0.008973  0  3.640688  0  0  -0.087326  0  3.902171  0  0  -0.08359  0  3.914349  0  0  -0.049636  -0.089583  0  3.893944  0
C  C43  1  0.39069419  0.74544471  0.89092285  1  0  -0.006242  0  3.639542  0  0  -0.084912  0  3.90195  0  0  -0.081131  0  3.913926  0  0  -0.04937  -0.087228  0  3.89385  0
C  C44  1  0.35463878  0.74594990  0.39107878  1  0  -0.008992  0  3.64096  0  0  -0.087332  0  3.902395  0  0  -0.083592  0  3.914565  0  0  -0.049689  -0.089579  0  3.894168  0
C  C45  1  0.60930536  0.25456589  0.10907323  1  0  -0.006089  0  3.639474  0  0  -0.084896  0  3.902021  0  0  -0.081113  0  3.913996  0  0  -0.049356  -0.087213  0  3.893918  0
C  C46  1  0.70387038  0.37016329  0.54462201  1  0  -0.129606  0  3.696715  0  0  -0.17272  0  3.964231  0  0  -0.174076  0  3.977209  0  0  -0.167929  -0.171517  0  3.955014  0
C  C47  1  0.33320775  0.62923438  0.95519374  1  0  -0.131543  0  3.69887  0  0  -0.175444  0  3.967281  0  0  -0.17676  0  3.980282  0  0  -0.168849  -0.174239  0  3.958021  0
C  C48  1  0.29614194  0.62984442  0.45538048  1  0  -0.1297  0  3.696863  0  0  -0.17274  0  3.964295  0  0  -0.174089  0  3.977262  0  0  -0.167867  -0.171529  0  3.955035  0
C  C49  1  0.66680212  0.37078423  0.04480679  1  0  -0.131543  0  3.69907  0  0  -0.175446  0  3.967474  0  0  -0.176778  0  3.980481  0  0  -0.168805  -0.174269  0  3.958236  0
C  C50  1  0.96785379  0.45860851  0.53606613  1  0  -0.1044  0  3.691997  0  0  -0.138615  0  3.943547  0  0  -0.140216  0  3.959745  0  0  -0.17071  -0.137348  0  3.932281  0
C  C51  1  0.50917966  0.54128635  0.96390841  1  0  -0.103968  0  3.69094  0  0  -0.138199  0  3.942172  0  0  -0.139864  0  3.95833  0  0  -0.170335  -0.136865  0  3.930885  0
C  C52  1  0.03215773  0.54140076  0.46393592  1  0  -0.104429  0  3.691734  0  0  -0.138717  0  3.943342  0  0  -0.140319  0  3.959542  0  0  -0.170785  -0.137445  0  3.932084  0
C  C53  1  0.49082781  0.45873379  0.03609112  1  0  -0.103969  0  3.690964  0  0  -0.138153  0  3.942151  0  0  -0.139811  0  3.958299  0  0  -0.170371  -0.136827  0  3.930876  0
N  N54  1  0.06563439  0.07004848  0.67360806  1  0  -0.407972  0  3.281672  0  0  -0.326039  0  3.582588  0  0  -0.348072  0  3.594144  0  0  -0.356086  -0.31125  0  3.57444  0
N  N55  1  0.99535649  0.93006763  0.82626608  1  0  -0.407683  0  3.28282  0  0  -0.326  0  3.583833  0  0  -0.348059  0  3.595438  0  0  -0.356159  -0.311203  0  3.575665  0
N  N56  1  0.93435506  0.92993558  0.32639050  1  0  -0.407992  0  3.28141  0  0  -0.325998  0  3.582301  0  0  -0.348031  0  3.593852  0  0  -0.356058  -0.311208  0  3.574157  0
N  N57  1  0.00464470  0.06992414  0.17372917  1  0  -0.407703  0  3.28276  0  0  -0.326028  0  3.583767  0  0  -0.348085  0  3.595367  0  0  -0.356105  -0.311235  0  3.575602  0
N  N58  1  0.39627777  0.16816052  0.62161244  1  0  0.053175  0  3.556371  0  0  0.175595  0  3.741246  0  0  0.166666  0  3.762643  0  0  -0.126875  0.181189  0  3.726966  0
N  N59  1  0.22753072  0.83148340  0.87828025  1  0  0.052779  0  3.555693  0  0  0.175134  0  3.740987  0  0  0.166197  0  3.762412  0  0  -0.127059  0.180726  0  3.72669  0
N  N60  1  0.60372436  0.83182682  0.37838967  1  0  0.053205  0  3.55655  0  0  0.175618  0  3.741426  0  0  0.16669  0  3.762821  0  0  -0.126879  0.181209  0  3.727143  0
N  N61  1  0.77246890  0.16851786  0.12171736  1  0  0.052679  0  3.555429  0  0  0.175027  0  3.740791  0  0  0.16609  0  3.76221  0  0  -0.127046  0.180623  0  3.726491  0
N  N62  1  0.22635164  0.04179203  0.56404049  1  0  -0.251226  0  2.8464  0  0  -0.24527  0  3.11271  0  0  -0.254268  0  3.127051  0  0  -0.209176  -0.239234  0  3.103168  0
N  N63  1  0.18378869  0.95778304  0.93586344  1  0  -0.251585  0  2.846566  0  0  -0.245818  0  3.113389  0  0  -0.254835  0  3.127767  0  0  -0.20953  -0.23977  0  3.103836  0
N  N64  1  0.77364417  0.95819528  0.43596107  1  0  -0.251316  0  2.846574  0  0  -0.245368  0  3.112897  0  0  -0.254367  0  3.127237  0  0  -0.209168  -0.239332  0  3.10336  0
N  N65  1  0.81623924  0.04223694  0.06413221  1  0  -0.251513  0  2.847033  0  0  -0.245711  0  3.113812  0  0  -0.254729  0  3.128193  0  0  -0.209541  -0.239665  0  3.104258  0
Cl  Cl66  1  0.49913982  0.72632879  0.68444801  1  0  -0.576366  0  0.888468  0  0  -0.515172  0  1.153075  0  0  -0.530025  0  1.130881  0  0  -0.324336  -0.50451  0  1.168194  0
Cl  Cl67  1  0.77265569  0.27404486  0.81533315  1  0  -0.576448  0  0.889143  0  0  -0.515107  0  1.153655  0  0  -0.529971  0  1.131432  0  0  -0.324098  -0.504461  0  1.168813  0
Cl  Cl68  1  0.50084874  0.27367245  0.31554904  1  0  -0.576354  0  0.88841  0  0  -0.51514  0  1.153005  0  0  -0.529986  0  1.130807  0  0  -0.324321  -0.504492  0  1.168149  0
Cl  Cl69  1  0.22733848  0.72594865  0.18466665  1  0  -0.57646  0  0.889168  0  0  -0.515125  0  1.153706  0  0  -0.529989  0  1.131481  0  0  -0.324098  -0.504476  0  1.168867  0
