# generated using pymatgen
data_CdH7C5N(ClO)2
_symmetry_space_group_name_H-M   'P 1'
_cell_length_a   6.28475882
_cell_length_b   7.36389572
_cell_length_c   19.26979690
_cell_angle_alpha   90.00001979
_cell_angle_beta   89.99941102
_cell_angle_gamma   90.00009846
_symmetry_Int_Tables_number   1
_chemical_formula_structural   CdH7C5N(ClO)2
_chemical_formula_sum   'Cd4 H28 C20 N4 Cl8 O8'
_cell_volume   891.81214653
_cell_formula_units_Z   4
loop_
 _symmetry_equiv_pos_site_id
 _symmetry_equiv_pos_as_xyz
  1  'x, y, z'
loop_
 _atom_site_type_symbol
 _atom_site_label
 _atom_site_symmetry_multiplicity
 _atom_site_fract_x
 _atom_site_fract_y
 _atom_site_fract_z
 _atom_site_occupancy
 _atom_site_hle17_bader_spin_density
 _atom_site_hle17_ddec_charge
 _atom_site_hle17_ddec_spin_density
 _atom_site_hle17_ddec_sum_bond_order
 _atom_site_hle17_magmom
 _atom_site_hse06_10hf_bader_spin_density
 _atom_site_hse06_10hf_ddec_charge
 _atom_site_hse06_10hf_ddec_spin_density
 _atom_site_hse06_10hf_ddec_sum_bond_order
 _atom_site_hse06_10hf_magmom
 _atom_site_hse06_bader_spin_density
 _atom_site_hse06_ddec_charge
 _atom_site_hse06_ddec_spin_density
 _atom_site_hse06_ddec_sum_bond_order
 _atom_site_hse06_magmom
 _atom_site_pbe_bader_spin_density
 _atom_site_pbe_cm5_charge
 _atom_site_pbe_ddec_charge
 _atom_site_pbe_ddec_spin_density
 _atom_site_pbe_ddec_sum_bond_order
 _atom_site_pbe_magmom
Cd  Cd0  1  0.98814057  0.05914756  0.75090301  1  0  1.02934  0  1.931757  0  0  0.880274  0  2.39603  0  0  0.928493  0  2.348922  0  0  0.564213  0.84575  0  2.428812  0
Cd  Cd1  1  0.51185949  0.94085291  0.25090427  1  0  1.029308  0  1.931775  0  0  0.880253  0  2.396033  0  0  0.928463  0  2.348936  0  0  0.564208  0.845731  0  2.42881  0
Cd  Cd2  1  0.01185565  0.55914746  0.74909560  1  0  1.029339  0  1.93171  0  0  0.880276  0  2.39597  0  0  0.928494  0  2.348866  0  0  0.564215  0.845753  0  2.42875  0
Cd  Cd3  1  0.48814427  0.44085125  0.24909628  1  0  1.029273  0  1.931802  0  0  0.880222  0  2.396051  0  0  0.928432  0  2.348955  0  0  0.564191  0.845697  0  2.428831  0
H  H4  1  0.30284900  0.33782984  0.59913504  1  0  0.121809  0  0.931954  0  0  0.133296  0  0.988869  0  0  0.136244  0  0.985861  0  0  0.132439  0.131094  0  0.991093  0
H  H5  1  0.19716367  0.66217139  0.09913307  1  0  0.121789  0  0.932039  0  0  0.133285  0  0.988933  0  0  0.136232  0  0.985925  0  0  0.132435  0.131085  0  0.991152  0
H  H6  1  0.69714962  0.83783456  0.90086618  1  0  0.121842  0  0.931944  0  0  0.133319  0  0.988877  0  0  0.136265  0  0.985868  0  0  0.132458  0.131119  0  0.991094  0
H  H7  1  0.80285837  0.16217289  0.40086850  1  0  0.12183  0  0.932067  0  0  0.133248  0  0.989062  0  0  0.136192  0  0.986052  0  0  0.132412  0.131051  0  0.991279  0
H  H8  1  0.43754125  0.80946888  0.65956672  1  0  0.127491  0  0.927091  0  0  0.13554  0  0.987785  0  0  0.138974  0  0.98385  0  0  0.12931  0.132879  0  0.990874  0
H  H9  1  0.06245359  0.19052564  0.15956879  1  0  0.127525  0  0.927085  0  0  0.135587  0  0.987748  0  0  0.139019  0  0.983814  0  0  0.129315  0.132937  0  0.990823  0
H  H10  1  0.56244934  0.30947554  0.84043451  1  0  0.12758  0  0.927114  0  0  0.135536  0  0.987905  0  0  0.138966  0  0.983973  0  0  0.129296  0.132902  0  0.99096  0
H  H11  1  0.93754467  0.69052097  0.34042967  1  0  0.12763  0  0.927145  0  0  0.135569  0  0.987893  0  0  0.138997  0  0.983966  0  0  0.129298  0.132918  0  0.990968  0
H  H12  1  0.34277926  0.25683189  0.47188350  1  0  0.115031  0  0.954606  0  0  0.122025  0  1.015195  0  0  0.125063  0  1.015242  0  0  0.102999  0.11979  0  1.015472  0
H  H13  1  0.15723423  0.74317797  0.97188235  1  0  0.115003  0  0.954637  0  0  0.121993  0  1.015232  0  0  0.12503  0  1.015279  0  0  0.103011  0.119758  0  1.015508  0
H  H14  1  0.65722715  0.75682795  0.02811704  1  0  0.115002  0  0.954667  0  0  0.121988  0  1.01526  0  0  0.125024  0  1.015309  0  0  0.102998  0.119753  0  1.015536  0
H  H15  1  0.84277207  0.24318038  0.52811783  1  0  0.115058  0  0.954721  0  0  0.122045  0  1.015312  0  0  0.125081  0  1.015362  0  0  0.103027  0.11981  0  1.015591  0
H  H16  1  0.43529028  0.93667586  0.44005481  1  0  0.108937  0  0.979427  0  0  0.115088  0  1.047135  0  0  0.118682  0  1.043953  0  0  0.091797  0.112421  0  1.049454  0
H  H17  1  0.06470991  0.06333395  0.94005443  1  0  0.108903  0  0.979492  0  0  0.115127  0  1.047116  0  0  0.11872  0  1.043935  0  0  0.091838  0.112459  0  1.049435  0
H  H18  1  0.56472620  0.43666587  0.05994886  1  0  0.108945  0  0.979292  0  0  0.115134  0  1.046967  0  0  0.118728  0  1.043786  0  0  0.091839  0.112468  0  1.049283  0
H  H19  1  0.93528155  0.56334114  0.55994522  1  0  0.108933  0  0.979345  0  0  0.115137  0  1.047014  0  0  0.118727  0  1.043839  0  0  0.091825  0.112472  0  1.049332  0
H  H20  1  0.48789027  0.70927457  0.53622854  1  0  0.115619  0  0.925787  0  0  0.128478  0  0.976245  0  0  0.131015  0  0.976694  0  0  0.114664  0.126655  0  0.976133  0
H  H21  1  0.01209737  0.29072522  0.03623182  1  0  0.115551  0  0.925826  0  0  0.128413  0  0.976281  0  0  0.130946  0  0.976737  0  0  0.11467  0.126591  0  0.976165  0
H  H22  1  0.51211276  0.20927185  0.96377164  1  0  0.115623  0  0.925852  0  0  0.128512  0  0.976265  0  0  0.131046  0  0.976719  0  0  0.1147  0.126689  0  0.976152  0
H  H23  1  0.98789005  0.79073025  0.46376457  1  0  0.115578  0  0.925877  0  0  0.128485  0  0.976267  0  0  0.131018  0  0.976723  0  0  0.114685  0.126662  0  0.976155  0
H  H24  1  0.53202432  0.03927610  0.75505275  1  0  0.411422  0  0.897092  0  0  0.376198  0  0.968467  0  0  0.387746  0  0.951908  0  0  0.277663  0.368046  0  0.980146  0
H  H25  1  0.96797719  0.96072709  0.25505146  1  0  0.411401  0  0.897122  0  0  0.376186  0  0.968486  0  0  0.38773  0  0.951934  0  0  0.277674  0.368037  0  0.98016  0
H  H26  1  0.46797343  0.53927501  0.74494742  1  0  0.41141  0  0.89711  0  0  0.376183  0  0.96849  0  0  0.387732  0  0.95193  0  0  0.277664  0.368032  0  0.980168  0
H  H27  1  0.03202663  0.46072098  0.24494650  1  0  0.411411  0  0.897105  0  0  0.376192  0  0.968478  0  0  0.387734  0  0.951928  0  0  0.277651  0.368042  0  0.980155  0
H  H28  1  0.62706119  0.86402983  0.79245571  1  0  0.402075  0  0.90759  0  0  0.365952  0  0.986387  0  0  0.377482  0  0.969757  0  0  0.275405  0.357817  0  0.998086  0
H  H29  1  0.87293913  0.13597205  0.29245468  1  0  0.402035  0  0.907583  0  0  0.365941  0  0.986391  0  0  0.377466  0  0.969768  0  0  0.275419  0.357806  0  0.99809  0
H  H30  1  0.37293910  0.36402939  0.70754552  1  0  0.40209  0  0.907566  0  0  0.365976  0  0.986348  0  0  0.377505  0  0.969721  0  0  0.275423  0.357842  0  0.998047  0
H  H31  1  0.12706375  0.63597062  0.20754430  1  0  0.402071  0  0.907593  0  0  0.365951  0  0.986389  0  0  0.377476  0  0.969769  0  0  0.275399  0.357815  0  0.998088  0
C  C32  1  0.34322296  0.20254140  0.58095367  1  0  0.02146  0  3.585967  0  0  -0.021921  0  3.846552  0  0  -0.014173  0  3.859335  0  0  0.043263  -0.026856  0  3.838125  0
C  C33  1  0.15678234  0.79745981  0.08095444  1  0  0.021454  0  3.586067  0  0  -0.021912  0  3.846623  0  0  -0.014165  0  3.859409  0  0  0.043299  -0.026848  0  3.83819  0
C  C34  1  0.65676731  0.70254203  0.91904651  1  0  0.021348  0  3.586103  0  0  -0.022029  0  3.846713  0  0  -0.014281  0  3.859498  0  0  0.043272  -0.026965  0  3.838279  0
C  C35  1  0.84321942  0.29745458  0.41904247  1  0  0.021479  0  3.585865  0  0  -0.021822  0  3.846447  0  0  -0.014076  0  3.859234  0  0  0.043317  -0.026758  0  3.83802  0
C  C36  1  0.42129324  0.90160893  0.61594252  1  0  0.038235  0  3.589567  0  0  -0.003528  0  3.850545  0  0  0.00583  0  3.860586  0  0  0.04635  -0.009515  0  3.844046  0
C  C37  1  0.07869980  0.09838825  0.11594401  1  0  0.038086  0  3.589609  0  0  -0.003685  0  3.850604  0  0  0.005686  0  3.860624  0  0  0.046306  -0.009683  0  3.844101  0
C  C38  1  0.57869602  0.40160344  0.88405560  1  0  0.038037  0  3.589449  0  0  -0.003678  0  3.850489  0  0  0.00571  0  3.860478  0  0  0.04629  -0.009688  0  3.843981  0
C  C39  1  0.92130456  0.59839041  0.38404977  1  0  0.037886  0  3.589125  0  0  -0.003768  0  3.850145  0  0  0.005627  0  3.860124  0  0  0.046264  -0.009766  0  3.843648  0
C  C40  1  0.36603155  0.15461293  0.51199338  1  0  -0.103471  0  3.770931  0  0  -0.112191  0  4.024089  0  0  -0.119633  0  4.045786  0  0  -0.081409  -0.107612  0  4.009715  0
C  C41  1  0.13397595  0.84539226  0.01199267  1  0  -0.103407  0  3.770868  0  0  -0.11214  0  4.024036  0  0  -0.119579  0  4.045733  0  0  -0.081429  -0.107561  0  4.009657  0
C  C42  1  0.63397609  0.65461092  0.98800939  1  0  -0.103333  0  3.7709  0  0  -0.112043  0  4.024047  0  0  -0.119483  0  4.045746  0  0  -0.081383  -0.107465  0  4.009668  0
C  C43  1  0.86603390  0.34538985  0.48801099  1  0  -0.103584  0  3.770548  0  0  -0.112306  0  4.023708  0  0  -0.119744  0  4.045404  0  0  -0.081425  -0.107728  0  4.009339  0
C  C44  1  0.41851078  0.97620524  0.49426766  1  0  -0.026645  0  3.71034  0  0  -0.052035  0  3.963854  0  0  -0.047037  0  3.979892  0  0  -0.075548  -0.054894  0  3.952828  0
C  C45  1  0.08149086  0.02379786  0.99426982  1  0  -0.026701  0  3.710534  0  0  -0.052141  0  3.964039  0  0  -0.047145  0  3.98008  0  0  -0.075584  -0.055  0  3.953008  0
C  C46  1  0.58148990  0.47620198  0.00573134  1  0  -0.026716  0  3.710215  0  0  -0.052124  0  3.963737  0  0  -0.047129  0  3.979779  0  0  -0.075571  -0.054983  0  3.952705  0
C  C47  1  0.91851322  0.52380768  0.50572516  1  0  -0.026676  0  3.710786  0  0  -0.052134  0  3.964341  0  0  -0.047138  0  3.980389  0  0  -0.07564  -0.054989  0  3.953309  0
C  C48  1  0.44646946  0.84983739  0.54728685  1  0  -0.083689  0  3.732527  0  0  -0.095386  0  3.98667  0  0  -0.102117  0  4.006454  0  0  -0.074394  -0.091336  0  3.97347  0
C  C49  1  0.05352737  0.15016242  0.04728843  1  0  -0.083509  0  3.732578  0  0  -0.095215  0  3.98675  0  0  -0.101947  0  4.006537  0  0  -0.074383  -0.091167  0  3.973549  0
C  C50  1  0.55350534  0.34984147  0.95271438  1  0  -0.083602  0  3.732633  0  0  -0.095329  0  3.986759  0  0  -0.102066  0  4.00655  0  0  -0.074431  -0.091281  0  3.973562  0
C  C51  1  0.94647554  0.65016061  0.45271574  1  0  -0.083429  0  3.732643  0  0  -0.095166  0  3.986733  0  0  -0.101901  0  4.006525  0  0  -0.07433  -0.091118  0  3.973534  0
N  N52  1  0.37155400  0.07604183  0.63157532  1  0  0.266358  0  3.670725  0  0  0.313201  0  3.935956  0  0  0.31125  0  3.957074  0  0  -0.121294  0.313759  0  3.921806  0
N  N53  1  0.12844650  0.92395266  0.13157516  1  0  0.266378  0  3.670856  0  0  0.313226  0  3.936064  0  0  0.311268  0  3.957197  0  0  -0.121302  0.313783  0  3.921913  0
N  N54  1  0.62844068  0.57605052  0.86842744  1  0  0.266426  0  3.670682  0  0  0.313271  0  3.93589  0  0  0.311318  0  3.957015  0  0  -0.121297  0.313827  0  3.921746  0
N  N55  1  0.87155403  0.42394059  0.36842695  1  0  0.266451  0  3.670778  0  0  0.313292  0  3.935915  0  0  0.31133  0  3.957053  0  0  -0.121176  0.313851  0  3.921769  0
Cl  Cl56  1  0.06799754  0.30712876  0.84338398  1  0  -0.574002  0  1.016304  0  0  -0.506754  0  1.290157  0  0  -0.529221  0  1.271009  0  0  -0.29824  -0.490299  0  1.303453  0
Cl  Cl57  1  0.43200256  0.69287142  0.34338487  1  0  -0.574041  0  1.016365  0  0  -0.50678  0  1.290207  0  0  -0.529249  0  1.271064  0  0  -0.298249  -0.490325  0  1.303501  0
Cl  Cl58  1  0.93199781  0.80712792  0.65661517  1  0  -0.57403  0  1.01635  0  0  -0.50679  0  1.290221  0  0  -0.529247  0  1.271066  0  0  -0.298246  -0.490337  0  1.303515  0
Cl  Cl59  1  0.56799889  0.19287107  0.15661515  1  0  -0.573994  0  1.016359  0  0  -0.506754  0  1.290227  0  0  -0.529217  0  1.27108  0  0  -0.298226  -0.490299  0  1.303521  0
Cl  Cl60  1  0.84831986  0.31164560  0.66852512  1  0  -0.557711  0  1.01598  0  0  -0.493196  0  1.30022  0  0  -0.513825  0  1.279528  0  0  -0.294272  -0.478216  0  1.314738  0
Cl  Cl61  1  0.65168283  0.68835477  0.16852537  1  0  -0.557698  0  1.016012  0  0  -0.49318  0  1.300245  0  0  -0.513809  0  1.279552  0  0  -0.29426  -0.478197  0  1.314759  0
Cl  Cl62  1  0.15167073  0.81164571  0.83147507  1  0  -0.557719  0  1.016029  0  0  -0.493187  0  1.300249  0  0  -0.51382  0  1.279561  0  0  -0.294265  -0.478205  0  1.314765  0
Cl  Cl63  1  0.34831861  0.18835446  0.33147516  1  0  -0.557729  0  1.016034  0  0  -0.493203  0  1.300251  0  0  -0.513834  0  1.279563  0  0  -0.294278  -0.478222  0  1.314767  0
O  O64  1  0.34653216  0.12505396  0.69804882  1  0  -0.582464  0  1.903307  0  0  -0.515801  0  2.134412  0  0  -0.542221  0  2.132455  0  0  -0.23382  -0.496874  0  2.135172  0
O  O65  1  0.15346940  0.87493789  0.19804805  1  0  -0.582363  0  1.903161  0  0  -0.515748  0  2.134341  0  0  -0.542137  0  2.13233  0  0  -0.233809  -0.49683  0  2.135115  0
O  O66  1  0.65346107  0.62505987  0.80195135  1  0  -0.582474  0  1.903266  0  0  -0.515807  0  2.134376  0  0  -0.54222  0  2.132396  0  0  -0.233797  -0.496882  0  2.13514  0
O  O67  1  0.84653418  0.37493387  0.30194938  1  0  -0.582389  0  1.903152  0  0  -0.515777  0  2.134324  0  0  -0.542165  0  2.132311  0  0  -0.233861  -0.496849  0  2.135082  0
O  O68  1  0.64076761  0.99855646  0.78949614  1  0  -0.829781  0  1.928475  0  0  -0.769223  0  2.133291  0  0  -0.792545  0  2.099558  0  0  -0.599146  -0.752595  0  2.156596  0
O  O69  1  0.85923121  0.00144406  0.28949514  1  0  -0.829765  0  1.928498  0  0  -0.769214  0  2.133275  0  0  -0.792538  0  2.099561  0  0  -0.599179  -0.752588  0  2.156576  0
O  O70  1  0.35922989  0.49855736  0.71050406  1  0  -0.829753  0  1.928466  0  0  -0.769203  0  2.133284  0  0  -0.792526  0  2.099552  0  0  -0.599141  -0.752574  0  2.156584  0
O  O71  1  0.14076968  0.50144265  0.21050330  1  0  -0.829778  0  1.928466  0  0  -0.769227  0  2.133276  0  0  -0.792547  0  2.099551  0  0  -0.599122  -0.752598  0  2.156578  0
