# generated using pymatgen
data_AgH9C6BrN3O
_symmetry_space_group_name_H-M   'P 1'
_cell_length_a   4.33144593
_cell_length_b   11.61307578
_cell_length_c   17.49314876
_cell_angle_alpha   90.00029649
_cell_angle_beta   89.99977954
_cell_angle_gamma   90.24185215
_symmetry_Int_Tables_number   1
_chemical_formula_structural   AgH9C6BrN3O
_chemical_formula_sum   'Ag4 H36 C24 Br4 N12 O4'
_cell_volume   879.92220485
_cell_formula_units_Z   4
loop_
 _symmetry_equiv_pos_site_id
 _symmetry_equiv_pos_as_xyz
  1  'x, y, z'
loop_
 _atom_site_type_symbol
 _atom_site_label
 _atom_site_symmetry_multiplicity
 _atom_site_fract_x
 _atom_site_fract_y
 _atom_site_fract_z
 _atom_site_occupancy
 _atom_site_hle17_bader_spin_density
 _atom_site_hle17_ddec_charge
 _atom_site_hle17_ddec_spin_density
 _atom_site_hle17_ddec_sum_bond_order
 _atom_site_hle17_magmom
 _atom_site_hse06_10hf_bader_spin_density
 _atom_site_hse06_10hf_ddec_charge
 _atom_site_hse06_10hf_ddec_spin_density
 _atom_site_hse06_10hf_ddec_sum_bond_order
 _atom_site_hse06_10hf_magmom
 _atom_site_hse06_bader_spin_density
 _atom_site_hse06_ddec_charge
 _atom_site_hse06_ddec_spin_density
 _atom_site_hse06_ddec_sum_bond_order
 _atom_site_hse06_magmom
 _atom_site_pbe_bader_spin_density
 _atom_site_pbe_cm5_charge
 _atom_site_pbe_ddec_charge
 _atom_site_pbe_ddec_spin_density
 _atom_site_pbe_ddec_sum_bond_order
 _atom_site_pbe_magmom
Ag  Ag0  1  0.28384143  0.50453409  0.91073672  1  0  0.299318  0  1.790166  0  0  0.185743  0  2.281341  0  0  0.206757  0  2.238361  0  0  0.228258  0.171279  0  2.310724  0
Ag  Ag1  1  0.71618017  0.99546717  0.41073647  1  0  0.299304  0  1.790246  0  0  0.185738  0  2.281387  0  0  0.206759  0  2.23841  0  0  0.228269  0.171281  0  2.310766  0
Ag  Ag2  1  0.71618018  0.49546412  0.08926347  1  0  0.299333  0  1.790244  0  0  0.185755  0  2.281428  0  0  0.20677  0  2.238447  0  0  0.228261  0.171291  0  2.310813  0
Ag  Ag3  1  0.28384847  0.00453447  0.58926429  1  0  0.299315  0  1.790122  0  0  0.185736  0  2.28127  0  0  0.206756  0  2.23829  0  0  0.228258  0.171273  0  2.310654  0
H  H4  1  0.69936455  0.94816891  0.03704953  1  0  0.346009  0  0.919264  0  0  0.324599  0  0.984207  0  0  0.334226  0  0.975773  0  0  0.29569  0.317804  0  0.990173  0
H  H5  1  0.30062148  0.55183214  0.53705049  1  0  0.345825  0  0.919522  0  0  0.324519  0  0.984331  0  0  0.334152  0  0.975877  0  0  0.295619  0.317727  0  0.990291  0
H  H6  1  0.30061779  0.05182854  0.96295180  1  0  0.345953  0  0.919392  0  0  0.324556  0  0.984328  0  0  0.334186  0  0.975884  0  0  0.295647  0.317768  0  0.99029  0
H  H7  1  0.69937717  0.44817043  0.46294912  1  0  0.345914  0  0.919355  0  0  0.324549  0  0.984252  0  0  0.334182  0  0.975799  0  0  0.295631  0.317757  0  0.990214  0
H  H8  1  0.91427784  0.81885395  0.02304829  1  0  0.323494  0  0.918028  0  0  0.30657  0  0.983074  0  0  0.314007  0  0.977434  0  0  0.282906  0.301196  0  0.987284  0
H  H9  1  0.08572462  0.68114867  0.52304991  1  0  0.323591  0  0.918041  0  0  0.306612  0  0.98315  0  0  0.314047  0  0.977512  0  0  0.282898  0.301238  0  0.987359  0
H  H10  1  0.08573223  0.18114429  0.97695075  1  0  0.323538  0  0.918011  0  0  0.306599  0  0.983063  0  0  0.314036  0  0.977423  0  0  0.282916  0.301227  0  0.987276  0
H  H11  1  0.91428321  0.31885215  0.47695142  1  0  0.323613  0  0.91798  0  0  0.30664  0  0.983079  0  0  0.314075  0  0.977443  0  0  0.28293  0.301267  0  0.98729  0
H  H12  1  0.23562816  0.75362555  0.65784273  1  0  0.113952  0  0.987653  0  0  0.119807  0  1.058071  0  0  0.123332  0  1.055182  0  0  0.106797  0.1171  0  1.060466  0
H  H13  1  0.76436506  0.74637212  0.15784501  1  0  0.113924  0  0.98763  0  0  0.119789  0  1.058043  0  0  0.123313  0  1.05516  0  0  0.106798  0.117105  0  1.060415  0
H  H14  1  0.76437485  0.24636841  0.34215631  1  0  0.113876  0  0.987654  0  0  0.119722  0  1.058079  0  0  0.123246  0  1.055195  0  0  0.106785  0.117022  0  1.060467  0
H  H15  1  0.23562223  0.25363652  0.84215574  1  0  0.113901  0  0.987615  0  0  0.119732  0  1.058092  0  0  0.123255  0  1.05521  0  0  0.106786  0.117043  0  1.060472  0
H  H16  1  0.64525689  0.87007181  0.75155315  1  0  0.113007  0  0.975773  0  0  0.127601  0  1.034322  0  0  0.129652  0  1.033498  0  0  0.121383  0.126073  0  1.035047  0
H  H17  1  0.35473950  0.62992742  0.25155883  1  0  0.112954  0  0.975808  0  0  0.127556  0  1.034329  0  0  0.129607  0  1.033508  0  0  0.121392  0.12603  0  1.035053  0
H  H18  1  0.35475074  0.12992213  0.24844247  1  0  0.112983  0  0.975845  0  0  0.127532  0  1.034463  0  0  0.129583  0  1.033642  0  0  0.121377  0.126004  0  1.035187  0
H  H19  1  0.64525921  0.37007687  0.74844307  1  0  0.112978  0  0.9759  0  0  0.127555  0  1.03447  0  0  0.129605  0  1.03365  0  0  0.121394  0.126028  0  1.035193  0
H  H20  1  0.93686766  0.49822817  0.77388854  1  0  0.091531  0  0.9817  0  0  0.104085  0  1.065688  0  0  0.10563  0  1.063535  0  0  0.09518  0.102806  0  1.067343  0
H  H21  1  0.06312350  0.00177365  0.27389235  1  0  0.091481  0  0.981698  0  0  0.104043  0  1.065721  0  0  0.10559  0  1.063566  0  0  0.095174  0.102765  0  1.067372  0
H  H22  1  0.06312171  0.50177270  0.22610878  1  0  0.091517  0  0.981685  0  0  0.104068  0  1.0657  0  0  0.105613  0  1.063549  0  0  0.095203  0.10279  0  1.067352  0
H  H23  1  0.93687300  0.99823409  0.72611127  1  0  0.091476  0  0.981797  0  0  0.104071  0  1.065767  0  0  0.105615  0  1.063618  0  0  0.095202  0.102794  0  1.067421  0
H  H24  1  0.13495531  0.49272582  0.68373075  1  0  0.118612  0  0.964914  0  0  0.136131  0  1.028101  0  0  0.137952  0  1.027063  0  0  0.102996  0.134708  0  1.028965  0
H  H25  1  0.86503950  0.00727272  0.18373440  1  0  0.118576  0  0.964949  0  0  0.136146  0  1.028109  0  0  0.137968  0  1.027071  0  0  0.103005  0.134721  0  1.028973  0
H  H26  1  0.86503395  0.50727162  0.31626715  1  0  0.118617  0  0.964916  0  0  0.136183  0  1.028066  0  0  0.138004  0  1.027029  0  0  0.10303  0.134761  0  1.028929  0
H  H27  1  0.13495228  0.99273159  0.81626750  1  0  0.118663  0  0.96488  0  0  0.13617  0  1.028094  0  0  0.137992  0  1.027055  0  0  0.103034  0.134754  0  1.02895  0
H  H28  1  0.82085291  0.59122330  0.69720273  1  0  0.108762  0  0.941222  0  0  0.126576  0  1.004653  0  0  0.127694  0  1.004948  0  0  0.103416  0.125676  0  1.004553  0
H  H29  1  0.17914667  0.90877637  0.19720497  1  0  0.10882  0  0.941163  0  0  0.126647  0  1.004606  0  0  0.127764  0  1.004904  0  0  0.103453  0.125745  0  1.004509  0
H  H30  1  0.17914803  0.40877840  0.30279574  1  0  0.10881  0  0.941185  0  0  0.126637  0  1.004619  0  0  0.127754  0  1.004917  0  0  0.103443  0.125737  0  1.004517  0
H  H31  1  0.82084972  0.09122793  0.80279636  1  0  0.108755  0  0.941233  0  0  0.126585  0  1.00465  0  0  0.127701  0  1.004948  0  0  0.103429  0.125686  0  1.004549  0
H  H32  1  0.97072975  0.78006953  0.87225381  1  0  0.115657  0  0.937688  0  0  0.123533  0  1.004648  0  0  0.125675  0  1.004249  0  0  0.117347  0.121987  0  1.004985  0
H  H33  1  0.02926490  0.71993667  0.37225611  1  0  0.115674  0  0.937728  0  0  0.12358  0  1.004655  0  0  0.125721  0  1.004257  0  0  0.117347  0.122032  0  1.004993  0
H  H34  1  0.02927577  0.21993131  0.12774352  1  0  0.115596  0  0.937786  0  0  0.123494  0  1.004707  0  0  0.125633  0  1.004309  0  0  0.117342  0.121947  0  1.005047  0
H  H35  1  0.97073380  0.28006763  0.62774465  1  0  0.115726  0  0.937608  0  0  0.123563  0  1.004603  0  0  0.125704  0  1.004204  0  0  0.117359  0.122016  0  1.004941  0
H  H36  1  0.75923319  0.68138599  0.92891592  1  0  0.102039  0  0.966683  0  0  0.105712  0  1.050746  0  0  0.108706  0  1.047434  0  0  0.101682  0.103342  0  1.053426  0
H  H37  1  0.24076963  0.81861460  0.42892008  1  0  0.102  0  0.966665  0  0  0.105633  0  1.050795  0  0  0.108627  0  1.047483  0  0  0.101651  0.103266  0  1.053468  0
H  H38  1  0.24078139  0.31860880  0.07108141  1  0  0.102032  0  0.966648  0  0  0.105696  0  1.05069  0  0  0.108686  0  1.047383  0  0  0.101686  0.10333  0  1.053362  0
H  H39  1  0.75923829  0.18138881  0.57108411  1  0  0.102035  0  0.966753  0  0  0.105668  0  1.050851  0  0  0.108661  0  1.047538  0  0  0.101674  0.103301  0  1.053524  0
C  C40  1  0.36661625  0.62924718  0.82429105  1  0  -0.104069  0  3.410439  0  0  -0.123666  0  3.753849  0  0  -0.117268  0  3.761438  0  0  0.04853  -0.127234  0  3.747794  0
C  C41  1  0.63337901  0.87075348  0.32429445  1  0  -0.104192  0  3.410274  0  0  -0.123706  0  3.753682  0  0  -0.117308  0  3.761271  0  0  0.048446  -0.127273  0  3.747626  0
C  C42  1  0.63338915  0.37074935  0.17570570  1  0  -0.104093  0  3.410187  0  0  -0.123645  0  3.753641  0  0  -0.117244  0  3.761226  0  0  0.048446  -0.127213  0  3.747591  0
C  C43  1  0.36661977  0.12925340  0.67571031  1  0  -0.104107  0  3.410231  0  0  -0.123625  0  3.753678  0  0  -0.117229  0  3.761267  0  0  0.048551  -0.12719  0  3.747622  0
C  C44  1  0.32114696  0.73266232  0.71433906  1  0  -0.062189  0  3.690669  0  0  -0.100946  0  3.950579  0  0  -0.099115  0  3.967724  0  0  -0.003655  -0.102135  0  3.939382  0
C  C45  1  0.67884545  0.76733837  0.21434092  1  0  -0.06207  0  3.690871  0  0  -0.100847  0  3.950784  0  0  -0.099008  0  3.967914  0  0  -0.003599  -0.102057  0  3.939573  0
C  C46  1  0.67885379  0.26733336  0.28565827  1  0  -0.062047  0  3.690625  0  0  -0.100781  0  3.950519  0  0  -0.098945  0  3.967654  0  0  -0.003648  -0.101975  0  3.939315  0
C  C47  1  0.32114864  0.23266594  0.78565926  1  0  -0.062082  0  3.69048  0  0  -0.100814  0  3.950363  0  0  -0.098977  0  3.967492  0  0  -0.00365  -0.10202  0  3.939162  0
C  C48  1  0.52182929  0.79032557  0.76062119  1  0  -0.046522  0  3.692262  0  0  -0.091375  0  3.958353  0  0  -0.088599  0  3.975994  0  0  0.001071  -0.093297  0  3.946738  0
C  C49  1  0.47816242  0.70967634  0.26062475  1  0  -0.046581  0  3.692498  0  0  -0.091378  0  3.958646  0  0  -0.088604  0  3.976297  0  0  0.001066  -0.093301  0  3.947035  0
C  C50  1  0.47817147  0.20967011  0.23937500  1  0  -0.046534  0  3.69234  0  0  -0.091326  0  3.958479  0  0  -0.08855  0  3.976127  0  0  0.001052  -0.09325  0  3.946865  0
C  C51  1  0.52184321  0.29032794  0.73937601  1  0  -0.046694  0  3.692473  0  0  -0.091484  0  3.958594  0  0  -0.088709  0  3.976243  0  0  0.001012  -0.093405  0  3.946983  0
C  C52  1  0.01708839  0.54879224  0.72484071  1  0  -0.176332  0  3.612996  0  0  -0.278572  0  3.858821  0  0  -0.276215  0  3.867218  0  0  -0.140175  -0.279792  0  3.853208  0
C  C53  1  0.98289462  0.95120855  0.22484292  1  0  -0.17635  0  3.612976  0  0  -0.27869  0  3.858876  0  0  -0.276337  0  3.867276  0  0  -0.140284  -0.279909  0  3.853265  0
C  C54  1  0.98290087  0.45120520  0.27515719  1  0  -0.176445  0  3.613058  0  0  -0.278772  0  3.858971  0  0  -0.276418  0  3.86737  0  0  -0.140341  -0.279991  0  3.853358  0
C  C55  1  0.01709023  0.04879578  0.77515784  1  0  -0.176352  0  3.613229  0  0  -0.278642  0  3.85907  0  0  -0.276286  0  3.867467  0  0  -0.140272  -0.279863  0  3.853459  0
C  C56  1  0.73735552  0.75719850  0.89187241  1  0  -0.164533  0  3.635686  0  0  -0.220308  0  3.875383  0  0  -0.221516  0  3.88376  0  0  -0.057303  -0.219287  0  3.869735  0
C  C57  1  0.26262718  0.74280444  0.39187343  1  0  -0.164547  0  3.635642  0  0  -0.220272  0  3.875517  0  0  -0.221483  0  3.8839  0  0  -0.057289  -0.219256  0  3.869873  0
C  C58  1  0.26264303  0.24280063  0.10812834  1  0  -0.164562  0  3.635553  0  0  -0.220185  0  3.875277  0  0  -0.221391  0  3.883656  0  0  -0.05733  -0.219171  0  3.869642  0
C  C59  1  0.73737599  0.25719468  0.60812732  1  0  -0.164669  0  3.635536  0  0  -0.220323  0  3.875458  0  0  -0.221532  0  3.883837  0  0  -0.057309  -0.219308  0  3.869813  0
C  C60  1  0.61547380  0.85981534  0.93719382  1  0  0.647986  0  3.794758  0  0  0.604028  0  4.086656  0  0  0.632779  0  4.085584  0  0  0.242482  0.584562  0  4.086783  0
C  C61  1  0.38454928  0.64017234  0.43718923  1  0  0.648127  0  3.795117  0  0  0.604001  0  4.087248  0  0  0.63275  0  4.086177  0  0  0.242301  0.584527  0  4.087383  0
C  C62  1  0.38453132  0.14017172  0.06280465  1  0  0.648312  0  3.794693  0  0  0.60409  0  4.086942  0  0  0.632839  0  4.085877  0  0  0.242403  0.584615  0  4.08708  0
C  C63  1  0.61545619  0.35982677  0.56281039  1  0  0.648235  0  3.794915  0  0  0.604077  0  4.087082  0  0  0.632829  0  4.086012  0  0  0.242383  0.584605  0  4.087215  0
Br  Br64  1  0.80845445  0.36520818  0.94424707  1  0  -0.516287  0  1.275078  0  0  -0.42812  0  1.664501  0  0  -0.447767  0  1.630543  0  0  -0.267088  -0.413735  0  1.687902  0
Br  Br65  1  0.19155687  0.13478716  0.44424835  1  0  -0.516287  0  1.275117  0  0  -0.428106  0  1.664522  0  0  -0.447758  0  1.63057  0  0  -0.26711  -0.41373  0  1.687929  0
Br  Br66  1  0.19157627  0.63478570  0.05575426  1  0  -0.516275  0  1.275062  0  0  -0.428121  0  1.664507  0  0  -0.447776  0  1.630562  0  0  -0.267107  -0.413742  0  1.687918  0
Br  Br67  1  0.80845097  0.86521367  0.55575526  1  0  -0.516321  0  1.275113  0  0  -0.428134  0  1.664511  0  0  -0.447792  0  1.630575  0  0  -0.267114  -0.413753  0  1.68791  0
N  N68  1  0.22905129  0.63541620  0.75438319  1  0  -0.008705  0  3.653313  0  0  0.092698  0  3.862805  0  0  0.07833  0  3.892556  0  0  -0.254344  0.102065  0  3.842426  0
N  N69  1  0.77094041  0.86458221  0.25438415  1  0  -0.008709  0  3.653435  0  0  0.092735  0  3.862895  0  0  0.078366  0  3.892649  0  0  -0.254305  0.102099  0  3.842519  0
N  N70  1  0.77094950  0.36458034  0.24561528  1  0  -0.00875  0  3.653358  0  0  0.092673  0  3.862837  0  0  0.078305  0  3.892589  0  0  -0.254282  0.102038  0  3.842462  0
N  N71  1  0.22905121  0.13541694  0.74561603  1  0  -0.008734  0  3.653429  0  0  0.092664  0  3.862921  0  0  0.078298  0  3.892671  0  0  -0.254351  0.102028  0  3.842553  0
N  N72  1  0.54720906  0.72605134  0.82706822  1  0  -0.024351  0  3.650482  0  0  0.066588  0  3.864789  0  0  0.052503  0  3.893509  0  0  -0.249118  0.075747  0  3.845246  0
N  N73  1  0.45278382  0.77394849  0.32707031  1  0  -0.024173  0  3.650384  0  0  0.066596  0  3.864877  0  0  0.05251  0  3.893601  0  0  -0.24907  0.075752  0  3.845333  0
N  N74  1  0.45279398  0.27394347  0.17293082  1  0  -0.024265  0  3.650267  0  0  0.06652  0  3.864722  0  0  0.052433  0  3.893441  0  0  -0.248988  0.075675  0  3.845187  0
N  N75  1  0.54721714  0.22605408  0.67292987  1  0  -0.024105  0  3.650248  0  0  0.066671  0  3.864688  0  0  0.052585  0  3.89341  0  0  -0.249076  0.075829  0  3.845144  0
N  N76  1  0.75231698  0.87625212  0.00464641  1  0  -0.676301  0  3.109219  0  0  -0.636917  0  3.338347  0  0  -0.66044  0  3.333185  0  0  -0.570139  -0.620747  0  3.341826  0
N  N77  1  0.24765351  0.62375217  0.50465053  1  0  -0.676423  0  3.108833  0  0  -0.637009  0  3.337962  0  0  -0.660539  0  3.332798  0  0  -0.570028  -0.620839  0  3.34144  0
N  N78  1  0.24766990  0.12374273  0.99534863  1  0  -0.676449  0  3.10901  0  0  -0.636973  0  3.338202  0  0  -0.660499  0  3.33304  0  0  -0.5701  -0.620806  0  3.34169  0
N  N79  1  0.75234512  0.37624954  0.49535194  1  0  -0.676576  0  3.108784  0  0  -0.63711  0  3.337989  0  0  -0.66064  0  3.332824  0  0  -0.570143  -0.620942  0  3.34147  0
O  O80  1  0.41144067  0.92441847  0.91032179  1  0  -0.601079  0  1.948577  0  0  -0.543766  0  2.157454  0  0  -0.566316  0  2.151523  0  0  -0.305895  -0.52813  0  2.161182  0
O  O81  1  0.58851873  0.57558725  0.41032307  1  0  -0.600961  0  1.949727  0  0  -0.543573  0  2.158666  0  0  -0.566114  0  2.152725  0  0  -0.305747  -0.527912  0  2.162366  0
O  O82  1  0.58853235  0.07557642  0.08967839  1  0  -0.601134  0  1.949042  0  0  -0.54371  0  2.158021  0  0  -0.566256  0  2.152097  0  0  -0.305797  -0.528033  0  2.161711  0
O  O83  1  0.41147300  0.42441534  0.58967826  1  0  -0.600967  0  1.949437  0  0  -0.543578  0  2.158379  0  0  -0.56613  0  2.152456  0  0  -0.305737  -0.527923  0  2.162086  0
