# generated using pymatgen
data_BaH14C12(NO4)2
_symmetry_space_group_name_H-M   'P 1'
_cell_length_a   7.04946001
_cell_length_b   7.49935758
_cell_length_c   15.42931562
_cell_angle_alpha   93.80736998
_cell_angle_beta   102.32851699
_cell_angle_gamma   98.76214727
_symmetry_Int_Tables_number   1
_chemical_formula_structural   BaH14C12(NO4)2
_chemical_formula_sum   'Ba2 H28 C24 N4 O16'
_cell_volume   783.43728310
_cell_formula_units_Z   2
loop_
 _symmetry_equiv_pos_site_id
 _symmetry_equiv_pos_as_xyz
  1  'x, y, z'
loop_
 _atom_site_type_symbol
 _atom_site_label
 _atom_site_symmetry_multiplicity
 _atom_site_fract_x
 _atom_site_fract_y
 _atom_site_fract_z
 _atom_site_occupancy
 _atom_site_hle17_bader_spin_density
 _atom_site_hle17_ddec_charge
 _atom_site_hle17_ddec_spin_density
 _atom_site_hle17_ddec_sum_bond_order
 _atom_site_hle17_magmom
 _atom_site_hse06_10hf_bader_spin_density
 _atom_site_hse06_10hf_ddec_charge
 _atom_site_hse06_10hf_ddec_spin_density
 _atom_site_hse06_10hf_ddec_sum_bond_order
 _atom_site_hse06_10hf_magmom
 _atom_site_hse06_bader_spin_density
 _atom_site_hse06_ddec_charge
 _atom_site_hse06_ddec_spin_density
 _atom_site_hse06_ddec_sum_bond_order
 _atom_site_hse06_magmom
 _atom_site_pbe_bader_spin_density
 _atom_site_pbe_cm5_charge
 _atom_site_pbe_ddec_charge
 _atom_site_pbe_ddec_spin_density
 _atom_site_pbe_ddec_sum_bond_order
 _atom_site_pbe_magmom
Ba  Ba0  1  0.78353771  0.52767038  0.55949331  1  0  1.634349  0  1.199668  0  0  1.495857  0  1.60272  0  0  1.537048  0  1.555547  0  0  0.930779  1.465521  0  1.636296  0
Ba  Ba1  1  0.21646567  0.47232701  0.44050971  1  0  1.634346  0  1.199692  0  0  1.495857  0  1.602726  0  0  1.537053  0  1.555551  0  0  0.930776  1.465522  0  1.6363  0
H  H2  1  0.49531728  0.13233435  0.44411327  1  0  0.419051  0  0.885658  0  0  0.388252  0  0.948926  0  0  0.399216  0  0.932726  0  0  0.301794  0.380457  0  0.960442  0
H  H3  1  0.50468442  0.86766995  0.55588665  1  0  0.419002  0  0.885713  0  0  0.388192  0  0.949001  0  0  0.399156  0  0.932802  0  0  0.301766  0.380399  0  0.960514  0
H  H4  1  0.47801299  0.14925300  0.54460509  1  0  0.415481  0  0.890327  0  0  0.38475  0  0.954129  0  0  0.395414  0  0.938322  0  0  0.30339  0.377176  0  0.965353  0
H  H5  1  0.52199000  0.85074182  0.45539518  1  0  0.41551  0  0.890295  0  0  0.384766  0  0.95408  0  0  0.395428  0  0.938282  0  0  0.303391  0.377196  0  0.965297  0
H  H6  1  0.95621777  0.84449374  0.43527176  1  0  0.429977  0  0.865606  0  0  0.401605  0  0.923849  0  0  0.411375  0  0.909563  0  0  0.307677  0.394692  0  0.933962  0
H  H7  1  0.04377234  0.15549396  0.56473015  1  0  0.430021  0  0.865531  0  0  0.401607  0  0.923867  0  0  0.41138  0  0.909576  0  0  0.307681  0.394694  0  0.933981  0
H  H8  1  0.10618214  0.86801980  0.53000331  1  0  0.421533  0  0.881184  0  0  0.387428  0  0.950612  0  0  0.399083  0  0.93322  0  0  0.30172  0.379111  0  0.963023  0
H  H9  1  0.89381424  0.13197895  0.46999712  1  0  0.421513  0  0.881197  0  0  0.387408  0  0.950624  0  0  0.399064  0  0.933228  0  0  0.301723  0.379091  0  0.963034  0
H  H10  1  0.72117499  0.20797515  0.68944813  1  0  0.404962  0  0.910063  0  0  0.37036  0  0.981527  0  0  0.381191  0  0.965658  0  0  0.290506  0.362737  0  0.992676  0
H  H11  1  0.27882775  0.79202744  0.31055894  1  0  0.404994  0  0.910022  0  0  0.370422  0  0.981459  0  0  0.381251  0  0.965595  0  0  0.290529  0.362799  0  0.992608  0
H  H12  1  0.83349497  0.35654439  0.76553006  1  0  0.407683  0  0.845261  0  0  0.392602  0  0.900379  0  0  0.399551  0  0.89273  0  0  0.317668  0.387683  0  0.905812  0
H  H13  1  0.16649919  0.64345926  0.23447944  1  0  0.407856  0  0.845303  0  0  0.392744  0  0.900454  0  0  0.399698  0  0.892795  0  0  0.317688  0.387826  0  0.905888  0
H  H14  1  0.98525960  0.91775661  0.67487232  1  0  0.418049  0  0.885109  0  0  0.385608  0  0.951978  0  0  0.396366  0  0.93618  0  0  0.294148  0.377976  0  0.963176  0
H  H15  1  0.01474624  0.08224640  0.32512795  1  0  0.418088  0  0.88507  0  0  0.385656  0  0.951932  0  0  0.396414  0  0.936134  0  0  0.294152  0.378026  0  0.963128  0
H  H16  1  0.76378572  0.91398515  0.68068266  1  0  0.417127  0  0.875132  0  0  0.389275  0  0.936738  0  0  0.398829  0  0.922591  0  0  0.301706  0.382415  0  0.946907  0
H  H17  1  0.23621623  0.08602055  0.31931669  1  0  0.417163  0  0.875115  0  0  0.389314  0  0.936692  0  0  0.398869  0  0.922544  0  0  0.301716  0.382456  0  0.946859  0
H  H18  1  0.89343275  0.33260352  0.22355108  1  0  0.07838  0  0.947416  0  0  0.08808  0  1.010574  0  0  0.091149  0  1.007687  0  0  0.117263  0.085828  0  1.012715  0
H  H19  1  0.10656856  0.66738167  0.77645120  1  0  0.078439  0  0.947462  0  0  0.088142  0  1.010589  0  0  0.09121  0  1.007701  0  0  0.117295  0.08589  0  1.012727  0
H  H20  1  0.29920845  0.40616495  0.21892405  1  0  0.089302  0  0.966874  0  0  0.101071  0  1.029826  0  0  0.10435  0  1.026601  0  0  0.113066  0.098587  0  1.032304  0
H  H21  1  0.70080120  0.59384348  0.78107750  1  0  0.089243  0  0.966908  0  0  0.101039  0  1.029826  0  0  0.104317  0  1.026606  0  0  0.113046  0.098566  0  1.032292  0
H  H22  1  0.21550131  0.31329603  0.05556409  1  0  0.11315  0  0.939068  0  0  0.126503  0  0.991  0  0  0.130497  0  0.988676  0  0  0.112423  0.123577  0  0.992948  0
H  H23  1  0.78450054  0.68670945  0.94443913  1  0  0.113159  0  0.93909  0  0  0.126492  0  0.991033  0  0  0.130488  0  0.988711  0  0  0.112421  0.123565  0  0.992984  0
H  H24  1  0.18532435  0.30479144  0.92436564  1  0  0.108365  0  0.944984  0  0  0.121493  0  0.997242  0  0  0.124885  0  0.9959  0  0  0.110729  0.119067  0  0.998369  0
H  H25  1  0.81467889  0.69521306  0.07563119  1  0  0.108272  0  0.944945  0  0  0.121428  0  0.997183  0  0  0.12482  0  0.995842  0  0  0.110694  0.119  0  0.998316  0
H  H26  1  0.12203670  0.20233608  0.76332317  1  0  0.101075  0  0.978278  0  0  0.108776  0  1.04397  0  0  0.112638  0  1.040389  0  0  0.105899  0.105923  0  1.046627  0
H  H27  1  0.87795757  0.79767519  0.23667046  1  0  0.101111  0  0.978324  0  0  0.108797  0  1.044022  0  0  0.112655  0  1.040447  0  0  0.105898  0.105943  0  1.046678  0
H  H28  1  0.69209411  0.03681258  0.81441219  1  0  0.06897  0  0.947444  0  0  0.076975  0  1.012588  0  0  0.080115  0  1.009719  0  0  0.110209  0.074703  0  1.014653  0
H  H29  1  0.30788946  0.96317828  0.18557882  1  0  0.06903  0  0.94733  0  0  0.077028  0  1.01249  0  0  0.080159  0  1.009619  0  0  0.110259  0.074753  0  1.01456  0
C  C30  1  0.74281849  0.33466434  0.18716477  1  0  0.111852  0  3.719597  0  0  0.07868  0  3.981808  0  0  0.085126  0  3.998383  0  0  0.049519  0.074683  0  3.970441  0
C  C31  1  0.25718502  0.66533330  0.81283374  1  0  0.111718  0  3.719717  0  0  0.078578  0  3.981875  0  0  0.085022  0  3.998449  0  0  0.049488  0.074583  0  3.970504  0
C  C32  1  0.60450274  0.38285956  0.23381126  1  0  -0.119508  0  3.737876  0  0  -0.097837  0  3.978542  0  0  -0.109174  0  4.002119  0  0  -0.013516  -0.090658  0  3.962747  0
C  C33  1  0.39550334  0.61713654  0.76619133  1  0  -0.11958  0  3.737811  0  0  -0.09793  0  3.978512  0  0  -0.109265  0  4.00209  0  0  -0.013531  -0.090751  0  3.962717  0
C  C34  1  0.66009277  0.43895246  0.33241189  1  0  0.691607  0  3.913623  0  0  0.643278  0  4.202783  0  0  0.678485  0  4.194149  0  0  0.224097  0.619394  0  4.207801  0
C  C35  1  0.33991266  0.56103966  0.66758916  1  0  0.691847  0  3.913408  0  0  0.643513  0  4.202585  0  0  0.67872  0  4.193953  0  0  0.22426  0.619631  0  4.207601  0
C  C36  1  0.41209220  0.37605823  0.18449834  1  0  -0.022394  0  3.73538  0  0  -0.051227  0  3.986921  0  0  -0.047489  0  4.006157  0  0  -0.066619  -0.05322  0  3.973709  0
C  C37  1  0.58791361  0.62394471  0.81550323  1  0  -0.022255  0  3.735275  0  0  -0.051116  0  3.986815  0  0  -0.04738  0  4.006051  0  0  -0.066594  -0.053115  0  3.973599  0
C  C38  1  0.36678808  0.32441721  0.09340825  1  0  -0.137928  0  3.694653  0  0  -0.155306  0  3.939548  0  0  -0.162981  0  3.96101  0  0  -0.077137  -0.150314  0  3.924997  0
C  C39  1  0.63322199  0.67560212  0.90659252  1  0  -0.138034  0  3.69457  0  0  -0.155354  0  3.939478  0  0  -0.163027  0  3.960926  0  0  -0.077151  -0.150365  0  3.924932  0
C  C40  1  0.51683763  0.28217589  0.05232651  1  0  0.179187  0  3.746097  0  0  0.177545  0  3.997075  0  0  0.184026  0  4.016048  0  0  0.122515  0.173347  0  3.984062  0
C  C41  1  0.48316559  0.71782028  0.94767385  1  0  0.179272  0  3.745841  0  0  0.177546  0  3.996929  0  0  0.184029  0  4.015899  0  0  0.122476  0.17335  0  3.983919  0
C  C42  1  0.47428374  0.22451876  0.95505855  1  0  0.19479  0  3.72304  0  0  0.191892  0  3.973249  0  0  0.198923  0  3.991669  0  0  0.130658  0.18729  0  3.960644  0
C  C43  1  0.52571413  0.77547092  0.04493450  1  0  0.194802  0  3.722979  0  0  0.191896  0  3.973266  0  0  0.198926  0  3.991688  0  0  0.130762  0.187295  0  3.96066  0
C  C44  1  0.29482985  0.24312558  0.89862651  1  0  -0.135838  0  3.690711  0  0  -0.152947  0  3.935099  0  0  -0.160871  0  3.957262  0  0  -0.078292  -0.147838  0  3.920104  0
C  C45  1  0.70516946  0.75688150  0.10137133  1  0  -0.135684  0  3.690535  0  0  -0.152814  0  3.934948  0  0  -0.160738  0  3.957109  0  0  -0.078275  -0.147702  0  3.919942  0
C  C46  1  0.25871035  0.18606389  0.80845891  1  0  -0.010609  0  3.714127  0  0  -0.037715  0  3.960739  0  0  -0.033903  0  3.979633  0  0  -0.06608  -0.039803  0  3.94776  0
C  C47  1  0.74129404  0.81394739  0.19153834  1  0  -0.010617  0  3.714107  0  0  -0.037704  0  3.960707  0  0  -0.033888  0  3.979596  0  0  -0.066046  -0.039791  0  3.947727  0
C  C48  1  0.40290465  0.11185617  0.77548100  1  0  -0.14113  0  3.776482  0  0  -0.119533  0  4.022599  0  0  -0.132026  0  4.04767  0  0  -0.022204  -0.111533  0  4.005748  0
C  C49  1  0.59708703  0.88814004  0.22451431  1  0  -0.141229  0  3.77656  0  0  -0.119606  0  4.02268  0  0  -0.132094  0  4.047745  0  0  -0.022191  -0.111605  0  4.00583  0
C  C50  1  0.36919762  0.04945117  0.67908583  1  0  0.691971  0  3.842445  0  0  0.626124  0  4.151666  0  0  0.661198  0  4.143236  0  0  0.234135  0.602359  0  4.156632  0
C  C51  1  0.63079725  0.95054654  0.32090792  1  0  0.692099  0  3.842004  0  0  0.626201  0  4.151332  0  0  0.661263  0  4.142913  0  0  0.234114  0.602436  0  4.156299  0
C  C52  1  0.57777314  0.09886213  0.83674617  1  0  0.10441  0  3.754665  0  0  0.072128  0  4.015796  0  0  0.078578  0  4.03355  0  0  0.044774  0.068088  0  4.003646  0
C  C53  1  0.42222727  0.90113421  0.16325003  1  0  0.104418  0  3.754914  0  0  0.072136  0  4.01606  0  0  0.0786  0  4.033821  0  0  0.04469  0.068094  0  4.003912  0
N  N54  1  0.70296170  0.28803686  0.09932325  1  0  -0.324182  0  3.044474  0  0  -0.301445  0  3.31893  0  0  -0.310766  0  3.330904  0  0  -0.318354  -0.295163  0  3.310715  0
N  N55  1  0.29704035  0.71195250  0.90067734  1  0  -0.324172  0  3.04437  0  0  -0.301419  0  3.318833  0  0  -0.310739  0  3.330805  0  0  -0.318377  -0.295138  0  3.310618  0
N  N56  1  0.61391838  0.15288884  0.92362642  1  0  -0.317073  0  3.043082  0  0  -0.293008  0  3.315442  0  0  -0.303255  0  3.328311  0  0  -0.316219  -0.286015  0  3.306531  0
N  N57  1  0.38607490  0.84710858  0.07637234  1  0  -0.317119  0  3.043208  0  0  -0.293038  0  3.31557  0  0  -0.303286  0  3.328434  0  0  -0.316228  -0.286045  0  3.306658  0
O  O58  1  0.53593277  0.50456117  0.36850145  1  0  -0.735038  0  1.983118  0  0  -0.672151  0  2.226098  0  0  -0.700414  0  2.218295  0  0  -0.394238  -0.652185  0  2.230854  0
O  O59  1  0.46408178  0.49543363  0.63150323  1  0  -0.73502  0  1.983073  0  0  -0.672139  0  2.226094  0  0  -0.700401  0  2.218286  0  0  -0.394292  -0.652174  0  2.230853  0
O  O60  1  0.82866929  0.41799277  0.37578356  1  0  -0.730661  0  2.008804  0  0  -0.665356  0  2.253808  0  0  -0.69431  0  2.246587  0  0  -0.40241  -0.644911  0  2.258149  0
O  O61  1  0.17133895  0.58200746  0.62421878  1  0  -0.730856  0  2.008745  0  0  -0.665562  0  2.253781  0  0  -0.694517  0  2.246559  0  0  -0.40252  -0.645118  0  2.258121  0
O  O62  1  0.19362194  0.01599285  0.63223455  1  0  -0.650088  0  2.037529  0  0  -0.573797  0  2.254043  0  0  -0.600242  0  2.242787  0  0  -0.285018  -0.555364  0  2.261418  0
O  O63  1  0.80636684  0.98400336  0.36775981  1  0  -0.650137  0  2.037455  0  0  -0.573824  0  2.253973  0  0  -0.600261  0  2.24272  0  0  -0.28503  -0.555395  0  2.261349  0
O  O64  1  0.52050411  0.03349252  0.64626657  1  0  -0.685515  0  2.036412  0  0  -0.604143  0  2.247266  0  0  -0.631766  0  2.235584  0  0  -0.298772  -0.584756  0  2.254813  0
O  O65  1  0.47948403  0.96651714  0.35372961  1  0  -0.685676  0  2.036205  0  0  -0.604343  0  2.247131  0  0  -0.631962  0  2.235454  0  0  -0.298765  -0.584951  0  2.254668  0
O  O66  1  0.48254812  0.21926816  0.49292026  1  0  -0.903744  0  1.884058  0  0  -0.847098  0  2.073042  0  0  -0.867472  0  2.041367  0  0  -0.637386  -0.832572  0  2.095258  0
O  O67  1  0.51744511  0.78072916  0.50708044  1  0  -0.903708  0  1.88403  0  0  -0.847029  0  2.073139  0  0  -0.867382  0  2.041423  0  0  -0.637361  -0.832506  0  2.095351  0
O  O68  1  0.03101741  0.77810308  0.47980467  1  0  -0.900687  0  1.852114  0  0  -0.842315  0  2.036489  0  0  -0.863008  0  2.005247  0  0  -0.629677  -0.827543  0  2.058382  0
O  O69  1  0.96898118  0.22189161  0.52019645  1  0  -0.900706  0  1.852036  0  0  -0.842323  0  2.036409  0  0  -0.863017  0  2.005161  0  0  -0.629688  -0.827552  0  2.0583  0
O  O70  1  0.83906967  0.30545466  0.70670570  1  0  -0.826978  0  1.811583  0  0  -0.78218  0  1.988112  0  0  -0.799818  0  1.963055  0  0  -0.596858  -0.7696  0  2.00558  0
O  O71  1  0.16092635  0.69455990  0.29330317  1  0  -0.827187  0  1.811613  0  0  -0.782403  0  1.988071  0  0  -0.800045  0  1.963007  0  0  -0.59691  -0.769824  0  2.005539  0
O  O72  1  0.86691553  0.83912765  0.68450791  1  0  -0.859888  0  1.792724  0  0  -0.812165  0  1.9672  0  0  -0.830508  0  1.936148  0  0  -0.621879  -0.799085  0  1.989074  0
O  O73  1  0.13308428  0.16087395  0.31549105  1  0  -0.859935  0  1.792709  0  0  -0.812215  0  1.967121  0  0  -0.830562  0  1.936076  0  0  -0.621886  -0.799138  0  1.989  0
