# generated using pymatgen
data_Zn2H23C46N4O12F5
_symmetry_space_group_name_H-M   'P 1'
_cell_length_a   9.69115668
_cell_length_b   11.01839225
_cell_length_c   23.85018627
_cell_angle_alpha   90.49351156
_cell_angle_beta   89.34843160
_cell_angle_gamma   89.70456558
_symmetry_Int_Tables_number   1
_chemical_formula_structural   Zn2H23C46N4O12F5
_chemical_formula_sum   'Zn2 H23 C46 N4 O12 F5'
_cell_volume   2546.45162409
_cell_formula_units_Z   1
loop_
 _symmetry_equiv_pos_site_id
 _symmetry_equiv_pos_as_xyz
  1  'x, y, z'
loop_
 _atom_site_type_symbol
 _atom_site_label
 _atom_site_symmetry_multiplicity
 _atom_site_fract_x
 _atom_site_fract_y
 _atom_site_fract_z
 _atom_site_occupancy
 _atom_site_pbe_bader_charge
 _atom_site_pbe_bader_spin_density
 _atom_site_pbe_cm5_charge
 _atom_site_pbe_ddec_charge
 _atom_site_pbe_ddec_spin_density
 _atom_site_pbe_ddec_sum_bond_order
 _atom_site_pbe_magmom
Zn  Zn0  1  0.63683710  0.50559065  0.49782186  1  1.264903  0  0.662339  0.803912  0  2.443692  0
Zn  Zn1  1  0.35609473  0.50615345  0.50051762  1  1.26785  0  0.665864  0.803697  0  2.462586  0
H  H2  1  0.28324947  0.50830320  0.67878907  1  0.097685  0  0.106565  0.109774  0  1.005905  0
H  H3  1  0.72700191  0.49727669  0.68035499  1  0.142241  0  0.114125  0.138175  0  0.988747  0
H  H4  1  0.31601704  0.13356615  0.55461457  1  0.082722  0  0.09984  0.107104  0  1.011403  0
H  H5  1  0.71857775  0.09398425  0.40095236  1  0.043723  0  0.093251  0.098279  0  0.9898  0
H  H6  1  0.82290831  0.09780862  0.46229911  1  -0.008811  0  0.092502  0.09969  0  0.991134  0
H  H7  1  0.70379124  0.86713675  0.40746813  1  0.060242  0  0.095965  0.10583  0  0.98048  0
H  H8  1  0.80738272  0.87047311  0.46887345  1  0.029177  0  0.091575  0.099903  0  0.990275  0
H  H9  1  0.12313216  0.58087552  0.58019275  1  0.146404  0  0.140693  0.123861  0  0.968588  0
H  H10  1  0.86193085  0.58782507  0.57785541  1  0.143898  0  0.140421  0.123014  0  0.966209  0
H  H11  1  0.86921641  0.31600550  0.39827604  1  0.114376  0  0.121163  0.158899  0  0.961615  0
H  H12  1  0.87216858  0.46462101  0.36783260  1  0.090648  0  0.114207  0.148239  0  0.980342  0
H  H13  1  0.13526956  0.45696394  0.36932457  1  0.107348  0  0.113991  0.079666  0  0.972985  0
H  H14  1  0.45621287  0.20911574  0.05073181  1  0.141814  0  0.122897  0.130142  0  0.972058  0
H  H15  1  0.45950814  0.20939266  0.94444356  1  0.15286  0  0.123178  0.130633  0  0.971777  0
H  H16  1  0.69394350  0.42145973  0.21268147  1  0.090015  0  0.115814  0.124437  0  0.968269  0
H  H17  1  0.69439094  0.42541068  0.31764648  1  0.086326  0  0.103826  0.103474  0  1.028323  0
H  H18  1  0.29383183  0.59657915  0.31893908  1  0.071764  0  0.115644  0.138654  0  0.985479  0
H  H19  1  0.27825062  0.51215159  0.78419930  1  0.096054  0  0.115116  0.122639  0  0.968319  0
H  H20  1  0.38977937  0.75769503  0.61743185  1  0.024814  0  0.081293  0.114435  0  1.033136  0
H  H21  1  0.38388677  0.89913325  0.65387436  1  0.039325  0  0.086996  0.116864  0  0.995957  0
H  H22  1  0.23719591  0.80308636  0.65366311  1  -0.015908  0  0.081067  0.105016  0  1.007608  0
H  H23  1  0.20073306  0.97320482  0.58705753  1  0.024146  0  0.089447  0.083374  0  0.981049  0
H  H24  1  0.21150534  0.83329724  0.54999949  1  0.050687  0  0.086185  0.08578  0  1.008674  0
C  C25  1  0.48154427  0.74123453  0.50775907  1  1.520963  0  0.219707  0.611765  0  4.158478  0
C  C26  1  0.52339746  0.73039289  0.97013293  1  0.651029  0  0.12089  0.186333  0  4.032946  0
C  C27  1  0.52280898  0.73011248  0.02960203  1  0.497978  0  0.12184  0.190806  0  4.031081  0
C  C28  1  0.50952076  0.62338650  0.05962624  1  0.019806  0  -0.008686  -0.155254  0  3.982618  0
C  C29  1  0.49514480  0.51289742  0.02886362  1  0.037083  0  0.003964  0.040038  0  3.999072  0
C  C30  1  0.48003714  0.40121845  0.05724933  1  0.02568  0  -0.003532  -0.057072  0  3.97383  0
C  C31  1  0.46727447  0.29307107  0.02731767  1  -0.008215  0  -0.059066  -0.066062  0  3.929276  0
C  C32  1  0.46891100  0.29320191  0.96865773  1  -0.078253  0  -0.058359  -0.065082  0  3.927426  0
C  C33  1  0.51246909  0.62345403  0.12185463  1  1.336847  0  0.24544  0.460493  0  4.080032  0
C  C34  1  0.47705810  0.39699350  0.11933425  1  1.336421  0  0.245575  0.441787  0  4.09882  0
C  C35  1  0.60746584  0.46021027  0.23646581  1  0.024364  0  -0.076958  -0.121371  0  3.98451  0
C  C36  1  0.49634838  0.51314918  0.38801009  1  1.603578  0  0.218842  0.593551  0  4.164743  0
C  C37  1  0.60761685  0.46253027  0.29477833  1  -0.045544  0  -0.085994  -0.103561  0  3.985629  0
C  C38  1  0.49522214  0.51125685  0.32495531  1  -0.005187  0  -0.006704  0.011795  0  3.954049  0
C  C39  1  0.38173050  0.55762602  0.29619385  1  0.109102  0  -0.089371  -0.214785  0  3.964677  0
C  C40  1  0.38384461  0.55553001  0.23805724  1  0.373573  0  0.106807  0.231568  0  4.044657  0
C  C41  1  0.49563425  0.50791028  0.20752245  1  0.41799  0  0.08362  0.086406  0  4.037873  0
C  C42  1  0.37563401  0.50963883  0.76088105  1  0.103389  0  -0.075878  -0.120892  0  3.980745  0
C  C43  1  0.37830551  0.50735318  0.70260455  1  -0.050886  0  -0.082551  -0.093641  0  3.979882  0
C  C44  1  0.50439603  0.50336128  0.67335035  1  0.061989  0  -0.007578  0.002352  0  3.958996  0
C  C45  1  0.62857616  0.50146512  0.70274465  1  0.020548  0  -0.087691  -0.205469  0  3.959855  0
C  C46  1  0.62378514  0.50440174  0.76081362  1  0.430141  0  0.106999  0.231144  0  4.043166  0
C  C47  1  0.50153681  0.27073040  0.49903652  1  1.527  0  0.217432  0.605171  0  4.165162  0
C  C48  1  0.49884485  0.50846287  0.79044176  1  0.334616  0  0.083729  0.084518  0  4.04353  0
C  C49  1  0.59306372  0.93578721  0.48349644  1  -0.025234  0  -0.009333  0.057404  0  3.91886  0
C  C50  1  0.48640728  0.87623586  0.51132393  1  0.036299  0  -0.012872  -0.126701  0  3.927759  0
C  C51  1  0.38556093  0.95069193  0.53885638  1  0.007395  0  0.00034  0.108906  0  3.910852  0
C  C52  1  0.39496547  0.07716615  0.53415987  1  -0.040848  0  -0.087508  -0.165158  0  3.952066  0
C  C53  1  0.50081481  0.13640415  0.50418745  1  -0.014447  0  -0.015486  -0.065206  0  4.00126  0
C  C54  1  0.60139435  0.06176033  0.47991465  1  -0.001185  0  -0.010585  0.050284  0  3.905499  0
C  C55  1  0.73064928  0.05768835  0.44342520  1  0.008998  0  -0.152638  -0.194504  0  3.891  0
C  C56  1  0.72112805  0.91466804  0.44745222  1  -0.01494  0  -0.153303  -0.194047  0  3.882988  0
C  C57  1  0.06995272  0.45652835  0.45909774  1  0.536791  0  0.142545  0.1098  0  3.839598  0
C  C58  1  0.50534585  0.50177123  0.61036693  1  1.525688  0  0.215561  0.588273  0  4.175842  0
C  C59  1  0.06649282  0.54594216  0.54434080  1  0.505944  0  0.075199  0.048154  0  3.839935  0
C  C60  1  0.92230792  0.55079137  0.54284656  1  0.463427  0  0.07959  0.06422  0  3.840237  0
C  C61  1  0.92682933  0.46199946  0.45735546  1  0.593404  0  0.153325  0.22451  0  3.874089  0
C  C62  1  0.91772605  0.40577088  0.39961251  1  0.004885  0  -0.140308  -0.315407  0  3.805768  0
C  C63  1  0.08129860  0.40092512  0.40036407  1  0.541003  0  0.047432  0.169742  0  3.828214  0
C  C64  1  0.48347125  0.39748615  0.87758508  1  1.314106  0  0.245472  0.441464  0  4.100714  0
C  C65  1  0.51394661  0.62446328  0.87686994  1  1.422272  0  0.246239  0.459697  0  4.085817  0
C  C66  1  0.51108932  0.62387440  0.93917247  1  -0.023805  0  -0.008243  -0.151447  0  3.978235  0
C  C67  1  0.49621984  0.51311318  0.96900110  1  0.038333  0  0.004141  0.038586  0  4.000243  0
C  C68  1  0.48281117  0.40149973  0.93969391  1  0.029608  0  -0.002484  -0.057212  0  3.974641  0
C  C69  1  0.27112691  0.89864352  0.57485923  1  -0.018291  0  -0.164806  -0.147416  0  3.985219  0
C  C70  1  0.32385358  0.83617415  0.62790135  1  -0.03133  0  -0.246342  -0.348873  0  3.95896  0
N  N71  1  0.49781164  0.51009992  0.85066367  1  -1.192268  0  -0.232634  -0.214683  0  3.611383  0
N  N72  1  0.49484511  0.50897503  0.14734347  1  -1.173388  0  -0.231517  -0.21547  0  3.604508  0
N  N73  1  0.14345761  0.49876021  0.50155975  1  -1.184925  0  -0.277603  -0.141724  0  3.459372  0
N  N74  1  0.84950151  0.50979239  0.49837908  1  -1.202825  0  -0.281996  -0.171317  0  3.441232  0
O  O75  1  0.59789342  0.68613559  0.50765169  1  -1.161808  0  -0.317423  -0.552201  0  2.326005  0
O  O76  1  0.52854355  0.71596713  0.84867207  1  -1.081048  0  -0.265688  -0.413591  0  2.068776  0
O  O77  1  0.52999985  0.71444576  0.15069467  1  -1.068667  0  -0.264543  -0.413504  0  2.073472  0
O  O78  1  0.46074123  0.30289847  0.14570190  1  -1.094695  0  -0.271135  -0.42547  0  2.060664  0
O  O79  1  0.36440703  0.69053319  0.50285866  1  -1.150463  0  -0.31489  -0.538335  0  2.327807  0
O  O80  1  0.61422365  0.51603189  0.41099451  1  -1.166018  0  -0.315561  -0.546411  0  2.30662  0
O  O81  1  0.37989372  0.51125025  0.41325125  1  -1.159361  0  -0.31367  -0.549295  0  2.309391  0
O  O82  1  0.61769365  0.32172521  0.49017281  1  -1.155661  0  -0.319784  -0.543318  0  2.294827  0
O  O83  1  0.38556554  0.32520740  0.50383127  1  -1.153536  0  -0.318569  -0.544793  0  2.343808  0
O  O84  1  0.62158722  0.49046784  0.58535109  1  -1.171011  0  -0.318669  -0.552358  0  2.30302  0
O  O85  1  0.38858566  0.51253107  0.58691693  1  -1.168518  0  -0.314786  -0.553905  0  2.33891  0
O  O86  1  0.47209698  0.30326645  0.85030382  1  -1.089754  0  -0.268933  -0.422337  0  2.057173  0
F  F87  1  0.53692626  0.83913580  0.94619826  1  -0.59941  0  -0.068003  -0.083535  0  1.393623  0
F  F88  1  0.74356450  0.50289573  0.79012672  1  -0.630741  0  -0.110364  -0.14731  0  1.309509  0
F  F89  1  0.53603701  0.83862178  0.05451140  1  -0.596788  0  -0.067972  -0.083981  0  1.393988  0
F  F90  1  0.13607500  0.28429933  0.39766267  1  -0.616148  0  -0.131277  -0.167908  0  1.254511  0
F  F91  1  0.27407003  0.60055762  0.20972247  1  -0.629356  0  -0.107359  -0.143649  0  1.314817  0
