# generated using pymatgen
data_CuH10C16S(NO)4
_symmetry_space_group_name_H-M   'P 1'
_cell_length_a   14.78933153
_cell_length_b   15.22368765
_cell_length_c   15.98926121
_cell_angle_alpha   89.99994865
_cell_angle_beta   90.00002912
_cell_angle_gamma   90.00004857
_symmetry_Int_Tables_number   1
_chemical_formula_structural   CuH10C16S(NO)4
_chemical_formula_sum   'Cu8 H80 C128 S8 N32 O32'
_cell_volume   3599.95280192
_cell_formula_units_Z   8
loop_
 _symmetry_equiv_pos_site_id
 _symmetry_equiv_pos_as_xyz
  1  'x, y, z'
loop_
 _atom_site_type_symbol
 _atom_site_label
 _atom_site_symmetry_multiplicity
 _atom_site_fract_x
 _atom_site_fract_y
 _atom_site_fract_z
 _atom_site_occupancy
 _atom_site_pbe_bader_charge
 _atom_site_pbe_bader_spin_density
 _atom_site_pbe_cm5_charge
 _atom_site_pbe_ddec_charge
 _atom_site_pbe_ddec_spin_density
 _atom_site_pbe_ddec_sum_bond_order
 _atom_site_pbe_magmom
Cu  Cu0  1  0.17194856  0.37640866  0.43961244  1  1.07971  0.571693  0.740251  0.790578  0.731739  2.220996  0.569
Cu  Cu1  1  0.82805180  0.37640911  0.06038807  1  1.079697  0.571691  0.74024  0.790602  0.731737  2.221004  0.569
Cu  Cu2  1  0.17194848  0.12359141  0.56038861  1  1.079701  0.571691  0.740248  0.790578  0.731737  2.221012  0.569
Cu  Cu3  1  0.82805126  0.12359085  0.93961204  1  1.079702  0.571692  0.740233  0.790564  0.731737  2.221007  0.569
Cu  Cu4  1  0.82805205  0.62359078  0.56038792  1  1.079715  0.571693  0.740245  0.790582  0.731739  2.221021  0.569
Cu  Cu5  1  0.17194812  0.62359033  0.93961229  1  1.079707  0.571694  0.740238  0.790561  0.731738  2.221061  0.569
Cu  Cu6  1  0.82805145  0.87640934  0.43961238  1  1.079702  0.571694  0.740257  0.790586  0.731739  2.221018  0.569
Cu  Cu7  1  0.17194867  0.87640925  0.06038770  1  1.079704  0.571694  0.740246  0.790588  0.73174  2.22102  0.569
H  H8  1  0.01298740  0.41781704  0.55161068  1  0.112411  0.001774  0.122289  0.10033  0.000742  0.990887  0.001
H  H9  1  0.98701192  0.41781726  0.94838971  1  0.112411  0.001774  0.122293  0.100372  0.000742  0.990859  0.001
H  H10  1  0.01298790  0.08218290  0.44838967  1  0.11241  0.001774  0.122281  0.100339  0.000742  0.990866  0.001
H  H11  1  0.98701221  0.08218284  0.05161046  1  0.112406  0.001774  0.122265  0.100292  0.000742  0.990877  0.001
H  H12  1  0.98701186  0.58218240  0.44838906  1  0.112398  0.001774  0.122278  0.100329  0.000742  0.990855  0.001
H  H13  1  0.01298801  0.58218284  0.05161064  1  0.112403  0.001774  0.122263  0.100299  0.000742  0.990857  0.001
H  H14  1  0.98701203  0.91781785  0.55161069  1  0.112403  0.001774  0.122284  0.10034  0.000742  0.990844  0.001
H  H15  1  0.01298772  0.91781726  0.94838927  1  0.112403  0.001774  0.122264  0.100302  0.000742  0.990851  0.001
H  H16  1  0.84547802  0.39994524  0.54445733  1  0.190033  0.000852  0.108317  0.139977  0.000395  1.062787  0.001
H  H17  1  0.15452196  0.39994476  0.95554245  1  0.190039  0.000852  0.108303  0.13996  0.000395  1.062805  0.001
H  H18  1  0.84547787  0.10005474  0.45554278  1  0.190029  0.000852  0.108316  0.139971  0.000395  1.062792  0.001
H  H19  1  0.15452225  0.10005464  0.04445671  1  0.190036  0.000852  0.108301  0.139958  0.000395  1.06282  0.001
H  H20  1  0.15452191  0.60005420  0.45554303  1  0.190032  0.000852  0.108316  0.139975  0.000395  1.062794  0.001
H  H21  1  0.84547797  0.60005534  0.04445728  1  0.190029  0.000852  0.108312  0.139964  0.000395  1.062806  0.001
H  H22  1  0.15452206  0.89994602  0.54445695  1  0.190028  0.000852  0.108318  0.13997  0.000395  1.062793  0.001
H  H23  1  0.84547768  0.89994545  0.95554240  1  0.190019  0.000852  0.108308  0.139963  0.000395  1.062797  0.001
H  H24  1  0.88273381  0.27743300  0.30231675  1  0.153623  0.000933  0.117133  0.129817  0.000528  1.011149  0.001
H  H25  1  0.11726646  0.27743274  0.19768321  1  0.153609  0.000933  0.11714  0.129833  0.000528  1.011211  0.001
H  H26  1  0.88273390  0.22256700  0.69768275  1  0.153623  0.000933  0.117152  0.129851  0.000528  1.011197  0.001
H  H27  1  0.11726593  0.22256664  0.80231655  1  0.15362  0.000933  0.117132  0.129814  0.000528  1.011157  0.001
H  H28  1  0.11726612  0.72256644  0.69768299  1  0.153632  0.000933  0.117136  0.12981  0.000528  1.011135  0.001
H  H29  1  0.88273347  0.72256736  0.80231714  1  0.153626  0.000933  0.117155  0.129852  0.000528  1.011202  0.001
H  H30  1  0.11726603  0.77743375  0.30231698  1  0.153629  0.000933  0.117133  0.129815  0.000528  1.011109  0.001
H  H31  1  0.88273400  0.77743280  0.19768256  1  0.153634  0.000933  0.117157  0.129853  0.000528  1.011192  0.001
H  H32  1  0.05049743  0.30228865  0.32075454  1  0.126819  0.002066  0.121847  0.102805  0.000937  1.02172  0.002
H  H33  1  0.94950287  0.30228843  0.17924540  1  0.126623  0.002066  0.12185  0.102822  0.000937  1.021715  0.002
H  H34  1  0.05049748  0.19771132  0.67924582  1  0.126621  0.002066  0.121841  0.102803  0.000937  1.021722  0.002
H  H35  1  0.94950232  0.19771163  0.82075413  1  0.126807  0.002066  0.121836  0.102809  0.000937  1.021726  0.002
H  H36  1  0.94950250  0.69771144  0.67924582  1  0.126813  0.002066  0.121865  0.102843  0.000937  1.021694  0.002
H  H37  1  0.05049706  0.69771166  0.82075371  1  0.126616  0.002066  0.12184  0.10281  0.000937  1.021729  0.002
H  H38  1  0.94950245  0.80228877  0.32075391  1  0.126624  0.002066  0.121866  0.102844  0.000937  1.021686  0.002
H  H39  1  0.05049693  0.80228847  0.17924560  1  0.126823  0.002066  0.121841  0.102814  0.000937  1.021726  0.002
H  H40  1  0.49947726  0.40268688  0.54289933  1  0.090109  0.00099  0.10889  0.122377  0.000514  0.993902  0.0
H  H41  1  0.50052407  0.40268668  0.95710045  1  0.090121  0.00099  0.10889  0.12235  0.000514  0.99396  0.0
H  H42  1  0.49947575  0.09731413  0.45710062  1  0.090134  0.00099  0.108861  0.122335  0.000514  0.993938  0.0
H  H43  1  0.50052369  0.09731366  0.04289949  1  0.090128  0.00099  0.108861  0.12233  0.000514  0.993945  0.0
H  H44  1  0.50052402  0.59731322  0.45709978  1  0.090111  0.00099  0.108911  0.122377  0.000514  0.993953  0.0
H  H45  1  0.49947653  0.59731341  0.04289991  1  0.09011  0.00099  0.108886  0.122351  0.000514  0.993947  0.0
H  H46  1  0.50052350  0.90268663  0.54289911  1  0.090126  0.00099  0.108863  0.122335  0.000514  0.993939  0.0
H  H47  1  0.49947691  0.90268709  0.95709961  1  0.090097  0.00099  0.108892  0.122366  0.000514  0.993953  0.0
H  H48  1  0.33157042  0.42065157  0.55043309  1  0.132495  0.001674  0.116893  0.089268  0.000707  1.023937  0.001
H  H49  1  0.66843025  0.42065152  0.94956668  1  0.132491  0.001675  0.116891  0.089248  0.000707  1.023945  0.001
H  H50  1  0.33156957  0.07934929  0.44956741  1  0.132505  0.001674  0.116902  0.089257  0.000707  1.023945  0.001
H  H51  1  0.66842985  0.07934831  0.05043272  1  0.132496  0.001675  0.116899  0.089271  0.000707  1.023932  0.001
H  H52  1  0.66843018  0.57934918  0.44956665  1  0.132491  0.001674  0.116895  0.089244  0.000707  1.023962  0.001
H  H53  1  0.33157036  0.57934857  0.05043368  1  0.132487  0.001674  0.116899  0.089279  0.000707  1.023907  0.001
H  H54  1  0.66843036  0.92065146  0.55043295  1  0.132498  0.001675  0.116899  0.089262  0.000707  1.023945  0.001
H  H55  1  0.33157008  0.92065179  0.94956576  1  0.132474  0.001674  0.116887  0.08926  0.000707  1.023928  0.001
H  H56  1  0.29483978  0.30306780  0.31981584  1  0.156902  0.001764  0.123516  0.105401  0.000775  1.020657  0.001
H  H57  1  0.70516119  0.30306804  0.18018472  1  0.156867  0.001764  0.123505  0.105364  0.000775  1.020677  0.001
H  H58  1  0.29483916  0.19693303  0.68018463  1  0.156883  0.001765  0.123507  0.105383  0.000775  1.02065  0.001
H  H59  1  0.70516065  0.19693248  0.81981470  1  0.156859  0.001764  0.123527  0.105398  0.000775  1.020725  0.001
H  H60  1  0.70516083  0.69693229  0.68018452  1  0.156894  0.001765  0.123507  0.105378  0.000775  1.020669  0.001
H  H61  1  0.29483941  0.69693206  0.81981564  1  0.156888  0.001764  0.123521  0.105398  0.000775  1.020643  0.001
H  H62  1  0.70516145  0.80306772  0.31981510  1  0.156882  0.001765  0.123531  0.105397  0.000775  1.020719  0.001
H  H63  1  0.29483928  0.80306827  0.18018379  1  0.156896  0.001764  0.123516  0.10541  0.000775  1.020643  0.001
H  H64  1  0.45990605  0.27891801  0.30172563  1  0.133422  0.000967  0.109229  0.114536  0.000525  1.046868  0.001
H  H65  1  0.54009423  0.27891810  0.19827496  1  0.133047  0.000968  0.109215  0.114515  0.000525  1.046879  0.001
H  H66  1  0.45990613  0.22108230  0.69827430  1  0.133411  0.000967  0.109214  0.114502  0.000525  1.046888  0.001
H  H67  1  0.54009437  0.22108163  0.80172501  1  0.133045  0.000968  0.109213  0.114509  0.000525  1.04688  0.001
H  H68  1  0.54009456  0.72108143  0.69827411  1  0.133427  0.000967  0.10922  0.114518  0.000525  1.046899  0.001
H  H69  1  0.45990638  0.72108134  0.80172602  1  0.133064  0.000968  0.109231  0.11454  0.000525  1.046862  0.001
H  H70  1  0.54009447  0.77891845  0.30172481  1  0.133037  0.000968  0.10922  0.11452  0.000525  1.046858  0.001
H  H71  1  0.45990624  0.77891847  0.19827348  1  0.133439  0.000967  0.109211  0.114513  0.000525  1.04689  0.001
H  H72  1  0.21330073  0.34485442  0.75187267  1  0.136273  0.001613  0.102009  0.119945  0.000796  1.038889  0.001
H  H73  1  0.78669920  0.34485531  0.74812779  1  0.136285  0.001613  0.102001  0.119928  0.000796  1.038937  0.001
H  H74  1  0.21330051  0.15514504  0.24812902  1  0.136307  0.001613  0.102014  0.119934  0.000796  1.038937  0.001
H  H75  1  0.78669966  0.15514461  0.25187229  1  0.136281  0.001613  0.101999  0.119922  0.000796  1.038929  0.001
H  H76  1  0.78669987  0.65514502  0.24812832  1  0.136307  0.001613  0.102016  0.11995  0.000796  1.03889  0.001
H  H77  1  0.21330006  0.65514478  0.25187257  1  0.136276  0.001613  0.10202  0.119966  0.000796  1.038922  0.001
H  H78  1  0.78669942  0.84485440  0.75187259  1  0.136282  0.001613  0.102  0.119941  0.000796  1.038891  0.001
H  H79  1  0.21330027  0.84485548  0.74812806  1  0.136292  0.001613  0.102008  0.119929  0.000796  1.038919  0.001
H  H80  1  0.16342159  0.52381830  0.67402095  1  0.069422  0.000361  0.096264  0.11309  0.00032  1.041178  0.0
H  H81  1  0.83657782  0.52381851  0.82597935  1  0.06941  0.000361  0.096252  0.113075  0.00032  1.041199  0.0
H  H82  1  0.16342102  0.97618061  0.32597904  1  0.069384  0.000361  0.096253  0.113061  0.00032  1.041214  0.0
H  H83  1  0.83657784  0.97618096  0.17402095  1  0.069411  0.000361  0.096265  0.113085  0.00032  1.041195  0.0
H  H84  1  0.83657834  0.47618114  0.32597816  1  0.069384  0.000361  0.096263  0.113078  0.00032  1.04118  0.0
H  H85  1  0.16342143  0.47618159  0.17402101  1  0.069422  0.000361  0.096266  0.11308  0.00032  1.041201  0.0
H  H86  1  0.83657756  0.02381883  0.67402132  1  0.069376  0.000361  0.096265  0.1131  0.00032  1.041165  0.0
H  H87  1  0.16342209  0.02381914  0.82597878  1  0.069382  0.000361  0.096256  0.113074  0.00032  1.041181  0.0
C  C88  1  0.98094390  0.38704765  0.49771975  1  0.497827  -0.001069  0.052222  0.102818  -0.00147  3.923039  -0.001
C  C89  1  0.01905580  0.38704749  0.00227949  1  0.497617  -0.001069  0.052219  0.102796  -0.00147  3.922962  -0.001
C  C90  1  0.98094378  0.11295243  0.50227980  1  0.497827  -0.001069  0.052247  0.102844  -0.00147  3.923017  -0.001
C  C91  1  0.01905663  0.11295180  0.99772023  1  0.497664  -0.001068  0.052287  0.102956  -0.00147  3.922927  -0.001
C  C92  1  0.01905603  0.61295178  0.50227999  1  0.497825  -0.001069  0.052239  0.10285  -0.00147  3.922997  -0.001
C  C93  1  0.98094346  0.61295195  0.99772024  1  0.497812  -0.001069  0.05229  0.102914  -0.00147  3.922912  -0.001
C  C94  1  0.01905615  0.88704766  0.49771993  1  0.497821  -0.001069  0.052239  0.102836  -0.00147  3.922989  -0.001
C  C95  1  0.98094330  0.88704764  0.00227951  1  0.497814  -0.001069  0.052277  0.10291  -0.00147  3.922902  -0.001
C  C96  1  0.88777538  0.37614356  0.49309538  1  -0.098007  0.00552  -0.080234  -0.16515  0.003599  3.899603  0.004
C  C97  1  0.11222363  0.37614281  0.00690450  1  -0.098013  0.005519  -0.080211  -0.165134  0.003598  3.899711  0.004
C  C98  1  0.88777527  0.12385711  0.50690413  1  -0.098017  0.00552  -0.080229  -0.165155  0.003599  3.899704  0.004
C  C99  1  0.11222447  0.12385656  0.99309526  1  -0.097871  0.005519  -0.080223  -0.165192  0.003598  3.899693  0.004
C  C100  1  0.11222455  0.62385654  0.50690436  1  -0.098015  0.00552  -0.080233  -0.165183  0.003599  3.899659  0.004
C  C101  1  0.88777562  0.62385663  0.99309586  1  -0.09802  0.005519  -0.080238  -0.165169  0.003598  3.899685  0.004
C  C102  1  0.11222466  0.87614364  0.49309561  1  -0.098011  0.00552  -0.080233  -0.165183  0.003599  3.899623  0.004
C  C103  1  0.88777546  0.87614354  0.00690384  1  -0.098011  0.005519  -0.080246  -0.165198  0.003598  3.899674  0.004
C  C104  1  0.85086022  0.33623340  0.42189510  1  0.049013  -0.003155  0.010934  0.090043  -0.003515  4.024968  -0.002
C  C105  1  0.14914011  0.33623328  0.07810419  1  0.048573  -0.003155  0.010979  0.090168  -0.003515  4.02489  -0.002
C  C106  1  0.85086019  0.16376658  0.57810439  1  0.048768  -0.003155  0.010975  0.090127  -0.003515  4.024937  -0.002
C  C107  1  0.14913959  0.16376612  0.92189497  1  0.049025  -0.003155  0.010927  0.090085  -0.003515  4.024923  -0.002
C  C108  1  0.14913971  0.66376603  0.57810464  1  0.048781  -0.003155  0.010922  0.090091  -0.003515  4.024922  -0.002
C  C109  1  0.85086050  0.66376682  0.92189555  1  0.048786  -0.003155  0.010992  0.090183  -0.003515  4.0249  -0.002
C  C110  1  0.14913974  0.83623418  0.42189472  1  0.049054  -0.003155  0.010951  0.090164  -0.003515  4.024838  -0.002
C  C111  1  0.85086034  0.83623331  0.07810477  1  0.049043  -0.003155  0.010963  0.090146  -0.003515  4.024898  -0.002
C  C112  1  0.90976684  0.30786845  0.35854323  1  -0.01583  0.006082  -0.070214  -0.144608  0.004142  3.899594  0.005
C  C113  1  0.09023346  0.30786887  0.14145796  1  -0.015532  0.006082  -0.070237  -0.14467  0.004142  3.89966  0.005
C  C114  1  0.90976619  0.19213158  0.64145691  1  -0.015847  0.006082  -0.070273  -0.144717  0.004142  3.899704  0.005
C  C115  1  0.09023293  0.19213179  0.85854305  1  -0.015846  0.006082  -0.070217  -0.144622  0.004142  3.899597  0.005
C  C116  1  0.09023309  0.69213164  0.64145713  1  -0.015851  0.006082  -0.070219  -0.1446  0.004142  3.899558  0.005
C  C117  1  0.90976647  0.69213188  0.85854303  1  -0.015848  0.006082  -0.070288  -0.144748  0.004142  3.899728  0.005
C  C118  1  0.09023306  0.80786918  0.35854282  1  -0.015863  0.006082  -0.07024  -0.144654  0.004142  3.899554  0.005
C  C119  1  0.90976632  0.80786830  0.14145669  1  -0.015874  0.006082  -0.070258  -0.144697  0.004142  3.89965  0.005
C  C120  1  0.00173392  0.32186468  0.36798497  1  0.461668  -0.000389  0.048982  0.102968  -0.000788  3.908176  0.0
C  C121  1  0.99826707  0.32186455  0.13201558  1  0.461577  -0.000389  0.048988  0.102963  -0.000787  3.908244  0.0
C  C122  1  0.00173326  0.17813525  0.63201537  1  0.461685  -0.000389  0.048989  0.102974  -0.000788  3.908171  0.0
C  C123  1  0.99826653  0.17813490  0.86798460  1  0.461678  -0.000389  0.048994  0.102966  -0.000788  3.908196  0.0
C  C124  1  0.99826668  0.67813541  0.63201476  1  0.461678  -0.000389  0.048967  0.102912  -0.000787  3.908191  0.0
C  C125  1  0.00173354  0.67813555  0.86798478  1  0.461687  -0.000389  0.048987  0.102979  -0.000788  3.908167  0.0
C  C126  1  0.99826667  0.82186550  0.36798499  1  0.461684  -0.000389  0.048975  0.102931  -0.000788  3.908169  0.0
C  C127  1  0.00173340  0.82186454  0.13201513  1  0.461672  -0.000389  0.048991  0.102971  -0.000788  3.908156  0.0
C  C128  1  0.75350828  0.32547185  0.41067380  1  0.399419  0.00053  0.13084  0.081621  0.000263  4.002229  0.0
C  C129  1  0.24649204  0.32547179  0.08932550  1  0.399396  0.00053  0.130791  0.081488  0.000263  4.002222  0.0
C  C130  1  0.75350826  0.17452805  0.58932627  1  0.399409  0.00053  0.130816  0.08157  0.000263  4.002154  0.0
C  C131  1  0.24649220  0.17452769  0.91067370  1  0.399426  0.00053  0.130835  0.081625  0.000263  4.002191  0.0
C  C132  1  0.24649165  0.67452759  0.58932656  1  0.399414  0.00053  0.130851  0.08158  0.000263  4.002232  0.0
C  C133  1  0.75350789  0.67452830  0.91067361  1  0.399429  0.00053  0.130799  0.081507  0.000263  4.002237  0.0
C  C134  1  0.24649234  0.82547270  0.41067347  1  0.39942  0.00053  0.130851  0.081581  0.000263  4.002198  0.0
C  C135  1  0.75350773  0.82547241  0.08932603  1  0.399421  0.00053  0.130831  0.081587  0.000263  4.002201  0.0
C  C136  1  0.59203445  0.32740364  0.41028850  1  0.412237  0.000349  0.116566  0.058996  0.000104  4.048719  0.0
C  C137  1  0.40796587  0.32740306  0.08971142  1  0.412258  0.000349  0.116518  0.058935  0.000104  4.048825  0.0
C  C138  1  0.59203443  0.17259744  0.58971274  1  0.41226  0.000349  0.116616  0.059037  0.000104  4.048799  0.0
C  C139  1  0.40796603  0.17259655  0.91028786  1  0.412246  0.000349  0.116586  0.058982  0.000104  4.048739  0.0
C  C140  1  0.40796548  0.67259645  0.58971248  1  0.412248  0.000349  0.116589  0.058975  0.000104  4.048726  0.0
C  C141  1  0.59203474  0.67259638  0.91028832  1  0.412264  0.000349  0.116581  0.058928  0.000104  4.048778  0.0
C  C142  1  0.40796617  0.82740397  0.41028824  1  0.412247  0.000349  0.116574  0.058944  0.000104  4.048771  0.0
C  C143  1  0.59203458  0.82740354  0.08971125  1  0.412252  0.000349  0.116599  0.059001  0.000104  4.048687  0.0
C  C144  1  0.49465007  0.33955243  0.42067294  1  0.010593  -0.002542  0.007452  0.095153  -0.002857  4.033179  -0.002
C  C145  1  0.50535093  0.33955128  0.07932697  1  0.010245  -0.002542  0.007439  0.095143  -0.002856  4.033143  -0.002
C  C146  1  0.49464936  0.16044857  0.57932763  1  0.010415  -0.002542  0.007428  0.095157  -0.002857  4.03309  -0.002
C  C147  1  0.50535041  0.16044842  0.92067236  1  0.010608  -0.002542  0.007443  0.095155  -0.002857  4.033098  -0.002
C  C148  1  0.50535053  0.66044767  0.57932742  1  0.01043  -0.002542  0.0074  0.095136  -0.002857  4.033135  -0.002
C  C149  1  0.49464967  0.66044816  0.92067339  1  0.010253  -0.002542  0.007417  0.095158  -0.002857  4.033119  -0.002
C  C150  1  0.50535057  0.83955218  0.42067211  1  0.010614  -0.002542  0.007434  0.095177  -0.002857  4.033101  -0.002
C  C151  1  0.49464952  0.83955234  0.07932613  1  0.010623  -0.002542  0.007441  0.095167  -0.002857  4.033215  -0.002
C  C152  1  0.45701555  0.37998345  0.49147168  1  0.006855  0.004831  -0.087118  -0.180105  0.003238  3.951128  0.004
C  C153  1  0.54298482  0.37998371  0.00852819  1  0.007034  0.004831  -0.087103  -0.180085  0.003238  3.951167  0.004
C  C154  1  0.45701544  0.12001752  0.50852887  1  0.006875  0.004832  -0.087075  -0.180096  0.003238  3.951128  0.004
C  C155  1  0.54298497  0.12001667  0.99147115  1  0.006886  0.004832  -0.087086  -0.180076  0.003238  3.951207  0.004
C  C156  1  0.54298438  0.62001665  0.50852805  1  0.006862  0.004831  -0.087117  -0.180101  0.003238  3.951214  0.004
C  C157  1  0.45701511  0.62001638  0.99147217  1  0.007029  0.004831  -0.087132  -0.18013  0.003238  3.95123  0.004
C  C158  1  0.54298517  0.87998323  0.49147149  1  0.006872  0.004831  -0.08709  -0.180096  0.003238  3.951212  0.004
C  C159  1  0.45701563  0.87998408  0.00852796  1  0.006832  0.004831  -0.087111  -0.180107  0.003238  3.951244  0.004
C  C160  1  0.36373480  0.38988837  0.49661699  1  0.457855  -0.000688  0.047849  0.097877  -0.001138  3.94219  -0.001
C  C161  1  0.63626625  0.38988806  0.00338350  1  0.457875  -0.000688  0.047869  0.09797  -0.001138  3.942202  -0.001
C  C162  1  0.36373400  0.11011252  0.50338352  1  0.457873  -0.000688  0.047852  0.097952  -0.001138  3.942176  -0.001
C  C163  1  0.63626640  0.11011175  0.99661651  1  0.457865  -0.000689  0.047851  0.097909  -0.001138  3.942266  -0.001
C  C164  1  0.63626581  0.61011239  0.50338275  1  0.457868  -0.000688  0.047857  0.097933  -0.001138  3.942178  -0.001
C  C165  1  0.36373436  0.61011138  0.99661685  1  0.457853  -0.000689  0.047854  0.097918  -0.001138  3.942266  -0.001
C  C166  1  0.63626593  0.88988823  0.49661621  1  0.457863  -0.000689  0.047845  0.097907  -0.001138  3.94226  -0.001
C  C167  1  0.36373488  0.88988901  0.00338260  1  0.457855  -0.000689  0.047888  0.097931  -0.001138  3.942199  -0.001
C  C168  1  0.34292784  0.32369224  0.36746658  1  0.484457  -0.000334  0.053637  0.112925  -0.000768  3.884328  0.0
C  C169  1  0.65707247  0.32369182  0.13253334  1  0.484554  -0.000333  0.053652  0.113015  -0.000768  3.884302  0.0
C  C170  1  0.34292785  0.17630864  0.63253330  1  0.484449  -0.000334  0.05366  0.112987  -0.000767  3.88428  0.0
C  C171  1  0.65707261  0.17630800  0.86746605  1  0.484552  -0.000334  0.053624  0.112954  -0.000768  3.884359  0.0
C  C172  1  0.65707209  0.67630852  0.63253316  1  0.484445  -0.000334  0.053658  0.112992  -0.000767  3.884263  0.0
C  C173  1  0.34292813  0.67630762  0.86746701  1  0.484469  -0.000334  0.053648  0.112996  -0.000768  3.884293  0.0
C  C174  1  0.65707275  0.82369212  0.36746644  1  0.484531  -0.000334  0.05364  0.112975  -0.000768  3.884334  0.0
C  C175  1  0.34292800  0.82369210  0.13253243  1  0.48442  -0.000334  0.053652  0.112956  -0.000768  3.884306  0.0
C  C176  1  0.43511861  0.31085768  0.35794334  1  -0.040314  0.005635  -0.076489  -0.148127  0.003779  3.898615  0.004
C  C177  1  0.56488169  0.31085783  0.14205722  1  -0.040318  0.005635  -0.076493  -0.148137  0.003779  3.898532  0.004
C  C178  1  0.43511796  0.18914327  0.64205720  1  -0.04034  0.005635  -0.076497  -0.148111  0.003779  3.898504  0.004
C  C179  1  0.56488183  0.18914257  0.85794276  1  -0.040325  0.005635  -0.076499  -0.14812  0.003779  3.898532  0.004
C  C180  1  0.56488199  0.68914242  0.64205702  1  -0.040335  0.005635  -0.076502  -0.148144  0.003779  3.898556  0.004
C  C181  1  0.43511824  0.68914161  0.85794314  1  -0.040317  0.005634  -0.076496  -0.14815  0.003778  3.898526  0.004
C  C182  1  0.56488197  0.81085814  0.35794253  1  -0.040305  0.005635  -0.076497  -0.148135  0.003779  3.898507  0.004
C  C183  1  0.43511810  0.81085818  0.14205635  1  -0.040308  0.005634  -0.076534  -0.14819  0.003778  3.89861  0.004
C  C184  1  0.17942358  0.35631949  0.61782268  1  1.536245  -0.000859  0.195605  0.605027  -0.001144  4.224341  -0.003
C  C185  1  0.82057636  0.35631964  0.88217714  1  1.536238  -0.000859  0.195658  0.60518  -0.001144  4.224304  -0.003
C  C186  1  0.17942410  0.14367993  0.38217836  1  1.536241  -0.000859  0.195662  0.605159  -0.001144  4.224253  -0.003
C  C187  1  0.82057674  0.14368032  0.11782234  1  1.536248  -0.000859  0.195628  0.605153  -0.001144  4.224253  -0.003
C  C188  1  0.82057635  0.64367994  0.38217830  1  1.536237  -0.000859  0.195659  0.60517  -0.001144  4.224206  -0.003
C  C189  1  0.17942357  0.64368046  0.11782260  1  1.536245  -0.000859  0.195649  0.605148  -0.001144  4.224237  -0.003
C  C190  1  0.82057651  0.85631951  0.61782199  1  1.536247  -0.000859  0.195619  0.605104  -0.001144  4.224205  -0.003
C  C191  1  0.17942319  0.85631978  0.88217740  1  1.536236  -0.000859  0.195639  0.605166  -0.001144  4.224235  -0.003
C  C192  1  0.19463323  0.39218725  0.70341574  1  -0.005052  0.009653  -0.091708  -0.180759  0.006751  3.889846  0.008
C  C193  1  0.80536607  0.39218746  0.79658467  1  -0.005148  0.009652  -0.091722  -0.180815  0.00675  3.889928  0.008
C  C194  1  0.19463367  0.10781219  0.29658531  1  -0.005031  0.009652  -0.091717  -0.18078  0.006751  3.889857  0.008
C  C195  1  0.80536578  0.10781314  0.20341542  1  -0.005047  0.009652  -0.091724  -0.180822  0.00675  3.889886  0.008
C  C196  1  0.80536670  0.60781219  0.29658587  1  -0.005044  0.009652  -0.091727  -0.180828  0.00675  3.889853  0.008
C  C197  1  0.19463386  0.60781330  0.20341569  1  -0.005048  0.009652  -0.091726  -0.180851  0.006751  3.889847  0.008
C  C198  1  0.80536693  0.89218725  0.70341505  1  -0.005051  0.009653  -0.091715  -0.180796  0.006751  3.889853  0.008
C  C199  1  0.19463415  0.89218695  0.79658494  1  -0.005061  0.009652  -0.091713  -0.180793  0.006751  3.889883  0.008
C  C200  1  0.18336299  0.47727306  0.72236029  1  -0.122308  0.006986  -0.093973  -0.168042  0.005071  3.891134  0.006
C  C201  1  0.81663706  0.47727461  0.77763942  1  -0.1222  0.006986  -0.09394  -0.168015  0.005071  3.891108  0.006
C  C202  1  0.18336267  0.02272571  0.27764013  1  -0.122309  0.006987  -0.093956  -0.167994  0.005071  3.891082  0.006
C  C203  1  0.81663671  0.02272600  0.22236005  1  -0.122293  0.006986  -0.09395  -0.167997  0.005071  3.891098  0.006
C  C204  1  0.81663627  0.52272638  0.27764006  1  -0.122291  0.006987  -0.093957  -0.16797  0.005071  3.891106  0.006
C  C205  1  0.18336287  0.52272614  0.22236031  1  -0.122303  0.006986  -0.093939  -0.167964  0.005071  3.89106  0.006
C  C206  1  0.81663523  0.97727307  0.72236023  1  -0.122253  0.006987  -0.093966  -0.16802  0.005072  3.891135  0.006
C  C207  1  0.18336457  0.97727410  0.77764031  1  -0.122256  0.006987  -0.093954  -0.167991  0.005072  3.891111  0.006
C  C208  1  0.19315657  0.51148418  0.80917855  1  1.546686  -0.000958  0.186318  0.593967  -0.001291  4.225125  -0.002
C  C209  1  0.80684283  0.51148449  0.69082113  1  1.54668  -0.000958  0.186311  0.593978  -0.001291  4.225138  -0.002
C  C210  1  0.19315661  0.98851607  0.19082145  1  1.546686  -0.000958  0.186304  0.593926  -0.001291  4.225231  -0.002
C  C211  1  0.80684293  0.98851561  0.30917853  1  1.546685  -0.000958  0.186308  0.593947  -0.001291  4.225172  -0.002
C  C212  1  0.80684133  0.48851854  0.19082056  1  1.546655  -0.000958  0.186372  0.593988  -0.001291  4.225151  -0.002
C  C213  1  0.19315642  0.48851561  0.30917860  1  1.546685  -0.000958  0.186305  0.593928  -0.001291  4.22515  -0.002
C  C214  1  0.80684129  0.01148206  0.80917954  1  1.546655  -0.000958  0.186309  0.593906  -0.001291  4.225402  -0.002
C  C215  1  0.19315835  0.01148252  0.69082058  1  1.546658  -0.000958  0.18632  0.593916  -0.001291  4.225321  -0.002
S  S216  1  0.67301854  0.37395347  0.47476302  1  0.294276  -0.000135  0.155212  0.150435  -0.000187  2.789838  0.0
S  S217  1  0.32698114  0.37395288  0.02523686  1  0.293837  -0.000135  0.155224  0.150478  -0.000187  2.789895  0.0
S  S218  1  0.67301845  0.12604702  0.52523763  1  0.293869  -0.000135  0.155184  0.150403  -0.000187  2.789863  0.0
S  S219  1  0.32698129  0.12604601  0.97476301  1  0.294273  -0.000135  0.155202  0.150409  -0.000187  2.789834  0.0
S  S220  1  0.32698139  0.62604597  0.52523796  1  0.293854  -0.000135  0.155206  0.150425  -0.000187  2.7899  0.0
S  S221  1  0.67301879  0.62604721  0.97476350  1  0.293831  -0.000135  0.155215  0.150469  -0.000187  2.789871  0.0
S  S222  1  0.32698148  0.87395439  0.47476273  1  0.294267  -0.000135  0.155175  0.150389  -0.000187  2.789888  0.0
S  S223  1  0.67301864  0.87395409  0.02523672  1  0.29425  -0.000135  0.155208  0.150425  -0.000187  2.789846  0.0
N  N224  1  0.03701006  0.36106673  0.43629894  1  -1.187011  0.085517  -0.340199  -0.219939  0.056988  3.589314  0.074
N  N225  1  0.96298893  0.36106597  0.06370220  1  -1.186786  0.085517  -0.340209  -0.219978  0.056987  3.589375  0.074
N  N226  1  0.03701000  0.13893324  0.56370142  1  -1.186931  0.085517  -0.340183  -0.219922  0.056988  3.589359  0.074
N  N227  1  0.96298975  0.13893279  0.93629859  1  -1.186925  0.085517  -0.340217  -0.219996  0.056988  3.589292  0.074
N  N228  1  0.96298987  0.63893337  0.56370142  1  -1.18695  0.085518  -0.340198  -0.219944  0.056988  3.589367  0.074
N  N229  1  0.03701032  0.63893347  0.93629878  1  -1.186928  0.085517  -0.340205  -0.219952  0.056988  3.589309  0.074
N  N230  1  0.96298993  0.86106686  0.43629894  1  -1.187012  0.085517  -0.340209  -0.219959  0.056988  3.589361  0.074
N  N231  1  0.03701018  0.86106665  0.06370115  1  -1.186977  0.085517  -0.340214  -0.219982  0.056988  3.589288  0.074
N  N232  1  0.71773516  0.27969518  0.34836762  1  -0.653889  -0.001222  -0.183914  -0.144115  -0.001335  3.291039  -0.001
N  N233  1  0.28226444  0.27969509  0.15163172  1  -0.653875  -0.001222  -0.1839  -0.144062  -0.001336  3.290954  -0.001
N  N234  1  0.71773657  0.22030535  0.65163243  1  -0.653929  -0.001222  -0.183923  -0.144104  -0.001335  3.290998  -0.001
N  N235  1  0.28226461  0.22030508  0.84836750  1  -0.6539  -0.001222  -0.18392  -0.144147  -0.001335  3.29105  -0.001
N  N236  1  0.28226409  0.72030558  0.65163212  1  -0.653914  -0.001222  -0.183938  -0.144104  -0.001335  3.29103  -0.001
N  N237  1  0.71773549  0.72030501  0.84836739  1  -0.653903  -0.001222  -0.183908  -0.144099  -0.001335  3.291065  -0.001
N  N238  1  0.28226471  0.77969540  0.34836793  1  -0.653888  -0.001222  -0.183917  -0.144112  -0.001335  3.291008  -0.001
N  N239  1  0.71773532  0.77969502  0.15163223  1  -0.653877  -0.001222  -0.183897  -0.144097  -0.001335  3.29101  -0.001
N  N240  1  0.62687439  0.28063315  0.34809679  1  -0.634073  -0.000892  -0.196798  -0.171491  -0.000977  3.298361  -0.001
N  N241  1  0.37312589  0.28063248  0.15190255  1  -0.63409  -0.000892  -0.196766  -0.171469  -0.000977  3.298369  -0.001
N  N242  1  0.62687513  0.21936730  0.65190385  1  -0.634093  -0.000892  -0.196789  -0.171496  -0.000977  3.298412  -0.001
N  N243  1  0.37312537  0.21936710  0.84809672  1  -0.63408  -0.000892  -0.196766  -0.171423  -0.000977  3.298348  -0.001
N  N244  1  0.37312486  0.71936694  0.65190357  1  -0.634076  -0.000892  -0.196766  -0.171444  -0.000977  3.298316  -0.001
N  N245  1  0.62687404  0.71936696  0.84809719  1  -0.634107  -0.000892  -0.196777  -0.171411  -0.000977  3.298311  -0.001
N  N246  1  0.37312548  0.78063345  0.34809714  1  -0.634074  -0.000892  -0.196748  -0.171394  -0.000977  3.298318  -0.001
N  N247  1  0.62687388  0.78063299  0.15190239  1  -0.634094  -0.000892  -0.196802  -0.171473  -0.000977  3.29831  -0.001
N  N248  1  0.30755846  0.36223870  0.43596815  1  -1.215046  0.080146  -0.335391  -0.207162  0.053724  3.57112  0.069
N  N249  1  0.69244188  0.36223838  0.06403236  1  -1.215211  0.080147  -0.335402  -0.207267  0.053725  3.571164  0.069
N  N250  1  0.30755840  0.13776215  0.56403233  1  -1.215123  0.080149  -0.335404  -0.207242  0.053725  3.571097  0.069
N  N251  1  0.69244135  0.13776147  0.93596768  1  -1.215149  0.080149  -0.335389  -0.207207  0.053726  3.571121  0.069
N  N252  1  0.69244146  0.63776205  0.56403221  1  -1.215117  0.080147  -0.335387  -0.20721  0.053724  3.571066  0.069
N  N253  1  0.30755872  0.63776106  0.93596800  1  -1.215057  0.080147  -0.335386  -0.20724  0.053724  3.571197  0.069
N  N254  1  0.69244153  0.86223861  0.43596741  1  -1.215158  0.080147  -0.335415  -0.207212  0.053724  3.571107  0.069
N  N255  1  0.30755858  0.86223928  0.06403143  1  -1.215048  0.080147  -0.335405  -0.207188  0.053724  3.571158  0.069
O  O256  1  0.17456333  0.41320127  0.55752093  1  -1.13074  0.106736  -0.338069  -0.576189  0.067827  2.380892  0.096
O  O257  1  0.82543666  0.41320136  0.94247946  1  -1.130742  0.106734  -0.338056  -0.576187  0.067826  2.380879  0.096
O  O258  1  0.17456451  0.08679815  0.44248011  1  -1.130776  0.106735  -0.338074  -0.5762  0.067826  2.3809  0.096
O  O259  1  0.82543696  0.08679860  0.05752001  1  -1.130756  0.106734  -0.338053  -0.576168  0.067826  2.380875  0.096
O  O260  1  0.82543593  0.58679817  0.44248005  1  -1.130779  0.106735  -0.338076  -0.576191  0.067827  2.380889  0.096
O  O261  1  0.17456327  0.58679874  0.05752027  1  -1.130746  0.106737  -0.338061  -0.576164  0.067828  2.380883  0.096
O  O262  1  0.82543745  0.91320129  0.55752025  1  -1.13076  0.106735  -0.338055  -0.576166  0.067827  2.38092  0.096
O  O263  1  0.17456297  0.91320150  0.94247972  1  -1.130754  0.106739  -0.338074  -0.57621  0.067829  2.380897  0.096
O  O264  1  0.17234209  0.27482347  0.60956655  1  -1.153643  0.004942  -0.316449  -0.586643  0.002467  2.303221  0.006
O  O265  1  0.82765711  0.27482361  0.89043334  1  -1.153631  0.004941  -0.316494  -0.586734  0.002467  2.303177  0.006
O  O266  1  0.17234200  0.22517529  0.39043449  1  -1.153835  0.00494  -0.316493  -0.586744  0.002467  2.303163  0.006
O  O267  1  0.82765755  0.22517635  0.10956614  1  -1.153853  0.00494  -0.316465  -0.586715  0.002467  2.303153  0.006
O  O268  1  0.82765784  0.72517597  0.39043444  1  -1.153841  0.00494  -0.316486  -0.586748  0.002467  2.303129  0.006
O  O269  1  0.17234282  0.72517648  0.10956639  1  -1.153632  0.004941  -0.316504  -0.586756  0.002467  2.303178  0.006
O  O270  1  0.82765793  0.77482349  0.60956649  1  -1.153642  0.004942  -0.316479  -0.586721  0.002467  2.303085  0.006
O  O271  1  0.17234238  0.77482375  0.89043360  1  -1.153847  0.00494  -0.316475  -0.586727  0.002467  2.303138  0.006
O  O272  1  0.16880392  0.59312667  0.81784933  1  -1.100755  0.108949  -0.326308  -0.548749  0.069403  2.314542  0.098
O  O273  1  0.83119623  0.59312701  0.68215029  1  -1.100769  0.10895  -0.326317  -0.548762  0.069404  2.314534  0.098
O  O274  1  0.16880456  0.90687356  0.18215003  1  -1.100744  0.108948  -0.3263  -0.548731  0.069403  2.314595  0.098
O  O275  1  0.83119626  0.90687311  0.31785002  1  -1.10076  0.10895  -0.326311  -0.548748  0.069404  2.314542  0.098
O  O276  1  0.83119398  0.40687474  0.18214915  1  -1.100652  0.108955  -0.326347  -0.54878  0.069407  2.314457  0.098
O  O277  1  0.16880370  0.40687309  0.31785007  1  -1.100761  0.10895  -0.326305  -0.548739  0.069404  2.314535  0.098
O  O278  1  0.83119402  0.09312523  0.81785033  1  -1.100672  0.108951  -0.326326  -0.548748  0.069404  2.31462  0.098
O  O279  1  0.16880569  0.09312567  0.68214972  1  -1.100694  0.108951  -0.326293  -0.548713  0.069404  2.314624  0.098
O  O280  1  0.22162303  0.46388269  0.86748146  1  -1.180848  0.001678  -0.335402  -0.578878  0.000137  2.179142  0.002
O  O281  1  0.77837700  0.46388303  0.63251889  1  -1.180846  0.001678  -0.335393  -0.578872  0.000137  2.179153  0.002
O  O282  1  0.22162332  0.03611808  0.13251898  1  -1.180859  0.001678  -0.335394  -0.578865  0.000137  2.179154  0.002
O  O283  1  0.77837674  0.03611689  0.36748119  1  -1.180842  0.001678  -0.335393  -0.578863  0.000137  2.17916  0.002
O  O284  1  0.77837487  0.53611938  0.13252015  1  -1.180905  0.001677  -0.335412  -0.578887  0.000136  2.179217  0.002
O  O285  1  0.22162293  0.53611707  0.36748147  1  -1.180844  0.001678  -0.335388  -0.578851  0.000137  2.179133  0.002
O  O286  1  0.77837458  0.96388004  0.86747950  1  -1.180906  0.001678  -0.335368  -0.578834  0.000137  2.179252  0.002
O  O287  1  0.22162521  0.96388058  0.63252042  1  -1.180885  0.001678  -0.335418  -0.578869  0.000137  2.179173  0.002
