# generated using pymatgen
data_Cd2H22C18S(N2O5)2
_symmetry_space_group_name_H-M   'P 1'
_cell_length_a   10.40784764
_cell_length_b   12.14592050
_cell_length_c   12.36026428
_cell_angle_alpha   80.60064268
_cell_angle_beta   68.75118534
_cell_angle_gamma   70.57830644
_symmetry_Int_Tables_number   1
_chemical_formula_structural   Cd2H22C18S(N2O5)2
_chemical_formula_sum   'Cd4 H44 C36 S2 N8 O20'
_cell_volume   1371.77508677
_cell_formula_units_Z   2
loop_
 _symmetry_equiv_pos_site_id
 _symmetry_equiv_pos_as_xyz
  1  'x, y, z'
loop_
 _atom_site_type_symbol
 _atom_site_label
 _atom_site_symmetry_multiplicity
 _atom_site_fract_x
 _atom_site_fract_y
 _atom_site_fract_z
 _atom_site_occupancy
 _atom_site_pbe_bader_charge
 _atom_site_pbe_bader_spin_density
 _atom_site_pbe_cm5_charge
 _atom_site_pbe_ddec_charge
 _atom_site_pbe_ddec_spin_density
 _atom_site_pbe_ddec_sum_bond_order
 _atom_site_pbe_magmom
Cd  Cd0  1  0.39976212  0.70102365  0.01851892  1  1.318392  0  0.789799  0.98493  0  2.109648  0
Cd  Cd1  1  0.60023697  0.29897738  0.98148055  1  1.31838  0  0.789815  0.984917  0  2.10965  0
Cd  Cd2  1  0.03870002  0.51066082  0.81476275  1  1.34001  0  0.799076  1.008144  0  2.13743  0
Cd  Cd3  1  0.96130010  0.48934022  0.18523641  1  1.339892  0  0.799082  1.008136  0  2.13746  0
H  H4  1  0.00863596  0.63998772  0.43585320  1  0.108297  0  0.109391  0.121172  0  1.012304  0
H  H5  1  0.99136510  0.36000807  0.56414658  1  0.108781  0  0.109392  0.121176  0  1.012291  0
H  H6  1  0.09964842  0.69963438  0.22406414  1  0.106116  0  0.115384  0.087926  0  1.028428  0
H  H7  1  0.90035367  0.30036142  0.77593531  1  0.106096  0  0.115374  0.087932  0  1.028404  0
H  H8  1  0.52178311  0.59465157  0.22318692  1  0.113199  0  0.11394  0.090935  0  1.034478  0
H  H9  1  0.47821734  0.40534862  0.77681391  1  0.11322  0  0.113936  0.090932  0  1.034479  0
H  H10  1  0.44823652  0.53187280  0.43303498  1  0.102078  0  0.106577  0.113795  0  1.044357  0
H  H11  1  0.55176191  0.46813001  0.56696683  1  0.102133  0  0.106589  0.11379  0  1.04435  0
H  H12  1  0.98757356  0.07838954  0.05087320  1  0.143843  0  0.106208  0.123065  0  1.052234  0
H  H13  1  0.01242385  0.92161322  0.94912569  1  0.143838  0  0.106248  0.123162  0  1.052171  0
H  H14  1  0.36252917  0.07717229  0.12539194  1  0.128734  0  0.110941  0.12391  0  1.025243  0
H  H15  1  0.63746609  0.92282525  0.87461255  1  0.128713  0  0.11096  0.123906  0  1.025279  0
H  H16  1  0.87976551  0.28697355  0.10278865  1  0.118539  0  0.112671  0.089077  0  1.02973  0
H  H17  1  0.12023259  0.71303011  0.89721148  1  0.118563  0  0.112666  0.089043  0  1.029736  0
H  H18  1  0.23635180  0.28463547  0.18041695  1  0.149022  0  0.115803  0.090131  0  1.038537  0
H  H19  1  0.76364345  0.71536208  0.81958835  1  0.14916  0  0.115804  0.090115  0  1.038483  0
H  H20  1  0.35054081  0.72583503  0.76732636  1  0.082593  0  0.123634  0.051888  0  1.002421  0
H  H21  1  0.64946058  0.27415985  0.23267104  1  0.082643  0  0.123614  0.051877  0  1.002275  0
H  H22  1  0.35864775  0.71162659  0.59240639  1  0.075044  0  0.111341  0.130272  0  0.998201  0
H  H23  1  0.64135780  0.28837094  0.40758847  1  0.074938  0  0.111342  0.130247  0  0.998203  0
H  H24  1  0.53106477  0.66608077  0.48291540  1  0.067545  0  0.106105  0.123412  0  1.021061  0
H  H25  1  0.46894250  0.33391768  0.51708201  1  0.067533  0  0.106082  0.123365  0  1.021108  0
H  H26  1  0.43677927  0.81830214  0.49810499  1  0.023386  0  0.095687  0.102757  0  0.99601  0
H  H27  1  0.56322866  0.18169457  0.50189252  1  0.023381  0  0.095677  0.102747  0  0.996001  0
H  H28  1  0.68286451  0.82915369  0.54987904  1  0.031386  0  0.098277  0.102521  0  0.994579  0
H  H29  1  0.31713556  0.17084477  0.45012463  1  0.031399  0  0.098243  0.102478  0  0.994558  0
H  H30  1  0.73752244  0.68219092  0.50780763  1  0.051242  0  0.109757  0.127446  0  0.994357  0
H  H31  1  0.26247972  0.31781019  0.49219574  1  0.051197  0  0.109745  0.127456  0  0.99427  0
H  H32  1  0.72913975  0.70962147  0.64832300  1  0.12615  0  0.117582  0.144399  0  0.998089  0
H  H33  1  0.27085653  0.29037610  0.35168279  1  0.126179  0  0.1176  0.144429  0  0.998152  0
H  H34  1  0.30417836  0.28169683  0.84031171  1  0.139058  0  0.128326  0.06896  0  1.007042  0
H  H35  1  0.69582170  0.71830166  0.15969438  1  0.139095  0  0.128351  0.068964  0  1.007054  0
H  H36  1  0.09593964  0.13184854  0.77568355  1  0.116855  0  0.114196  0.136494  0  1.006338  0
H  H37  1  0.90406188  0.86815419  0.22430922  1  0.116779  0  0.114199  0.136498  0  1.006364  0
H  H38  1  0.20523784  0.99427886  0.81543185  1  0.071027  0  0.106598  0.123257  0  1.010084  0
H  H39  1  0.79476262  0.00572124  0.18456171  1  0.070941  0  0.106592  0.123275  0  1.010069  0
H  H40  1  0.25602287  0.05203918  0.66832470  1  0.03971  0  0.097524  0.102167  0  0.993934  0
H  H41  1  0.74398314  0.94796536  0.33166882  1  0.039828  0  0.097498  0.102129  0  0.993952  0
H  H42  1  0.50662811  0.04837235  0.69853622  1  0.020584  0  0.093845  0.098993  0  0.999203  0
H  H43  1  0.49337575  0.95162697  0.30146290  1  0.020611  0  0.093835  0.098969  0  0.999225  0
H  H44  1  0.43165883  0.98305334  0.83707739  1  0.078496  0  0.10568  0.124523  0  1.02064  0
H  H45  1  0.56834367  0.01694683  0.16292118  1  0.078367  0  0.105662  0.124482  0  1.020647  0
H  H46  1  0.47708751  0.11405779  0.82876897  1  0.130984  0  0.112866  0.145853  0  1.015456  0
H  H47  1  0.52291396  0.88594239  0.17123074  1  0.130992  0  0.112859  0.145865  0  1.015433  0
C  C48  1  0.16931722  0.54874449  0.57899314  1  1.552746  0  0.186764  0.541676  0  4.27359  0
C  C49  1  0.83068393  0.45125657  0.42100651  1  1.552762  0  0.18679  0.541728  0  4.273481  0
C  C50  1  0.22074097  0.58344589  0.45160216  1  -0.089042  0  0.001233  0.021332  0  3.945685  0
C  C51  1  0.77925811  0.41655516  0.54839893  1  -0.089067  0  0.001205  0.021277  0  3.945691  0
C  C52  1  0.12250320  0.63141491  0.39128747  1  0.048672  0  -0.076296  -0.129833  0  3.919027  0
C  C53  1  0.87749753  0.36858173  0.60871064  1  0.048284  0  -0.076285  -0.129791  0  3.918935  0
C  C54  1  0.17296521  0.66439802  0.27410899  1  0.488796  0  0.048346  0.106321  0  3.941047  0
C  C55  1  0.82703622  0.33559953  0.72589037  1  0.488709  0  0.048345  0.106285  0  3.940999  0
C  C56  1  0.40895209  0.60459028  0.27377747  1  0.464668  0  0.042919  0.097754  0  3.941633  0
C  C57  1  0.59104976  0.39541166  0.72622263  1  0.463875  0  0.042927  0.097711  0  3.941584  0
C  C58  1  0.36695391  0.56965697  0.39080994  1  0.024796  0  -0.084166  -0.151376  0  3.952581  0
C  C59  1  0.63304625  0.43034671  0.60919037  1  0.024793  0  -0.084168  -0.151301  0  3.952487  0
C  C60  1  0.25659060  0.93398986  0.05719517  1  1.568817  0  0.189194  0.542135  0  4.252458  0
C  C61  1  0.74340644  0.06601110  0.94280009  1  1.568873  0  0.189075  0.542  0  4.252709  0
C  C62  1  0.18302557  0.05961780  0.08835903  1  -0.067033  0  0.000598  0.017739  0  3.951237  0
C  C63  1  0.81697147  0.94038318  0.91163785  1  -0.067478  0  0.000671  0.01784  0  3.951179  0
C  C64  1  0.04563916  0.11940322  0.08153919  1  -0.017511  0  -0.084073  -0.148871  0  3.934667  0
C  C65  1  0.95435829  0.88060215  0.91845762  1  -0.017331  0  -0.084149  -0.149073  0  3.934672  0
C  C66  1  0.25329591  0.11953472  0.12402303  1  0.012488  0  -0.078159  -0.132584  0  3.915887  0
C  C67  1  0.74670178  0.88046455  0.87597718  1  0.012844  0  -0.078169  -0.132546  0  3.915921  0
C  C68  1  0.98437602  0.23578470  0.11079842  1  0.464536  0  0.042076  0.092622  0  3.940221  0
C  C69  1  0.01561901  0.76421892  0.88920025  1  0.464543  0  0.042092  0.092702  0  3.940175  0
C  C70  1  0.18379442  0.23502172  0.15385632  1  0.433238  0  0.045698  0.097307  0  3.947775  0
C  C71  1  0.81620397  0.76497843  0.84614352  1  0.43314  0  0.045668  0.097254  0  3.94781  0
C  C72  1  0.45915873  0.73597906  0.74274436  1  1.392763  0  0.176341  0.305533  0  4.093985  0
C  C73  1  0.54083860  0.26401843  0.25725384  1  1.392744  0  0.17632  0.305447  0  4.094138  0
C  C74  1  0.45989981  0.73310107  0.54598322  1  0.302422  0  -0.130066  -0.279686  0  3.922809  0
C  C75  1  0.54010643  0.26689738  0.45401451  1  0.302502  0  -0.130036  -0.279613  0  3.922916  0
C  C76  1  0.67828631  0.73976864  0.58103227  1  0.262706  0  -0.127662  -0.265452  0  3.887496  0
C  C77  1  0.32171619  0.26023155  0.41896711  1  0.262663  0  -0.127633  -0.265451  0  3.887425  0
C  C78  1  0.23456958  0.24748033  0.81402356  1  1.344437  0  0.179052  0.303574  0  4.062332  0
C  C79  1  0.76543017  0.75251900  0.18597925  1  1.344308  0  0.178987  0.303512  0  4.062375  0
C  C80  1  0.20664937  0.07480291  0.76015078  1  0.240701  0  -0.132065  -0.268324  0  3.889217  0
C  C81  1  0.79335491  0.92520074  0.23984261  1  0.240689  0  -0.13203  -0.268298  0  3.889117  0
C  C82  1  0.43397230  0.06694323  0.78846194  1  0.249979  0  -0.133961  -0.290243  0  3.910472  0
C  C83  1  0.56602950  0.93305606  0.21153700  1  0.250077  0  -0.133917  -0.290185  0  3.910401  0
S  S84  1  0.73250674  0.51574614  0.00558960  1  3.831125  0  0.559641  1.425944  0  6.414086  0
S  S85  1  0.26748992  0.48425316  0.99441416  1  3.831099  0  0.559736  1.426061  0  6.414057  0
N  N86  1  0.31395040  0.65140259  0.21626756  1  -1.232923  0  -0.326327  -0.246014  0  3.514457  0
N  N87  1  0.68605038  0.34859673  0.78373413  1  -1.232115  0  -0.32632  -0.245994  0  3.514532  0
N  N88  1  0.05153177  0.29228330  0.14733280  1  -1.230992  0  -0.329185  -0.250945  0  3.520603  0
N  N89  1  0.94846386  0.70771597  0.85266885  1  -1.231143  0  -0.329171  -0.250897  0  3.5206  0
N  N90  1  0.52989615  0.73548313  0.62794636  1  -1.205452  0  -0.284075  0.020852  0  3.726288  0
N  N91  1  0.47010598  0.26451532  0.37205505  1  -1.205358  0  -0.284112  0.020839  0  3.726351  0
N  N92  1  0.28902983  0.13446291  0.78944988  1  -1.202522  0  -0.281005  0.029173  0  3.726541  0
N  N93  1  0.71096992  0.86553635  0.21054809  1  -1.202728  0  -0.28101  0.029201  0  3.72644  0
O  O94  1  0.38326601  0.88748073  0.06344706  1  -1.159617  0  -0.325978  -0.553339  0  2.212892  0
O  O95  1  0.61673654  0.11252201  0.93654540  1  -1.159731  0  -0.325924  -0.553241  0  2.213046  0
O  O96  1  0.19082547  0.87944144  0.02645280  1  -1.175718  0  -0.329316  -0.566898  0  2.15872  0
O  O97  1  0.80916225  0.12055698  0.97355709  1  -1.175658  0  -0.329292  -0.566892  0  2.158786  0
O  O98  1  0.50999708  0.74601222  0.81697493  1  -1.14771  0  -0.298818  -0.447959  0  2.315693  0
O  O99  1  0.48999789  0.25398880  0.18302663  1  -1.147783  0  -0.298752  -0.447837  0  2.31603  0
O  O100  1  0.84662673  0.50329485  0.05559298  1  -1.353644  0  -0.376117  -0.692941  0  2.394042  0
O  O101  1  0.15336988  0.49670183  0.94441205  1  -1.353577  0  -0.376104  -0.692956  0  2.394032  0
O  O102  1  0.65872931  0.42363844  0.05984564  1  -1.332423  0  -0.372802  -0.681654  0  2.310613  0
O  O103  1  0.34126225  0.57636344  0.94015762  1  -1.332391  0  -0.372862  -0.681715  0  2.310527  0
O  O104  1  0.80022099  0.50375314  0.87781325  1  -1.332508  0  -0.359922  -0.65411  0  2.265446  0
O  O105  1  0.19977670  0.49624617  0.12218938  1  -1.332582  0  -0.359977  -0.654142  0  2.265481  0
O  O106  1  0.62533619  0.63372429  0.03197063  1  -1.33412  0  -0.363756  -0.657941  0  2.316458  0
O  O107  1  0.37466187  0.36627675  0.96803078  1  -1.334098  0  -0.363757  -0.657944  0  2.31652  0
O  O108  1  0.03536437  0.55671240  0.62580733  1  -1.141002  0  -0.331032  -0.555072  0  2.200121  0
O  O109  1  0.96463640  0.44328689  0.37419193  1  -1.141016  0  -0.331063  -0.555111  0  2.200138  0
O  O110  1  0.25957168  0.51480370  0.63360197  1  -1.181307  0  -0.341991  -0.584332  0  2.124869  0
O  O111  1  0.74042745  0.48519998  0.36639866  1  -1.181296  0  -0.341992  -0.584372  0  2.124787  0
O  O112  1  0.11278821  0.31003337  0.80981494  1  -1.161651  0  -0.306296  -0.460435  0  2.346118  0
O  O113  1  0.88721120  0.68996684  0.19018863  1  -1.161216  0  -0.306257  -0.460371  0  2.346084  0
