# generated using pymatgen
data_ZnH9C12N6ClO
_symmetry_space_group_name_H-M   'P 1'
_cell_length_a   8.19311367
_cell_length_b   9.50184061
_cell_length_c   17.47063463
_cell_angle_alpha   89.99963972
_cell_angle_beta   89.99975806
_cell_angle_gamma   90.00012459
_symmetry_Int_Tables_number   1
_chemical_formula_structural   ZnH9C12N6ClO
_chemical_formula_sum   'Zn4 H36 C48 N24 Cl4 O4'
_cell_volume   1360.08296968
_cell_formula_units_Z   4
loop_
 _symmetry_equiv_pos_site_id
 _symmetry_equiv_pos_as_xyz
  1  'x, y, z'
loop_
 _atom_site_type_symbol
 _atom_site_label
 _atom_site_symmetry_multiplicity
 _atom_site_fract_x
 _atom_site_fract_y
 _atom_site_fract_z
 _atom_site_occupancy
 _atom_site_hle17_bader_spin_density
 _atom_site_hle17_ddec_charge
 _atom_site_hle17_ddec_spin_density
 _atom_site_hle17_ddec_sum_bond_order
 _atom_site_hle17_magmom
 _atom_site_hse06_10hf_bader_spin_density
 _atom_site_hse06_10hf_ddec_charge
 _atom_site_hse06_10hf_ddec_spin_density
 _atom_site_hse06_10hf_ddec_sum_bond_order
 _atom_site_hse06_10hf_magmom
 _atom_site_hse06_bader_spin_density
 _atom_site_hse06_ddec_charge
 _atom_site_hse06_ddec_spin_density
 _atom_site_hse06_ddec_sum_bond_order
 _atom_site_hse06_magmom
 _atom_site_pbe_bader_spin_density
 _atom_site_pbe_cm5_charge
 _atom_site_pbe_ddec_charge
 _atom_site_pbe_ddec_spin_density
 _atom_site_pbe_ddec_sum_bond_order
 _atom_site_pbe_magmom
Zn  Zn0  1  0.05295906  0.50949255  0.97403238  1  0  0.888192  0  2.024345  0  0  0.697195  0  2.505866  0  0  0.736834  0  2.460679  0  0  0.665937  0.669529  0  2.536195  0
Zn  Zn1  1  0.94704261  0.49050626  0.47403423  1  0  0.888192  0  2.024343  0  0  0.697207  0  2.505849  0  0  0.736848  0  2.460664  0  0  0.665937  0.669541  0  2.536181  0
Zn  Zn2  1  0.44704161  0.00949478  0.47403097  1  0  0.888204  0  2.024354  0  0  0.697237  0  2.505878  0  0  0.736887  0  2.460695  0  0  0.665944  0.66957  0  2.536236  0
Zn  Zn3  1  0.55296372  0.99050718  0.97403163  1  0  0.888199  0  2.024345  0  0  0.697231  0  2.50578  0  0  0.736876  0  2.460595  0  0  0.665936  0.669545  0  2.536139  0
H  H4  1  0.55721578  0.34412469  0.85538621  1  0  0.303498  0  0.905034  0  0  0.283769  0  0.972548  0  0  0.291891  0  0.966299  0  0  0.294346  0.27899  0  0.975561  0
H  H5  1  0.44278207  0.65587339  0.35538335  1  0  0.303522  0  0.904993  0  0  0.283795  0  0.972511  0  0  0.291913  0  0.966264  0  0  0.294358  0.279027  0  0.975521  0
H  H6  1  0.94278025  0.84412580  0.35538997  1  0  0.303581  0  0.905001  0  0  0.283869  0  0.972484  0  0  0.291986  0  0.966238  0  0  0.294426  0.279096  0  0.975505  0
H  H7  1  0.05721394  0.15587333  0.85538646  1  0  0.303518  0  0.90507  0  0  0.283792  0  0.972564  0  0  0.291918  0  0.966312  0  0  0.294388  0.27903  0  0.975577  0
H  H8  1  0.41068480  0.06328548  0.63948283  1  0  0.082171  0  0.935361  0  0  0.088024  0  1.002749  0  0  0.090883  0  0.999767  0  0  0.118271  0.085804  0  1.005108  0
H  H9  1  0.58932841  0.93671825  0.13948559  1  0  0.082141  0  0.935385  0  0  0.088014  0  1.002746  0  0  0.090873  0  0.999765  0  0  0.118264  0.085774  0  1.005112  0
H  H10  1  0.08931046  0.56328277  0.13948615  1  0  0.082166  0  0.935391  0  0  0.088056  0  1.002736  0  0  0.090913  0  0.999758  0  0  0.118295  0.085848  0  1.005076  0
H  H11  1  0.91068932  0.43671570  0.63948914  1  0  0.082176  0  0.935387  0  0  0.088042  0  1.002753  0  0  0.090899  0  0.999775  0  0  0.118286  0.085822  0  1.005112  0
H  H12  1  0.56759046  0.56611252  0.62100796  1  0  0.104547  0  1.012142  0  0  0.10425  0  1.091054  0  0  0.107617  0  1.090074  0  0  0.104045  0.101471  0  1.092397  0
H  H13  1  0.43241071  0.43388722  0.12100645  1  0  0.104489  0  1.012113  0  0  0.104188  0  1.091033  0  0  0.107554  0  1.090053  0  0  0.104028  0.10142  0  1.092356  0
H  H14  1  0.93240575  0.06611052  0.12100887  1  0  0.104572  0  1.012104  0  0  0.104259  0  1.091033  0  0  0.107627  0  1.09005  0  0  0.104071  0.101507  0  1.092337  0
H  H15  1  0.06759176  0.93389027  0.62100726  1  0  0.104489  0  1.012146  0  0  0.104202  0  1.09106  0  0  0.107568  0  1.09008  0  0  0.104033  0.101435  0  1.092379  0
H  H16  1  0.45695104  0.93291633  0.76045058  1  0  0.106628  0  0.992867  0  0  0.113107  0  1.060171  0  0  0.115914  0  1.060196  0  0  0.092073  0.11113  0  1.060058  0
H  H17  1  0.54305498  0.06708705  0.26045296  1  0  0.106661  0  0.992912  0  0  0.113133  0  1.060221  0  0  0.11594  0  1.060246  0  0  0.092074  0.11115  0  1.060095  0
H  H18  1  0.04304163  0.43291150  0.26045341  1  0  0.106628  0  0.992968  0  0  0.113147  0  1.060245  0  0  0.115954  0  1.06027  0  0  0.092042  0.111153  0  1.060132  0
H  H19  1  0.95695951  0.56708662  0.76045414  1  0  0.106611  0  0.992969  0  0  0.11313  0  1.060253  0  0  0.115937  0  1.060277  0  0  0.092025  0.111141  0  1.06015  0
H  H20  1  0.51062135  0.71005576  0.50801531  1  0  0.089718  0  0.93608  0  0  0.09608  0  1.000644  0  0  0.099082  0  0.997258  0  0  0.117913  0.093846  0  1.003118  0
H  H21  1  0.48937838  0.28994318  0.00801704  1  0  0.089708  0  0.93612  0  0  0.096006  0  1.000772  0  0  0.099008  0  0.997385  0  0  0.117817  0.093721  0  1.003263  0
H  H22  1  0.98937501  0.21005176  0.00801782  1  0  0.089708  0  0.93608  0  0  0.096041  0  1.000689  0  0  0.099045  0  0.9973  0  0  0.117838  0.093772  0  1.003169  0
H  H23  1  0.01062351  0.78994402  0.50801682  1  0  0.089693  0  0.93605  0  0  0.096019  0  1.000663  0  0  0.099023  0  0.997275  0  0  0.117834  0.093767  0  1.003125  0
H  H24  1  0.66741397  0.84004047  0.82448140  1  0  0.099987  0  0.963151  0  0  0.109509  0  1.030569  0  0  0.112407  0  1.027611  0  0  0.101878  0.108266  0  1.031088  0
H  H25  1  0.33259026  0.15996007  0.32448446  1  0  0.099966  0  0.96318  0  0  0.109507  0  1.030571  0  0  0.11241  0  1.027592  0  0  0.101895  0.108276  0  1.031073  0
H  H26  1  0.83258721  0.34003828  0.32448709  1  0  0.100087  0  0.963188  0  0  0.109577  0  1.030614  0  0  0.11248  0  1.027644  0  0  0.101903  0.108321  0  1.031139  0
H  H27  1  0.16741824  0.65996226  0.82448449  1  0  0.100022  0  0.963128  0  0  0.109549  0  1.030529  0  0  0.112448  0  1.027576  0  0  0.101902  0.108312  0  1.031064  0
H  H28  1  0.35393816  0.34551738  0.76477265  1  0  0.132526  0  0.943835  0  0  0.149282  0  1.006482  0  0  0.151711  0  1.005302  0  0  0.0936  0.147405  0  1.007391  0
H  H29  1  0.64606416  0.65448174  0.26476767  1  0  0.132396  0  0.943892  0  0  0.14922  0  1.006481  0  0  0.151647  0  1.005304  0  0  0.093572  0.147339  0  1.007392  0
H  H30  1  0.14605791  0.84551479  0.26477127  1  0  0.132501  0  0.943834  0  0  0.149266  0  1.006481  0  0  0.151695  0  1.005302  0  0  0.09359  0.147397  0  1.007384  0
H  H31  1  0.85393953  0.15448223  0.76477019  1  0  0.132464  0  0.943855  0  0  0.149243  0  1.006481  0  0  0.151672  0  1.005301  0  0  0.093583  0.147367  0  1.007392  0
H  H32  1  0.50043106  0.36524992  0.69026287  1  0  0.136999  0  0.939539  0  0  0.153893  0  1.003914  0  0  0.156479  0  1.0021  0  0  0.102452  0.151941  0  1.005516  0
H  H33  1  0.49957315  0.63475112  0.19025825  1  0  0.137052  0  0.939576  0  0  0.153985  0  1.003903  0  0  0.156573  0  1.002087  0  0  0.102501  0.152043  0  1.005493  0
H  H34  1  0.99956285  0.86525219  0.19026422  1  0  0.137063  0  0.939553  0  0  0.153923  0  1.003963  0  0  0.156507  0  1.002151  0  0  0.102475  0.151974  0  1.005562  0
H  H35  1  0.00043648  0.13474885  0.69026262  1  0  0.137057  0  0.939554  0  0  0.153927  0  1.003948  0  0  0.156512  0  1.002134  0  0  0.102463  0.151973  0  1.005556  0
H  H36  1  0.33657406  0.48551695  0.69745032  1  0  0.134286  0  0.937137  0  0  0.157124  0  0.989932  0  0  0.158949  0  0.990168  0  0  0.10115  0.155814  0  0.989869  0
H  H37  1  0.66342643  0.51448085  0.19744692  1  0  0.13439  0  0.937017  0  0  0.15718  0  0.989877  0  0  0.159007  0  0.990113  0  0  0.101161  0.155864  0  0.989816  0
H  H38  1  0.16341809  0.98552070  0.19745234  1  0  0.134278  0  0.937132  0  0  0.157133  0  0.989911  0  0  0.158959  0  0.990145  0  0  0.101142  0.155833  0  0.989828  0
H  H39  1  0.83657873  0.01448026  0.69744890  1  0  0.134376  0  0.937056  0  0  0.157179  0  0.989883  0  0  0.159005  0  0.990117  0  0  0.101172  0.155878  0  0.989802  0
C  C40  1  0.52150340  0.51395427  0.78345783  1  0  0.330078  0  3.63811  0  0  0.318598  0  3.894636  0  0  0.333671  0  3.911004  0  0  0.139698  0.308713  0  3.883868  0
C  C41  1  0.47849509  0.48604464  0.28345548  1  0  0.330055  0  3.637987  0  0  0.318642  0  3.894448  0  0  0.333708  0  3.910825  0  0  0.139721  0.308766  0  3.883676  0
C  C42  1  0.97849122  0.01395341  0.28346094  1  0  0.329938  0  3.638418  0  0  0.31864  0  3.894712  0  0  0.333703  0  3.911092  0  0  0.139769  0.308788  0  3.883903  0
C  C43  1  0.02150484  0.98604550  0.78345867  1  0  0.330201  0  3.638026  0  0  0.318765  0  3.894488  0  0  0.333844  0  3.910849  0  0  0.139793  0.308894  0  3.883714  0
C  C44  1  0.55568111  0.65682984  0.77277620  1  0  -0.114364  0  3.767058  0  0  -0.105223  0  4.016407  0  0  -0.119203  0  4.043507  0  0  -0.029518  -0.096951  0  3.999127  0
C  C45  1  0.44432114  0.34317130  0.27277670  1  0  -0.114378  0  3.767148  0  0  -0.105265  0  4.016388  0  0  -0.119245  0  4.04349  0  0  -0.029489  -0.096957  0  3.999053  0
C  C46  1  0.94431274  0.15682576  0.27277766  1  0  -0.114277  0  3.767164  0  0  -0.105191  0  4.016423  0  0  -0.119167  0  4.043523  0  0  -0.029443  -0.096899  0  3.999075  0
C  C47  1  0.05568585  0.84317327  0.77277696  1  0  -0.114431  0  3.767205  0  0  -0.10533  0  4.016532  0  0  -0.11931  0  4.043628  0  0  -0.02952  -0.097041  0  3.999254  0
C  C48  1  0.44329136  0.95200385  0.63879098  1  0  0.13372  0  3.69729  0  0  0.099766  0  3.950134  0  0  0.107765  0  3.967358  0  0  0.045267  0.094719  0  3.938446  0
C  C49  1  0.55671697  0.04799779  0.13879226  1  0  0.133854  0  3.69744  0  0  0.099884  0  3.950292  0  0  0.107883  0  3.967515  0  0  0.045282  0.094847  0  3.9386  0
C  C50  1  0.05669879  0.45200115  0.13879321  1  0  0.13378  0  3.697402  0  0  0.099789  0  3.950275  0  0  0.10779  0  3.967498  0  0  0.045292  0.094765  0  3.938597  0
C  C51  1  0.94329612  0.54799733  0.63879518  1  0  0.133738  0  3.697434  0  0  0.099775  0  3.950297  0  0  0.107776  0  3.967519  0  0  0.045247  0.094727  0  3.938645  0
C  C52  1  0.52820992  0.67422622  0.62976880  1  0  -0.164097  0  3.693313  0  0  -0.181549  0  3.940371  0  0  -0.190482  0  3.96167  0  0  -0.083982  -0.175498  0  3.926203  0
C  C53  1  0.47178872  0.32577341  0.12976816  1  0  -0.164015  0  3.693224  0  0  -0.181515  0  3.940246  0  0  -0.190449  0  3.961545  0  0  -0.083928  -0.175473  0  3.926053  0
C  C54  1  0.97178159  0.17422535  0.12977021  1  0  -0.164144  0  3.693357  0  0  -0.181629  0  3.940444  0  0  -0.190562  0  3.96174  0  0  -0.083993  -0.175571  0  3.926222  0
C  C55  1  0.02821461  0.82577429  0.62976904  1  0  -0.164067  0  3.693432  0  0  -0.181557  0  3.940451  0  0  -0.190491  0  3.961749  0  0  -0.08397  -0.17552  0  3.926246  0
C  C56  1  0.46945196  0.87801256  0.70596265  1  0  -0.17182  0  3.708607  0  0  -0.186719  0  3.953034  0  0  -0.19613  0  3.975583  0  0  -0.090168  -0.180903  0  3.937884  0
C  C57  1  0.53055333  0.12198725  0.20596316  1  0  -0.171903  0  3.708832  0  0  -0.186855  0  3.953238  0  0  -0.196269  0  3.97579  0  0  -0.090184  -0.181046  0  3.938051  0
C  C58  1  0.03053862  0.37801191  0.20596494  1  0  -0.171813  0  3.708803  0  0  -0.186794  0  3.953225  0  0  -0.196207  0  3.975775  0  0  -0.090102  -0.180933  0  3.938052  0
C  C59  1  0.96945812  0.62198789  0.70596546  1  0  -0.171768  0  3.708799  0  0  -0.186757  0  3.953215  0  0  -0.19617  0  3.975764  0  0  -0.090068  -0.180895  0  3.938067  0
C  C60  1  0.67227825  0.51112478  0.90614871  1  0  0.529402  0  3.859423  0  0  0.482301  0  4.14774  0  0  0.510394  0  4.15036  0  0  0.218107  0.463668  0  4.145676  0
C  C61  1  0.32772037  0.48887271  0.40614550  1  0  0.529514  0  3.858947  0  0  0.482358  0  4.147352  0  0  0.510447  0  4.149975  0  0  0.218176  0.463719  0  4.145324  0
C  C62  1  0.82772625  0.01112890  0.40614754  1  0  0.529626  0  3.858666  0  0  0.482449  0  4.147137  0  0  0.510534  0  4.149759  0  0  0.218175  0.463831  0  4.145066  0
C  C63  1  0.17227115  0.98887175  0.90614610  1  0  0.529767  0  3.858719  0  0  0.48257  0  4.147205  0  0  0.510666  0  4.149813  0  0  0.218271  0.463932  0  4.145143  0
C  C64  1  0.49956431  0.75498566  0.56506068  1  0  0.168519  0  3.657724  0  0  0.136578  0  3.903611  0  0  0.146048  0  3.918751  0  0  0.058225  0.130213  0  3.893617  0
C  C65  1  0.50043736  0.24501262  0.06506083  1  0  0.168598  0  3.657854  0  0  0.136692  0  3.90375  0  0  0.146162  0  3.918887  0  0  0.058229  0.130286  0  3.89379  0
C  C66  1  0.00043332  0.25498391  0.06506245  1  0  0.168704  0  3.657887  0  0  0.136773  0  3.903757  0  0  0.146245  0  3.918897  0  0  0.058362  0.130431  0  3.893768  0
C  C67  1  0.99956346  0.74501437  0.56506306  1  0  0.1687  0  3.657878  0  0  0.136777  0  3.903746  0  0  0.14625  0  3.918885  0  0  0.05835  0.130432  0  3.893728  0
C  C68  1  0.69931216  0.66125367  0.89623980  1  0  -0.177842  0  3.77503  0  0  -0.162504  0  4.028123  0  0  -0.176714  0  4.05033  0  0  -0.024743  -0.153712  0  4.013563  0
C  C69  1  0.30068776  0.33874499  0.39624002  1  0  -0.177682  0  3.775034  0  0  -0.162301  0  4.028085  0  0  -0.176508  0  4.050293  0  0  -0.024722  -0.153572  0  4.01355  0
C  C70  1  0.80068914  0.16125458  0.39624212  1  0  -0.177547  0  3.774932  0  0  -0.162173  0  4.027992  0  0  -0.176373  0  4.050195  0  0  -0.024712  -0.153426  0  4.013414  0
C  C71  1  0.19931322  0.83874618  0.89624057  1  0  -0.177744  0  3.775036  0  0  -0.162378  0  4.028138  0  0  -0.17658  0  4.050338  0  0  -0.024695  -0.153545  0  4.013572  0
C  C72  1  0.64173247  0.72798737  0.83166624  1  0  -0.03716  0  3.713497  0  0  -0.077399  0  3.977413  0  0  -0.066762  0  3.991669  0  0  -0.067776  -0.083613  0  3.966343  0
C  C73  1  0.35827169  0.27201308  0.33167001  1  0  -0.037192  0  3.713591  0  0  -0.077464  0  3.977513  0  0  -0.06682  0  3.991766  0  0  -0.067823  -0.083664  0  3.966407  0
C  C74  1  0.85826592  0.22798839  0.33167131  1  0  -0.037419  0  3.713739  0  0  -0.077644  0  3.977678  0  0  -0.067007  0  3.991935  0  0  -0.067878  -0.083856  0  3.966583  0
C  C75  1  0.14173336  0.77201417  0.83166838  1  0  -0.037245  0  3.713621  0  0  -0.077485  0  3.97754  0  0  -0.066852  0  3.991797  0  0  -0.067753  -0.083663  0  3.966495  0
C  C76  1  0.78831845  0.73577581  0.95577491  1  0  0.328688  0  3.792933  0  0  0.293806  0  4.056612  0  0  0.308324  0  4.0736  0  0  0.224223  0.284226  0  4.045083  0
C  C77  1  0.21168095  0.26422321  0.45577614  1  0  0.328619  0  3.792926  0  0  0.293732  0  4.056612  0  0  0.308245  0  4.073607  0  0  0.224266  0.284203  0  4.045004  0
C  C78  1  0.71168252  0.23577656  0.45577912  1  0  0.328493  0  3.793122  0  0  0.293641  0  4.056769  0  0  0.308155  0  4.073762  0  0  0.224241  0.284135  0  4.045148  0
C  C79  1  0.28831688  0.76422562  0.95577765  1  0  0.328559  0  3.792925  0  0  0.293659  0  4.056595  0  0  0.308173  0  4.073587  0  0  0.224115  0.284071  0  4.045039  0
C  C80  1  0.51429555  0.73495191  0.70267677  1  0  0.127  0  3.767704  0  0  0.139242  0  3.996979  0  0  0.146261  0  4.020389  0  0  0.013448  0.134915  0  3.981076  0
C  C81  1  0.48570733  0.26505109  0.20267916  1  0  0.126954  0  3.767803  0  0  0.139347  0  3.996852  0  0  0.146368  0  4.020262  0  0  0.013366  0.134968  0  3.980912  0
C  C82  1  0.98569547  0.23495107  0.20267986  1  0  0.126891  0  3.767946  0  0  0.13922  0  3.997141  0  0  0.146239  0  4.020552  0  0  0.01332  0.134875  0  3.98119  0
C  C83  1  0.01430253  0.76504878  0.70267836  1  0  0.126911  0  3.767891  0  0  0.139258  0  3.997049  0  0  0.146278  0  4.020458  0  0  0.013384  0.134907  0  3.981137  0
C  C84  1  0.42281576  0.42284056  0.73111025  1  0  -0.385317  0  3.689407  0  0  -0.46271  0  3.922627  0  0  -0.466736  0  3.927554  0  0  -0.23501  -0.460059  0  3.919663  0
C  C85  1  0.57718198  0.57715790  0.23110510  1  0  -0.385293  0  3.689329  0  0  -0.462759  0  3.922483  0  0  -0.466787  0  3.927409  0  0  -0.235037  -0.460106  0  3.919511  0
C  C86  1  0.07717470  0.92284204  0.23111130  1  0  -0.38525  0  3.689559  0  0  -0.462696  0  3.922768  0  0  -0.466721  0  3.927699  0  0  -0.234982  -0.460056  0  3.919777  0
C  C87  1  0.92282182  0.07715747  0.73110919  1  0  -0.385398  0  3.689413  0  0  -0.46278  0  3.922645  0  0  -0.466807  0  3.927569  0  0  -0.23502  -0.460127  0  3.919668  0
N  N88  1  0.86726708  0.88859789  0.03990000  1  0  -0.065091  0  2.976452  0  0  -0.052657  0  3.271857  0  0  -0.052269  0  3.283776  0  0  -0.08234  -0.052603  0  3.264056  0
N  N89  1  0.13273481  0.11139752  0.53990222  1  0  -0.065101  0  2.976371  0  0  -0.052669  0  3.271803  0  0  -0.052285  0  3.283724  0  0  -0.0823  -0.052535  0  3.264006  0
N  N90  1  0.63273555  0.38860112  0.53990124  1  0  -0.065099  0  2.976469  0  0  -0.052684  0  3.27191  0  0  -0.052299  0  3.283834  0  0  -0.082229  -0.052514  0  3.264079  0
N  N91  1  0.36726634  0.61139955  0.03990097  1  0  -0.065074  0  2.976411  0  0  -0.052653  0  3.271849  0  0  -0.052268  0  3.283774  0  0  -0.082417  -0.052664  0  3.264078  0
N  N92  1  0.95938573  0.77750577  0.04778533  1  0  -0.076959  0  2.947983  0  0  -0.077376  0  3.243617  0  0  -0.07636  0  3.255353  0  0  -0.094978  -0.078057  0  3.236032  0
N  N93  1  0.04061487  0.22249166  0.54778849  1  0  -0.076968  0  2.948146  0  0  -0.077375  0  3.243768  0  0  -0.076361  0  3.255508  0  0  -0.094868  -0.07799  0  3.236202  0
N  N94  1  0.54061044  0.27750988  0.54778790  1  0  -0.076942  0  2.948097  0  0  -0.077333  0  3.24372  0  0  -0.076318  0  3.255463  0  0  -0.094904  -0.077973  0  3.236128  0
N  N95  1  0.45938649  0.72249280  0.04778707  1  0  -0.076983  0  2.948066  0  0  -0.077427  0  3.243686  0  0  -0.076415  0  3.255429  0  0  -0.094922  -0.078031  0  3.236069  0
N  N96  1  0.91230159  0.68009911  0.99579575  1  0  -0.334795  0  3.247606  0  0  -0.262024  0  3.546031  0  0  -0.280365  0  3.558189  0  0  -0.242582  -0.249487  0  3.537584  0
N  N97  1  0.08769867  0.31989839  0.49579876  1  0  -0.334786  0  3.247798  0  0  -0.262015  0  3.54622  0  0  -0.280356  0  3.558383  0  0  -0.242644  -0.249527  0  3.537778  0
N  N98  1  0.58769522  0.18010173  0.49579907  1  0  -0.334746  0  3.247776  0  0  -0.262016  0  3.546205  0  0  -0.280358  0  3.558372  0  0  -0.242602  -0.249516  0  3.537729  0
N  N99  1  0.41230382  0.81990209  0.99579888  1  0  -0.334694  0  3.247543  0  0  -0.26183  0  3.54585  0  0  -0.280165  0  3.558012  0  0  -0.242521  -0.249364  0  3.53742  0
N  N100  1  0.75993246  0.86687549  0.98228606  1  0  -0.342233  0  3.186983  0  0  -0.277836  0  3.490782  0  0  -0.296108  0  3.502635  0  0  -0.239789  -0.265677  0  3.482359  0
N  N101  1  0.24006670  0.13312322  0.48228711  1  0  -0.342149  0  3.186862  0  0  -0.277774  0  3.490699  0  0  -0.296038  0  3.502543  0  0  -0.239823  -0.265693  0  3.482285  0
N  N102  1  0.74006860  0.36687314  0.48228850  1  0  -0.342193  0  3.187098  0  0  -0.277799  0  3.490902  0  0  -0.296066  0  3.502748  0  0  -0.239866  -0.265717  0  3.482517  0
N  N103  1  0.25993056  0.63312453  0.98228810  1  0  -0.342196  0  3.186984  0  0  -0.277811  0  3.490803  0  0  -0.296078  0  3.50265  0  0  -0.239776  -0.265671  0  3.482395  0
N  N104  1  0.45811380  0.89179172  0.56908782  1  0  -0.31885  0  3.324183  0  0  -0.231199  0  3.601472  0  0  -0.250323  0  3.61514  0  0  -0.338385  -0.218367  0  3.592244  0
N  N105  1  0.54188905  0.10820967  0.06909007  1  0  -0.318973  0  3.324394  0  0  -0.231313  0  3.601655  0  0  -0.250434  0  3.615317  0  0  -0.338452  -0.218528  0  3.592461  0
N  N106  1  0.04187438  0.39179110  0.06908894  1  0  -0.318973  0  3.324388  0  0  -0.231275  0  3.601606  0  0  -0.2504  0  3.615268  0  0  -0.33844  -0.218515  0  3.592443  0
N  N107  1  0.95812359  0.60820608  0.56909010  1  0  -0.318918  0  3.324356  0  0  -0.231235  0  3.601567  0  0  -0.250359  0  3.615229  0  0  -0.338425  -0.218462  0  3.592397  0
N  N108  1  0.57799682  0.45058833  0.84792378  1  0  -0.393257  0  3.317239  0  0  -0.327291  0  3.538715  0  0  -0.349236  0  3.549174  0  0  -0.364682  -0.312983  0  3.530675  0
N  N109  1  0.42199622  0.54941193  0.34792189  1  0  -0.393354  0  3.317008  0  0  -0.327421  0  3.538523  0  0  -0.349358  0  3.54898  0  0  -0.364731  -0.31312  0  3.530488  0
N  N110  1  0.92199467  0.95058520  0.34793044  1  0  -0.393387  0  3.317386  0  0  -0.327501  0  3.53889  0  0  -0.349433  0  3.549345  0  0  -0.364805  -0.313213  0  3.530859  0
N  N111  1  0.07799959  0.04941402  0.84792610  1  0  -0.393405  0  3.317206  0  0  -0.327431  0  3.538739  0  0  -0.349382  0  3.549188  0  0  -0.36477  -0.313132  0  3.53072  0
Cl  Cl112  1  0.06311429  0.39356198  0.86239324  1  0  -0.551028  0  0.949461  0  0  -0.487558  0  1.218972  0  0  -0.501585  0  1.194756  0  0  -0.287485  -0.476988  0  1.233405  0
Cl  Cl113  1  0.93689083  0.60643707  0.36239356  1  0  -0.551051  0  0.949471  0  0  -0.487586  0  1.218983  0  0  -0.501613  0  1.194767  0  0  -0.287425  -0.476929  0  1.233391  0
Cl  Cl114  1  0.43690667  0.89356729  0.36239071  1  0  -0.551056  0  0.949463  0  0  -0.487591  0  1.21898  0  0  -0.501624  0  1.19477  0  0  -0.287845  -0.477419  0  1.233527  0
Cl  Cl115  1  0.56310332  0.10644018  0.86239266  1  0  -0.551043  0  0.949458  0  0  -0.487589  0  1.218957  0  0  -0.501619  0  1.194751  0  0  -0.287635  -0.477172  0  1.233442  0
O  O116  1  0.72247373  0.43664210  0.95969235  1  0  -0.563135  0  1.94925  0  0  -0.530494  0  2.185846  0  0  -0.551965  0  2.180597  0  0  -0.309081  -0.515614  0  2.188603  0
O  O117  1  0.27752075  0.56335898  0.45969242  1  0  -0.563252  0  1.948869  0  0  -0.5306  0  2.185508  0  0  -0.552073  0  2.180256  0  0  -0.309228  -0.515794  0  2.188303  0
O  O118  1  0.77751794  0.93663659  0.45969987  1  0  -0.563408  0  1.94863  0  0  -0.530706  0  2.185217  0  0  -0.552207  0  2.180021  0  0  -0.309209  -0.51586  0  2.188014  0
O  O119  1  0.22247165  0.06336028  0.95969806  1  0  -0.563505  0  1.948763  0  0  -0.530805  0  2.185346  0  0  -0.552311  0  2.180159  0  0  -0.309272  -0.515923  0  2.188145  0
