# generated using pymatgen
data_CoH15C21N2O5
_symmetry_space_group_name_H-M   'P 1'
_cell_length_a   10.10016257
_cell_length_b   10.23836436
_cell_length_c   10.66475444
_cell_angle_alpha   71.53260891
_cell_angle_beta   66.29091057
_cell_angle_gamma   84.55352785
_symmetry_Int_Tables_number   1
_chemical_formula_structural   CoH15C21N2O5
_chemical_formula_sum   'Co2 H30 C42 N4 O10'
_cell_volume   957.08561456
_cell_formula_units_Z   2
loop_
 _symmetry_equiv_pos_site_id
 _symmetry_equiv_pos_as_xyz
  1  'x, y, z'
loop_
 _atom_site_type_symbol
 _atom_site_label
 _atom_site_symmetry_multiplicity
 _atom_site_fract_x
 _atom_site_fract_y
 _atom_site_fract_z
 _atom_site_occupancy
 _atom_site_pbe_cm5_charge
 _atom_site_pbe_ddec_charge
 _atom_site_pbe_ddec_spin_density
 _atom_site_pbe_ddec_sum_bond_order
 _atom_site_pbe_magmom
Co  Co0  1  0.08445433  0.70825776  0.34861531  1  0.673298  0.745118  1.106275  2.900504  0.951
Co  Co1  1  0.91553754  0.29178000  0.65136348  1  0.673467  0.745384  -1.106252  2.90068  -0.951
H  H2  1  0.03111169  0.59899729  0.20457739  1  0.283886  0.370367  3e-06  0.983707  0.0
H  H3  1  0.96887119  0.40101712  0.79544350  1  0.283891  0.370388  -3e-06  0.983692  0.0
H  H4  1  0.93644636  0.51922270  0.37939783  1  0.305805  0.383756  0.000143  0.929121  0.0
H  H5  1  0.06347510  0.48084322  0.62064035  1  0.305665  0.383565  -0.000142  0.929256  0.0
H  H6  1  0.87670053  0.81091182  0.20766315  1  0.125489  0.107235  -5.7e-05  0.999509  0.0
H  H7  1  0.12335370  0.18910046  0.79233268  1  0.125546  0.107268  5.7e-05  0.999733  0.0
H  H8  1  0.80352843  0.04782379  0.10238917  1  0.112971  0.123419  6.3e-05  0.98958  0.0
H  H9  1  0.19646289  0.95217600  0.89765051  1  0.113061  0.123452  -6.4e-05  0.989538  0.0
H  H10  1  0.89876453  0.25111685  0.12961322  1  0.109132  0.11615  -0.000143  1.017091  0.0
H  H11  1  0.10116091  0.74887952  0.87047729  1  0.109183  0.116194  0.000143  1.016821  0.0
H  H12  1  0.05830068  0.20727288  0.26750349  1  0.112282  0.126976  6.4e-05  1.020886  0.0
H  H13  1  0.94167574  0.79277576  0.73254847  1  0.112275  0.126966  -6.5e-05  1.021186  0.0
H  H14  1  0.19295141  0.14653038  0.38855429  1  0.106916  0.116908  3.7e-05  1.06601  0.0
H  H15  1  0.80708374  0.85347945  0.61151338  1  0.106873  0.11694  -3.7e-05  1.066137  0.0
H  H16  1  0.36944715  0.05584821  0.50358386  1  0.104919  0.102198  -7.3e-05  1.003114  0.0
H  H17  1  0.63058504  0.94408662  0.49649445  1  0.104903  0.102176  7.3e-05  1.003213  0.0
H  H18  1  0.41966815  0.80204097  0.55634290  1  0.101325  0.100296  2.4e-05  1.048969  0.0
H  H19  1  0.58041305  0.19789983  0.44359282  1  0.10137  0.100235  -2.4e-05  1.048872  0.0
H  H20  1  0.29943454  0.65358655  0.48378858  1  0.119932  0.097669  -0.0002  1.050911  0.0
H  H21  1  0.70062843  0.34642081  0.51608430  1  0.11996  0.097784  0.0002  1.050824  0.0
H  H22  1  0.34330067  0.38651896  0.75578783  1  0.104879  0.110622  -3.3e-05  0.98884  0.0
H  H23  1  0.65668897  0.61341952  0.24424209  1  0.104901  0.110711  3.2e-05  0.988914  0.0
H  H24  1  0.68459096  0.67982261  0.43547192  1  0.100225  0.100693  -4.8e-05  1.022995  0.0
H  H25  1  0.31538726  0.32013963  0.56454242  1  0.100294  0.100892  4.8e-05  1.023093  0.0
H  H26  1  0.29384361  0.58475196  0.82847502  1  0.103938  0.106439  4.4e-05  1.023128  0.0
H  H27  1  0.70612846  0.41518475  0.17153218  1  0.103857  0.106272  -4.4e-05  1.023158  0.0
H  H28  1  0.52550555  0.72388942  0.02454740  1  0.106453  0.113837  0.000133  0.988546  0.0
H  H29  1  0.47450138  0.27609907  0.97544262  1  0.106401  0.113794  -0.000133  0.988157  0.0
H  H30  1  0.75789357  0.67179442  0.84600093  1  0.102411  0.101267  9.8e-05  1.025561  0.0
H  H31  1  0.24211487  0.32821376  0.15397720  1  0.102499  0.101387  -9.8e-05  1.026131  0.0
C  C32  1  0.91476901  0.90202629  0.21686347  1  0.044852  0.075237  -0.007518  3.921923  -0.008
C  C33  1  0.08526208  0.09800690  0.78315682  1  0.045008  0.07552  0.007516  3.922398  0.008
C  C34  1  0.87474347  0.03395897  0.15958056  1  -0.081858  -0.128619  0.000753  3.987766  0.002
C  C35  1  0.12525065  0.96606873  0.84044622  1  -0.082033  -0.128756  -0.000756  3.988241  -0.002
C  C36  1  0.92735967  0.14680797  0.17531384  1  -0.07446  -0.04023  -0.009961  3.962725  -0.011
C  C37  1  0.07259872  0.85321383  0.82474252  1  -0.074527  -0.040243  0.009961  3.963096  0.011
C  C38  1  0.01877440  0.12300873  0.24840578  1  -0.076435  -0.143473  0.001345  3.924361  0.003
C  C39  1  0.98121399  0.87700219  0.75164025  1  -0.07646  -0.143521  -0.001344  3.924977  -0.003
C  C40  1  0.05825231  0.98871552  0.30055808  1  0.114207  0.151412  -0.00782  3.991996  -0.009
C  C41  1  0.94177321  0.01130924  0.69947336  1  0.114155  0.151337  0.007827  3.991011  0.009
C  C42  1  0.15915367  0.94966048  0.37096264  1  0.115856  0.153378  -0.006298  3.975579  -0.007
C  C43  1  0.84087457  0.05035149  0.62904050  1  0.115674  0.153301  0.0063  3.975064  0.007
C  C44  1  0.22261305  0.03911000  0.40778476  1  -0.079499  -0.145322  0.000503  3.943477  0.002
C  C45  1  0.77742699  0.96088707  0.59225376  1  -0.079377  -0.145305  -0.000503  3.944424  -0.002
C  C46  1  0.31932470  0.98789973  0.47316418  1  -0.076725  -0.043103  -0.008341  3.983876  -0.009
C  C47  1  0.68071960  0.01205440  0.52687104  1  -0.076741  -0.043219  0.008348  3.984128  0.009
C  C48  1  0.34763596  0.84781605  0.50221781  1  -0.084003  -0.128503  -0.00033  3.989278  0.0
C  C49  1  0.65242475  0.15216086  0.49775291  1  -0.084035  -0.128243  0.000328  3.989364  0.0
C  C50  1  0.28024735  0.76313756  0.46416102  1  0.048277  0.092235  -0.006372  3.875193  -0.007
C  C51  1  0.71979853  0.23686460  0.53576687  1  0.048239  0.091874  0.006372  3.875643  0.007
C  C52  1  0.25401066  0.67005773  0.05440395  1  0.205775  0.557644  0.001604  4.200074  0.0
C  C53  1  0.74596916  0.32993714  0.94556283  1  0.205689  0.557443  -0.001596  4.200805  0.0
C  C54  1  0.41157660  0.43723509  0.64342229  1  -0.087122  -0.124633  0.000145  3.970257  0.0
C  C55  1  0.58841714  0.56270076  0.35658430  1  -0.08755  -0.125285  -0.000146  3.971198  0.0
C  C56  1  0.51607327  0.53806329  0.60961548  1  -0.009592  0.063883  8e-05  4.018174  0.0
C  C57  1  0.48390946  0.46190292  0.39040815  1  -0.009353  0.064437  -8e-05  4.018739  0.0
C  C58  1  0.60377573  0.60036240  0.46439442  1  -0.092397  -0.127755  2e-05  4.002001  0.0
C  C59  1  0.39621704  0.39958082  0.53560104  1  -0.092638  -0.128535  -2e-05  4.00279  0.0
C  C60  1  0.52617403  0.58288549  0.72403099  1  -0.003576  0.048398  0.000743  3.980835  0.001
C  C61  1  0.47380549  0.41708604  0.27598015  1  -0.003619  0.048117  -0.000747  3.980641  -0.001
C  C62  1  0.39689925  0.60643198  0.82958391  1  -0.086743  -0.158617  0.001052  3.973622  0.001
C  C63  1  0.60307457  0.39352929  0.17042584  1  -0.086623  -0.158083  -0.001049  3.97291  -0.001
C  C64  1  0.39539391  0.65671444  0.93749486  1  -0.017089  -0.023482  0.003827  3.996428  0.005
C  C65  1  0.60462068  0.34323297  0.06250408  1  -0.016877  -0.023574  -0.003834  3.995813  -0.005
C  C66  1  0.52681661  0.68564470  0.93967607  1  -0.081059  -0.086023  0.000294  3.96182  0.0
C  C67  1  0.47314755  0.31435609  0.06035412  1  -0.081082  -0.086057  -0.000289  3.961231  0.0
C  C68  1  0.65610462  0.65918195  0.83798354  1  -0.087145  -0.100284  0.000205  4.003771  0.0
C  C69  1  0.34384293  0.34081414  0.16201692  1  -0.087398  -0.100544  -0.000208  4.004679  0.0
C  C70  1  0.65884390  0.60750062  0.72971128  1  -0.010195  -0.071257  0.002151  3.897676  0.002
C  C71  1  0.34114361  0.39250062  0.27024599  1  -0.010107  -0.071021  -0.002141  3.897967  -0.002
C  C72  1  0.80377891  0.57122120  0.63276842  1  0.220658  0.583774  0.005454  4.146867  0.006
C  C73  1  0.19620888  0.42878914  0.36719549  1  0.220759  0.583643  -0.005474  4.147052  -0.006
N  N74  1  0.00569265  0.87863633  0.28562103  1  -0.338017  -0.221604  -0.004923  3.631461  -0.008
N  N75  1  0.99433711  0.12143078  0.71439278  1  -0.338075  -0.221987  0.004906  3.630731  0.008
N  N76  1  0.18759455  0.81249926  0.39941125  1  -0.332542  -0.202301  -0.006526  3.595867  -0.01
N  N77  1  0.81243620  0.18753702  0.60055107  1  -0.332458  -0.202024  0.006531  3.595174  0.01
O  O78  1  0.25272012  0.74348552  0.13100591  1  -0.307259  -0.537592  0.039149  2.25611  0.063
O  O79  1  0.74725316  0.25661427  0.86887773  1  -0.307268  -0.537343  -0.039174  2.256858  -0.063
O  O80  1  0.14455841  0.60239483  0.07023754  1  -0.328451  -0.546433  0.000662  2.176301  0.001
O  O81  1  0.85543971  0.39754751  0.92975141  1  -0.328454  -0.546493  -0.000656  2.17677  -0.001
O  O82  1  0.80813961  0.45753219  0.60320517  1  -0.314086  -0.549872  0.002042  2.467157  0.005
O  O83  1  0.19187717  0.54252995  0.39668099  1  -0.314173  -0.549808  -0.002046  2.467035  -0.005
O  O84  1  0.91165800  0.65173853  0.58918995  1  -0.298008  -0.555403  0.020961  2.261291  0.028
O  O85  1  0.08831654  0.34830345  0.41077556  1  -0.298  -0.55538  -0.020954  2.261631  -0.028
O  O86  1  0.95897364  0.61014460  0.30602354  1  -0.557056  -0.714124  -0.002297  2.271476  -0.005
O  O87  1  0.04096446  0.38990910  0.69396017  1  -0.556992  -0.713942  0.002301  2.271726  0.005
