# generated using pymatgen
data_CdH16C19NO4
_symmetry_space_group_name_H-M   'P 1'
_cell_length_a   6.08774973
_cell_length_b   9.91258059
_cell_length_c   15.33979324
_cell_angle_alpha   93.95998453
_cell_angle_beta   102.81291343
_cell_angle_gamma   107.66225733
_symmetry_Int_Tables_number   1
_chemical_formula_structural   CdH16C19NO4
_chemical_formula_sum   'Cd2 H32 C38 N2 O8'
_cell_volume   850.77475818
_cell_formula_units_Z   2
loop_
 _symmetry_equiv_pos_site_id
 _symmetry_equiv_pos_as_xyz
  1  'x, y, z'
loop_
 _atom_site_type_symbol
 _atom_site_label
 _atom_site_symmetry_multiplicity
 _atom_site_fract_x
 _atom_site_fract_y
 _atom_site_fract_z
 _atom_site_occupancy
 _atom_site_hle17_bader_spin_density
 _atom_site_hle17_ddec_charge
 _atom_site_hle17_ddec_spin_density
 _atom_site_hle17_ddec_sum_bond_order
 _atom_site_hle17_magmom
 _atom_site_hse06_10hf_bader_spin_density
 _atom_site_hse06_10hf_ddec_charge
 _atom_site_hse06_10hf_ddec_spin_density
 _atom_site_hse06_10hf_ddec_sum_bond_order
 _atom_site_hse06_10hf_magmom
 _atom_site_hse06_bader_spin_density
 _atom_site_hse06_ddec_charge
 _atom_site_hse06_ddec_spin_density
 _atom_site_hse06_ddec_sum_bond_order
 _atom_site_hse06_magmom
 _atom_site_pbe_bader_spin_density
 _atom_site_pbe_cm5_charge
 _atom_site_pbe_ddec_charge
 _atom_site_pbe_ddec_spin_density
 _atom_site_pbe_ddec_sum_bond_order
 _atom_site_pbe_magmom
Cd  Cd0  1  0.91676206  0.83739921  0.57839993  1  0  1.177197  0  1.661928  0  0  0.99133  0  2.108245  0  0  1.050081  0  2.051634  0  0  0.788725  0.949305  0  2.147155  0
Cd  Cd1  1  0.08323180  0.16258033  0.42159898  1  0  1.177085  0  1.662152  0  0  0.991186  0  2.108552  0  0  1.049936  0  2.051942  0  0  0.788718  0.949169  0  2.147465  0
H  H2  1  0.29035283  0.79069462  0.81029695  1  0  0.091923  0  0.955011  0  0  0.10365  0  1.015311  0  0  0.106198  0  1.014706  0  0  0.098621  0.101714  0  1.016113  0
H  H3  1  0.70961779  0.20931286  0.18969201  1  0  0.09193  0  0.954895  0  0  0.103617  0  1.015243  0  0  0.106163  0  1.014641  0  0  0.098582  0.101674  0  1.016055  0
H  H4  1  0.94185743  0.61182317  0.84171568  1  0  0.081268  0  0.97392  0  0  0.093766  0  1.033222  0  0  0.095919  0  1.033169  0  0  0.095241  0.092293  0  1.033285  0
H  H5  1  0.05812444  0.38818006  0.15826888  1  0  0.081198  0  0.974084  0  0  0.093771  0  1.033302  0  0  0.095927  0  1.033242  0  0  0.095217  0.092297  0  1.033369  0
H  H6  1  0.86595662  0.35233451  0.80110402  1  0  0.077471  0  0.970662  0  0  0.090993  0  1.029223  0  0  0.093185  0  1.028675  0  0  0.096781  0.089553  0  1.029432  0
H  H7  1  0.13406083  0.64766007  0.19888859  1  0  0.077358  0  0.970601  0  0  0.090826  0  1.029241  0  0  0.093015  0  1.0287  0  0  0.096715  0.089386  0  1.029451  0
H  H8  1  0.12204930  0.27064947  0.71703814  1  0  0.096133  0  0.956077  0  0  0.106483  0  1.015767  0  0  0.109091  0  1.015396  0  0  0.100496  0.104824  0  1.015869  0
H  H9  1  0.87797957  0.72935684  0.28295996  1  0  0.096169  0  0.956241  0  0  0.106549  0  1.015882  0  0  0.109154  0  1.015503  0  0  0.100536  0.104892  0  1.015974  0
H  H10  1  0.45833293  0.44936436  0.67929242  1  0  0.099598  0  0.956888  0  0  0.107102  0  1.025028  0  0  0.110975  0  1.021965  0  0  0.100591  0.104215  0  1.027315  0
H  H11  1  0.54170312  0.55064616  0.32071566  1  0  0.099646  0  0.956962  0  0  0.107094  0  1.025154  0  0  0.110994  0  1.022061  0  0  0.100598  0.1042  0  1.027469  0
H  H12  1  0.70760225  0.85950596  0.85157335  1  0  0.108487  0  1.017623  0  0  0.11592  0  1.087294  0  0  0.118929  0  1.08941  0  0  0.090353  0.113782  0  1.086045  0
H  H13  1  0.29240386  0.14051428  0.14842723  1  0  0.108498  0  1.01762  0  0  0.115947  0  1.087295  0  0  0.118954  0  1.089411  0  0  0.090388  0.113812  0  1.08604  0
H  H14  1  0.42165134  0.12092042  0.82209849  1  0  0.091805  0  0.972472  0  0  0.100826  0  1.040238  0  0  0.103784  0  1.038367  0  0  0.100673  0.098691  0  1.041656  0
H  H15  1  0.57835595  0.87910515  0.17790506  1  0  0.091717  0  0.972484  0  0  0.10077  0  1.040224  0  0  0.103732  0  1.038344  0  0  0.100649  0.098638  0  1.041636  0
H  H16  1  0.64712831  0.32140099  0.94866971  1  0  0.084424  0  0.953677  0  0  0.097072  0  1.011111  0  0  0.099773  0  1.010479  0  0  0.098144  0.095131  0  1.011677  0
H  H17  1  0.35284461  0.67866318  0.05133053  1  0  0.084406  0  0.953892  0  0  0.097089  0  1.011267  0  0  0.099784  0  1.010641  0  0  0.09818  0.095153  0  1.011824  0
H  H18  1  0.43761544  0.39604254  0.05562803  1  0  0.089242  0  0.95914  0  0  0.099788  0  1.019713  0  0  0.101861  0  1.020099  0  0  0.099401  0.098288  0  1.019504  0
H  H19  1  0.56232122  0.60401644  0.94435369  1  0  0.08901  0  0.959125  0  0  0.099709  0  1.019543  0  0  0.101797  0  1.019931  0  0  0.099326  0.098208  0  1.019334  0
H  H20  1  0.00434712  0.26596846  0.03674881  1  0  0.080249  0  0.976252  0  0  0.090761  0  1.03887  0  0  0.093439  0  1.037911  0  0  0.096221  0.0888  0  1.039743  0
H  H21  1  0.99558322  0.73405417  0.96322349  1  0  0.080305  0  0.976266  0  0  0.090817  0  1.038882  0  0  0.093538  0  1.037875  0  0  0.096302  0.08885  0  1.03975  0
H  H22  1  0.78506073  0.06575589  0.91382783  1  0  0.088495  0  0.960888  0  0  0.101861  0  1.019092  0  0  0.104455  0  1.018349  0  0  0.100877  0.099985  0  1.019609  0
H  H23  1  0.21492869  0.93425167  0.08615045  1  0  0.088443  0  0.960895  0  0  0.101798  0  1.019107  0  0  0.104392  0  1.018369  0  0  0.100856  0.099922  0  1.019626  0
H  H24  1  0.28713197  0.72985166  0.49495708  1  0  0.103237  0  0.96575  0  0  0.107049  0  1.032798  0  0  0.109822  0  1.031016  0  0  0.121162  0.105054  0  1.03414  0
H  H25  1  0.71284947  0.27007525  0.50505914  1  0  0.103181  0  0.966324  0  0  0.107145  0  1.033131  0  0  0.109943  0  1.03134  0  0  0.121126  0.105151  0  1.034473  0
H  H26  1  0.68733967  0.50174836  0.57496060  1  0  0.101459  0  0.947861  0  0  0.106167  0  1.015118  0  0  0.109347  0  1.012619  0  0  0.124496  0.103723  0  1.017377  0
H  H27  1  0.31259580  0.49817119  0.42504133  1  0  0.101376  0  0.948083  0  0  0.106213  0  1.015197  0  0  0.109392  0  1.012705  0  0  0.124421  0.103766  0  1.017449  0
H  H28  1  0.49053548  0.00226491  0.30905734  1  0  0.130977  0  0.969278  0  0  0.147459  0  1.034118  0  0  0.149201  0  1.034583  0  0  0.090573  0.146231  0  1.033792  0
H  H29  1  0.50952481  0.99776261  0.69096676  1  0  0.130976  0  0.969503  0  0  0.147555  0  1.034225  0  0  0.149293  0  1.034704  0  0  0.090625  0.14633  0  1.033893  0
H  H30  1  0.27499958  0.90645801  0.36350517  1  0  0.143912  0  0.945913  0  0  0.161747  0  1.010136  0  0  0.164434  0  1.008729  0  0  0.10064  0.159838  0  1.011107  0
H  H31  1  0.72500868  0.09354182  0.63650120  1  0  0.143944  0  0.946011  0  0  0.161796  0  1.0102  0  0  0.164486  0  1.008785  0  0  0.100656  0.159896  0  1.011161  0
H  H32  1  0.39172746  0.80974377  0.29438483  1  0  0.128308  0  0.961239  0  0  0.148163  0  1.020932  0  0  0.150409  0  1.019959  0  0  0.09473  0.146561  0  1.021562  0
H  H33  1  0.60829666  0.19026903  0.70560663  1  0  0.128276  0  0.961191  0  0  0.148122  0  1.020933  0  0  0.150355  0  1.019971  0  0  0.094715  0.146526  0  1.021556  0
C  C34  1  0.25532413  0.67673461  0.79083470  1  0  -0.096378  0  3.743059  0  0  -0.116829  0  3.989306  0  0  -0.117773  0  4.010253  0  0  -0.08908  -0.115807  0  3.974971  0
C  C35  1  0.74467381  0.32327066  0.20916185  1  0  -0.096349  0  3.743082  0  0  -0.116731  0  3.989322  0  0  -0.117675  0  4.010269  0  0  -0.089084  -0.1157  0  3.974981  0
C  C36  1  0.06033272  0.57615658  0.80901250  1  0  -0.076805  0  3.786812  0  0  -0.088051  0  4.034127  0  0  -0.091007  0  4.056635  0  0  -0.096209  -0.086117  0  4.018881  0
C  C37  1  0.93965841  0.42383911  0.19097647  1  0  -0.076904  0  3.786929  0  0  -0.088208  0  4.034221  0  0  -0.091168  0  4.056735  0  0  -0.09614  -0.086268  0  4.018964  0
C  C38  1  0.01417060  0.43018205  0.78410292  1  0  -0.069022  0  3.777444  0  0  -0.084249  0  4.02412  0  0  -0.085688  0  4.0468  0  0  -0.091938  -0.083189  0  4.008735  0
C  C39  1  0.98583698  0.56982218  0.21588925  1  0  -0.068647  0  3.777203  0  0  -0.083849  0  4.023948  0  0  -0.085279  0  4.046608  0  0  -0.091851  -0.082792  0  4.008564  0
C  C40  1  0.15777376  0.38434887  0.73744541  1  0  -0.071324  0  3.771795  0  0  -0.08182  0  4.02005  0  0  -0.085055  0  4.04339  0  0  -0.09174  -0.079783  0  4.004091  0
C  C41  1  0.84225723  0.61565847  0.26255945  1  0  -0.071635  0  3.772261  0  0  -0.082155  0  4.020501  0  0  -0.085385  0  4.043845  0  0  -0.091827  -0.08012  0  4.004554  0
C  C42  1  0.34832525  0.48468323  0.71684959  1  0  -0.0844  0  3.719901  0  0  -0.108833  0  3.9685  0  0  -0.108886  0  3.987883  0  0  -0.088366  -0.108234  0  3.955127  0
C  C43  1  0.65171820  0.51533475  0.28316277  1  0  -0.08436  0  3.71995  0  0  -0.108724  0  3.968538  0  0  -0.108801  0  3.987909  0  0  -0.088383  -0.108134  0  3.955185  0
C  C44  1  0.40199451  0.63153696  0.74493954  1  0  -0.033922  0  3.765287  0  0  -0.012167  0  3.994474  0  0  -0.017899  0  4.01701  0  0  -0.022842  -0.008351  0  3.978799  0
C  C45  1  0.59802655  0.36847682  0.25506342  1  0  -0.033822  0  3.765111  0  0  -0.012146  0  3.994335  0  0  -0.017878  0  4.016876  0  0  -0.022861  -0.008327  0  3.978656  0
C  C46  1  0.60959758  0.73522126  0.72202293  1  0  0.430037  0  3.824915  0  0  0.41029  0  4.084617  0  0  0.438182  0  4.08882  0  0  0.120286  0.391705  0  4.08093  0
C  C47  1  0.39041039  0.26478398  0.27797779  1  0  0.429888  0  3.824888  0  0  0.410205  0  4.084509  0  0  0.438094  0  4.088718  0  0  0.120266  0.391618  0  4.080821  0
C  C48  1  0.75522199  0.85451968  0.78750784  1  0  -0.445066  0  3.757951  0  0  -0.469328  0  4.023471  0  0  -0.495034  0  4.044182  0  0  -0.157975  -0.452355  0  4.009099  0
C  C49  1  0.24480466  0.14549195  0.21249487  1  0  -0.444872  0  3.758188  0  0  -0.469198  0  4.023618  0  0  -0.4949  0  4.044327  0  0  -0.157976  -0.452226  0  4.009248  0
C  C50  1  0.96089383  0.96265638  0.78090433  1  0  0.4178  0  3.82658  0  0  0.399286  0  4.083025  0  0  0.42649  0  4.089838  0  0  0.116792  0.381252  0  4.077527  0
C  C51  1  0.03914852  0.03734993  0.21909435  1  0  0.417741  0  3.826682  0  0  0.399308  0  4.083006  0  0  0.426514  0  4.089814  0  0  0.116809  0.381271  0  4.077513  0
C  C52  1  0.09003927  0.07847761  0.85974547  1  0  -0.02115  0  3.741551  0  0  0.002039  0  3.9654  0  0  -0.004086  0  3.988445  0  0  -0.016732  0.005866  0  3.950104  0
C  C53  1  0.90997709  0.92152760  0.14025731  1  0  -0.021203  0  3.741507  0  0  0.001898  0  3.965433  0  0  -0.004233  0  3.988481  0  0  -0.016624  0.00573  0  3.950135  0
C  C54  1  0.33346862  0.15257619  0.87059405  1  0  -0.087358  0  3.738388  0  0  -0.111082  0  3.984673  0  0  -0.110805  0  4.004656  0  0  -0.088451  -0.111023  0  3.971275  0
C  C55  1  0.66652954  0.84746333  0.12940606  1  0  -0.086809  0  3.737903  0  0  -0.110545  0  3.984176  0  0  -0.110264  0  4.004151  0  0  -0.088266  -0.110489  0  3.970781  0
C  C56  1  0.45798923  0.26519807  0.94091060  1  0  -0.079708  0  3.784806  0  0  -0.090292  0  4.032074  0  0  -0.093926  0  4.054175  0  0  -0.093984  -0.087983  0  4.017108  0
C  C57  1  0.54199727  0.73484470  0.05908664  1  0  -0.080023  0  3.784728  0  0  -0.090642  0  4.032116  0  0  -0.094271  0  4.054209  0  0  -0.094211  -0.088335  0  4.017155  0
C  C58  1  0.34041813  0.30739331  0.00092440  1  0  -0.063633  0  3.762282  0  0  -0.077536  0  4.008469  0  0  -0.077507  0  4.028972  0  0  -0.090097  -0.077312  0  3.994446  0
C  C59  1  0.65956442  0.69264521  0.99906902  1  0  -0.063555  0  3.762173  0  0  -0.07758  0  4.008369  0  0  -0.077574  0  4.028908  0  0  -0.090091  -0.077355  0  3.994343  0
C  C60  1  0.09827286  0.23451279  0.99043127  1  0  -0.082221  0  3.793936  0  0  -0.09426  0  4.044712  0  0  -0.097372  0  4.065947  0  0  -0.0943  -0.0922  0  4.030259  0
C  C61  1  0.90170731  0.76550869  0.00954942  1  0  -0.082223  0  3.793907  0  0  -0.094299  0  4.044734  0  0  -0.097448  0  4.065963  0  0  -0.09438  -0.092226  0  4.030284  0
C  C62  1  0.97421697  0.12032814  0.92105649  1  0  -0.087643  0  3.737362  0  0  -0.107285  0  3.977906  0  0  -0.108081  0  3.999859  0  0  -0.086505  -0.106462  0  3.962735  0
C  C63  1  0.02577128  0.87968684  0.07893245  1  0  -0.087445  0  3.737158  0  0  -0.107039  0  3.977706  0  0  -0.107849  0  3.99969  0  0  -0.086403  -0.106212  0  3.962516  0
C  C64  1  0.15870770  0.62713166  0.49700518  1  0  0.099118  0  3.65013  0  0  0.06829  0  3.904679  0  0  0.071399  0  3.922557  0  0  0.062581  0.066083  0  3.892854  0
C  C65  1  0.84126192  0.37279844  0.50301532  1  0  0.09877  0  3.650806  0  0  0.067942  0  3.905012  0  0  0.071023  0  3.92292  0  0  0.062604  0.065734  0  3.893191  0
C  C66  1  0.82686281  0.50015013  0.54145276  1  0  0.100944  0  3.635189  0  0  0.071283  0  3.888305  0  0  0.073856  0  3.906569  0  0  0.065486  0.069143  0  3.87649  0
C  C67  1  0.17309993  0.49979180  0.45856180  1  0  0.100525  0  3.635015  0  0  0.070719  0  3.888377  0  0  0.073288  0  3.906639  0  0  0.065341  0.068595  0  3.876548  0
C  C68  1  0.43582668  0.90747226  0.34168555  1  0  -0.454327  0  3.654489  0  0  -0.532776  0  3.889612  0  0  -0.539857  0  3.892318  0  0  -0.252822  -0.527782  0  3.887565  0
C  C69  1  0.56421252  0.09253182  0.65832512  1  0  -0.454544  0  3.654537  0  0  -0.533003  0  3.889726  0  0  -0.540074  0  3.892431  0  0  -0.252986  -0.528021  0  3.887672  0
C  C70  1  0.62396637  0.91008103  0.42429284  1  0  0.762811  0  3.82681  0  0  0.720203  0  4.116008  0  0  0.755132  0  4.108506  0  0  0.206951  0.696403  0  4.12026  0
C  C71  1  0.37603162  0.08988776  0.57571051  1  0  0.763731  0  3.825717  0  0  0.720816  0  4.1154  0  0  0.755747  0  4.107889  0  0  0.207204  0.697014  0  4.119663  0
N  N72  1  0.98569341  0.62646326  0.53815487  1  0  -0.293242  0  3.245391  0  0  -0.219943  0  3.511526  0  0  -0.236871  0  3.530723  0  0  -0.310165  -0.20818  0  3.498448  0
N  N73  1  0.01427446  0.37346363  0.46186468  1  0  -0.292617  0  3.244881  0  0  -0.219383  0  3.511146  0  0  -0.236317  0  3.530367  0  0  -0.309851  -0.207622  0  3.498062  0
O  O74  1  0.64018190  0.70411594  0.64431886  1  0  -0.586572  0  2.057233  0  0  -0.51802  0  2.307603  0  0  -0.546315  0  2.300376  0  0  -0.308785  -0.498178  0  2.311825  0
O  O75  1  0.35984560  0.29589136  0.35569090  1  0  -0.58661  0  2.05724  0  0  -0.518058  0  2.307563  0  0  -0.546357  0  2.300348  0  0  -0.308757  -0.49821  0  2.311781  0
O  O76  1  0.05378520  0.97394589  0.71289566  1  0  -0.599748  0  2.045001  0  0  -0.524551  0  2.295801  0  0  -0.554861  0  2.287502  0  0  -0.319398  -0.503238  0  2.300367  0
O  O77  1  0.94625054  0.02606365  0.28710061  1  0  -0.599937  0  2.045089  0  0  -0.524718  0  2.295829  0  0  -0.555028  0  2.287521  0  0  -0.319515  -0.503416  0  2.300422  0
O  O78  1  0.63114578  0.79007108  0.44753641  1  0  -0.645277  0  1.95804  0  0  -0.570879  0  2.194723  0  0  -0.601377  0  2.18474  0  0  -0.324531  -0.549915  0  2.201134  0
O  O79  1  0.36882011  0.20989452  0.55246518  1  0  -0.645637  0  1.957687  0  0  -0.571177  0  2.194619  0  0  -0.601674  0  2.184631  0  0  -0.324638  -0.550229  0  2.201048  0
O  O80  1  0.76314805  0.02982653  0.47097187  1  0  -0.706839  0  1.985289  0  0  -0.633383  0  2.238218  0  0  -0.663307  0  2.224413  0  0  -0.345925  -0.612092  0  2.246923  0
O  O81  1  0.23689636  0.97011647  0.52903843  1  0  -0.707246  0  1.985039  0  0  -0.633682  0  2.238137  0  0  -0.663602  0  2.224317  0  0  -0.345964  -0.612387  0  2.246841  0
