# generated using pymatgen
data_ZnH14C24Br2(NO)2
_symmetry_space_group_name_H-M   'P 1'
_cell_length_a   7.92246788
_cell_length_b   9.83270522
_cell_length_c   13.69506643
_cell_angle_alpha   104.51442389
_cell_angle_beta   89.99996730
_cell_angle_gamma   90.00002632
_symmetry_Int_Tables_number   1
_chemical_formula_structural   ZnH14C24Br2(NO)2
_chemical_formula_sum   'Zn2 H28 C48 Br4 N4 O4'
_cell_volume   1032.78744938
_cell_formula_units_Z   2
loop_
 _symmetry_equiv_pos_site_id
 _symmetry_equiv_pos_as_xyz
  1  'x, y, z'
loop_
 _atom_site_type_symbol
 _atom_site_label
 _atom_site_symmetry_multiplicity
 _atom_site_fract_x
 _atom_site_fract_y
 _atom_site_fract_z
 _atom_site_occupancy
 _atom_site_hle17_bader_spin_density
 _atom_site_hle17_ddec_charge
 _atom_site_hle17_ddec_spin_density
 _atom_site_hle17_ddec_sum_bond_order
 _atom_site_hle17_magmom
 _atom_site_hse06_10hf_bader_spin_density
 _atom_site_hse06_10hf_ddec_charge
 _atom_site_hse06_10hf_ddec_spin_density
 _atom_site_hse06_10hf_ddec_sum_bond_order
 _atom_site_hse06_10hf_magmom
 _atom_site_hse06_bader_spin_density
 _atom_site_hse06_ddec_charge
 _atom_site_hse06_ddec_spin_density
 _atom_site_hse06_ddec_sum_bond_order
 _atom_site_hse06_magmom
 _atom_site_pbe_bader_spin_density
 _atom_site_pbe_cm5_charge
 _atom_site_pbe_ddec_charge
 _atom_site_pbe_ddec_spin_density
 _atom_site_pbe_ddec_sum_bond_order
 _atom_site_pbe_magmom
Zn  Zn0  1  0.55004699  0.24999793  0.25000010  1  0  0.750884  0  2.202374  0  0  0.576781  0  2.69081  0  0  0.619119  0  2.645768  0  0  0.512109  0.547474  0  2.72184  0
Zn  Zn1  1  0.44995309  0.75000107  0.74999968  1  0  0.750891  0  2.202384  0  0  0.576794  0  2.690796  0  0  0.619127  0  2.645756  0  0  0.51211  0.54749  0  2.721818  0
H  H2  1  0.80372938  0.46114282  0.23852680  1  0  0.074898  0  0.945179  0  0  0.083137  0  1.012428  0  0  0.084937  0  1.011481  0  0  0.111931  0.082023  0  1.012639  0
H  H3  1  0.80373176  0.03885521  0.26147301  1  0  0.074899  0  0.94517  0  0  0.083137  0  1.012417  0  0  0.084935  0  1.011478  0  0  0.111935  0.082024  0  1.012631  0
H  H4  1  0.19627069  0.53885620  0.76147226  1  0  0.074949  0  0.945068  0  0  0.083174  0  1.012325  0  0  0.084974  0  1.01138  0  0  0.111944  0.082063  0  1.012545  0
H  H5  1  0.19627085  0.96114589  0.73852718  1  0  0.074928  0  0.945153  0  0  0.083159  0  1.012398  0  0  0.084958  0  1.011457  0  0  0.111944  0.082048  0  1.012613  0
H  H6  1  0.05859926  0.48515264  0.13681950  1  0  0.126304  0  0.965513  0  0  0.133883  0  1.028677  0  0  0.137226  0  1.027342  0  0  0.110852  0.131503  0  1.029624  0
H  H7  1  0.05859898  0.01484629  0.36318071  1  0  0.126306  0  0.965499  0  0  0.133912  0  1.02864  0  0  0.137257  0  1.027302  0  0  0.110855  0.131532  0  1.029588  0
H  H8  1  0.94140082  0.51484638  0.86317956  1  0  0.126303  0  0.965511  0  0  0.133905  0  1.028654  0  0  0.137248  0  1.027318  0  0  0.110852  0.131527  0  1.029601  0
H  H9  1  0.94140110  0.98515587  0.63681968  1  0  0.126302  0  0.965482  0  0  0.133919  0  1.028613  0  0  0.137264  0  1.027274  0  0  0.110851  0.13154  0  1.029564  0
H  H10  1  0.91846966  0.08996540  0.93138670  1  0  0.112842  0  0.945122  0  0  0.122746  0  1.005023  0  0  0.125855  0  1.004531  0  0  0.105272  0.120571  0  1.005445  0
H  H11  1  0.91846996  0.41003497  0.56861189  1  0  0.112847  0  0.945108  0  0  0.122751  0  1.005008  0  0  0.125861  0  1.004516  0  0  0.105281  0.120573  0  1.005433  0
H  H12  1  0.08152916  0.91003468  0.06861256  1  0  0.112832  0  0.94513  0  0  0.122741  0  1.005023  0  0  0.125851  0  1.004532  0  0  0.105269  0.120565  0  1.005442  0
H  H13  1  0.08153012  0.58996613  0.43138830  1  0  0.11276  0  0.945157  0  0  0.122686  0  1.005045  0  0  0.125781  0  1.004567  0  0  0.105255  0.120511  0  1.005464  0
H  H14  1  0.67277143  0.08070981  0.04272154  1  0  0.079561  0  0.960219  0  0  0.083363  0  1.033589  0  0  0.086562  0  1.03072  0  0  0.104475  0.081453  0  1.034777  0
H  H15  1  0.67277133  0.41928926  0.45727778  1  0  0.079519  0  0.960286  0  0  0.083358  0  1.033621  0  0  0.086557  0  1.030752  0  0  0.104465  0.081447  0  1.034808  0
H  H16  1  0.32722739  0.91928918  0.95727898  1  0  0.079533  0  0.960266  0  0  0.083364  0  1.033612  0  0  0.086562  0  1.030745  0  0  0.104473  0.081456  0  1.034789  0
H  H17  1  0.32722749  0.58071186  0.54272168  1  0  0.079515  0  0.960325  0  0  0.083354  0  1.033663  0  0  0.086554  0  1.030792  0  0  0.104459  0.081441  0  1.03485  0
H  H18  1  0.31869117  0.36827597  0.10096654  1  0  0.094787  0  0.981443  0  0  0.099938  0  1.055229  0  0  0.103601  0  1.05297  0  0  0.092937  0.097522  0  1.056682  0
H  H19  1  0.31869346  0.13172513  0.39903327  1  0  0.094788  0  0.981451  0  0  0.099936  0  1.055239  0  0  0.103595  0  1.05299  0  0  0.09292  0.097516  0  1.056695  0
H  H20  1  0.68130765  0.63172197  0.89903378  1  0  0.094734  0  0.981506  0  0  0.099866  0  1.055325  0  0  0.103533  0  1.053051  0  0  0.092891  0.097449  0  1.056779  0
H  H21  1  0.68130788  0.86827913  0.60096751  1  0  0.094797  0  0.981433  0  0  0.099929  0  1.055238  0  0  0.103593  0  1.052975  0  0  0.092914  0.09751  0  1.056695  0
H  H22  1  0.58452758  0.36839236  0.00295579  1  0  0.098844  0  0.966106  0  0  0.106645  0  1.029307  0  0  0.109406  0  1.028639  0  0  0.103778  0.104585  0  1.03003  0
H  H23  1  0.58452850  0.13160879  0.49704395  1  0  0.098852  0  0.966098  0  0  0.106675  0  1.029269  0  0  0.109438  0  1.028604  0  0  0.103795  0.10461  0  1.029994  0
H  H24  1  0.41547376  0.63160451  0.99704505  1  0  0.098867  0  0.96611  0  0  0.106664  0  1.029312  0  0  0.109424  0  1.028645  0  0  0.103782  0.104598  0  1.030038  0
H  H25  1  0.41547284  0.86839442  0.50295664  1  0  0.098864  0  0.966097  0  0  0.10667  0  1.029289  0  0  0.10943  0  1.028621  0  0  0.103791  0.104607  0  1.030011  0
H  H26  1  0.04288401  0.23166704  0.82228897  1  0  0.114371  0  0.964828  0  0  0.120821  0  1.032796  0  0  0.125106  0  1.029311  0  0  0.106135  0.117695  0  1.035381  0
H  H27  1  0.04288284  0.26833207  0.67771112  1  0  0.114383  0  0.964798  0  0  0.120828  0  1.032774  0  0  0.125113  0  1.029287  0  0  0.106134  0.117698  0  1.035362  0
H  H28  1  0.95711607  0.76833302  0.17771102  1  0  0.114374  0  0.964809  0  0  0.120824  0  1.032775  0  0  0.125108  0  1.02929  0  0  0.106141  0.117695  0  1.035362  0
H  H29  1  0.95711472  0.73166692  0.32228940  1  0  0.114377  0  0.964828  0  0  0.120828  0  1.032795  0  0  0.125113  0  1.029308  0  0  0.106138  0.1177  0  1.035382  0
C  C30  1  0.83576108  0.38074192  0.17033815  1  0  0.130713  0  3.699029  0  0  0.099041  0  3.947517  0  0  0.106373  0  3.96626  0  0  0.043639  0.093987  0  3.935021  0
C  C31  1  0.83576217  0.11925717  0.32966185  1  0  0.130732  0  3.699009  0  0  0.099064  0  3.947499  0  0  0.106396  0  3.96624  0  0  0.043625  0.09401  0  3.935009  0
C  C32  1  0.16423900  0.61925814  0.82966184  1  0  0.130685  0  3.698966  0  0  0.099026  0  3.947444  0  0  0.106357  0  3.966186  0  0  0.043628  0.093964  0  3.934963  0
C  C33  1  0.16423917  0.88074393  0.67033834  1  0  0.130701  0  3.698993  0  0  0.099043  0  3.94747  0  0  0.106374  0  3.966213  0  0  0.043608  0.093981  0  3.934983  0
C  C34  1  0.97724733  0.39320375  0.11377140  1  0  -0.145705  0  3.666962  0  0  -0.162004  0  3.908702  0  0  -0.169669  0  3.929531  0  0  -0.074242  -0.157249  0  3.894916  0
C  C35  1  0.97724835  0.10679536  0.38622929  1  0  -0.145706  0  3.666939  0  0  -0.162026  0  3.908662  0  0  -0.169689  0  3.929486  0  0  -0.074242  -0.157274  0  3.894878  0
C  C36  1  0.02275275  0.60679526  0.88622839  1  0  -0.145689  0  3.666936  0  0  -0.161997  0  3.90865  0  0  -0.169664  0  3.929481  0  0  -0.074234  -0.157243  0  3.894872  0
C  C37  1  0.02275173  0.89320573  0.61377163  1  0  -0.145681  0  3.666936  0  0  -0.16201  0  3.908642  0  0  -0.169675  0  3.92947  0  0  -0.074215  -0.157254  0  3.89486  0
C  C38  1  0.01222986  0.28749287  0.02601910  1  0  0.120952  0  3.724082  0  0  0.132311  0  3.952178  0  0  0.137346  0  3.972634  0  0  0.024068  0.129036  0  3.938202  0
C  C39  1  0.01223086  0.21250608  0.47397967  1  0  0.120913  0  3.724128  0  0  0.132271  0  3.952216  0  0  0.137304  0  3.972673  0  0  0.024056  0.128996  0  3.938238  0
C  C40  1  0.98776896  0.71250615  0.97397996  1  0  0.120915  0  3.724106  0  0  0.132267  0  3.952219  0  0  0.1373  0  3.972677  0  0  0.024049  0.128988  0  3.938247  0
C  C41  1  0.98776922  0.78749503  0.52602051  1  0  0.120862  0  3.724116  0  0  0.132232  0  3.952217  0  0  0.137265  0  3.972671  0  0  0.024041  0.128953  0  3.938245  0
C  C42  1  0.89938595  0.17431508  0.99918571  1  0  -0.135858  0  3.682123  0  0  -0.155137  0  3.9282  0  0  -0.162262  0  3.948283  0  0  -0.07564  -0.150706  0  3.914744  0
C  C43  1  0.89938626  0.32568527  0.50081361  1  0  -0.135807  0  3.682088  0  0  -0.155095  0  3.928182  0  0  -0.16222  0  3.948266  0  0  -0.075631  -0.150662  0  3.914725  0
C  C44  1  0.10061287  0.82568393  0.00081407  1  0  -0.135831  0  3.682086  0  0  -0.15512  0  3.928182  0  0  -0.162246  0  3.948265  0  0  -0.07564  -0.150684  0  3.914721  0
C  C45  1  0.10061382  0.67431689  0.49918678  1  0  -0.135707  0  3.682079  0  0  -0.155008  0  3.928158  0  0  -0.162119  0  3.948245  0  0  -0.075605  -0.150578  0  3.914702  0
C  C46  1  0.76177781  0.16815162  0.06074266  1  0  0.124153  0  3.699115  0  0  0.092824  0  3.949235  0  0  0.09996  0  3.966753  0  0  0.043415  0.088612  0  3.93616  0
C  C47  1  0.76177766  0.33184748  0.43925663  1  0  0.124153  0  3.699162  0  0  0.092793  0  3.949278  0  0  0.099928  0  3.9668  0  0  0.043397  0.088587  0  3.936199  0
C  C48  1  0.23822101  0.83184844  0.93925733  1  0  0.124152  0  3.699133  0  0  0.092792  0  3.949256  0  0  0.099928  0  3.966775  0  0  0.043387  0.088581  0  3.936176  0
C  C49  1  0.23822116  0.66815260  0.56074263  1  0  0.124173  0  3.69921  0  0  0.092811  0  3.949327  0  0  0.099946  0  3.966844  0  0  0.043407  0.088604  0  3.936253  0
C  C50  1  0.16564873  0.29547668  0.96681373  1  0  0.071732  0  3.744495  0  0  0.085868  0  3.977132  0  0  0.087001  0  3.999748  0  0  0.005057  0.085798  0  3.959773  0
C  C51  1  0.16564893  0.20452353  0.53318507  1  0  0.071743  0  3.74441  0  0  0.085898  0  3.97701  0  0  0.087034  0  3.999623  0  0  0.005073  0.085827  0  3.959644  0
C  C52  1  0.83435135  0.70452233  0.03318606  1  0  0.071674  0  3.744374  0  0  0.085801  0  3.977015  0  0  0.086935  0  3.999633  0  0  0.005025  0.085731  0  3.959657  0
C  C53  1  0.83435115  0.79547654  0.46681419  1  0  0.071772  0  3.744398  0  0  0.085874  0  3.977067  0  0  0.087009  0  3.999685  0  0  0.00504  0.085808  0  3.959702  0
C  C54  1  0.31697962  0.33930676  0.01869923  1  0  -0.095163  0  3.699134  0  0  -0.117605  0  3.951231  0  0  -0.121049  0  3.970273  0  0  -0.082365  -0.115284  0  3.93813  0
C  C55  1  0.31698058  0.16069435  0.48129985  1  0  -0.095178  0  3.699062  0  0  -0.117633  0  3.95117  0  0  -0.121077  0  3.970209  0  0  -0.082363  -0.115317  0  3.93807  0
C  C56  1  0.68302046  0.66069119  0.98130036  1  0  -0.095014  0  3.69911  0  0  -0.117445  0  3.951197  0  0  -0.120884  0  3.970243  0  0  -0.082278  -0.11513  0  3.938099  0
C  C57  1  0.68301824  0.83930887  0.51870000  1  0  -0.095158  0  3.69906  0  0  -0.117578  0  3.951169  0  0  -0.121021  0  3.970212  0  0  -0.082306  -0.115258  0  3.93807  0
C  C58  1  0.46467931  0.33994480  0.96467694  1  0  -0.039158  0  3.718575  0  0  -0.061995  0  3.969614  0  0  -0.060893  0  3.989586  0  0  -0.073333  -0.062043  0  3.95616  0
C  C59  1  0.46468074  0.16005654  0.53532125  1  0  -0.039122  0  3.718469  0  0  -0.061977  0  3.969507  0  0  -0.06088  0  3.989485  0  0  -0.073351  -0.062015  0  3.95604  0
C  C60  1  0.53532077  0.66005106  0.03532225  1  0  -0.03924  0  3.718615  0  0  -0.062068  0  3.969634  0  0  -0.06097  0  3.989607  0  0  -0.073336  -0.062108  0  3.95617  0
C  C61  1  0.53531934  0.83994564  0.46467768  1  0  -0.039185  0  3.718594  0  0  -0.062027  0  3.969623  0  0  -0.060927  0  3.989596  0  0  -0.073368  -0.062075  0  3.956163  0
C  C62  1  0.46431078  0.30090289  0.85913518  1  0  -0.069282  0  3.764441  0  0  -0.059559  0  4.000477  0  0  -0.067719  0  4.025043  0  0  -0.022463  -0.054423  0  3.98412  0
C  C63  1  0.46431338  0.19909947  0.64086466  1  0  -0.069344  0  3.764353  0  0  -0.059648  0  4.000377  0  0  -0.067806  0  4.024943  0  0  -0.022463  -0.054508  0  3.984008  0
C  C64  1  0.53568930  0.69909505  0.14086513  1  0  -0.069303  0  3.764368  0  0  -0.059586  0  4.000388  0  0  -0.067744  0  4.024955  0  0  -0.022472  -0.054442  0  3.984015  0
C  C65  1  0.53568670  0.80090269  0.35913573  1  0  -0.069337  0  3.764418  0  0  -0.0596  0  4.000437  0  0  -0.067759  0  4.025002  0  0  -0.022476  -0.05446  0  3.984071  0
C  C66  1  0.31095580  0.26543374  0.80551644  1  0  0.037737  0  3.775647  0  0  0.043183  0  4.017999  0  0  0.044445  0  4.042855  0  0  -0.002328  0.042651  0  4.000753  0
C  C67  1  0.31095711  0.23456754  0.69448324  1  0  0.037756  0  3.77567  0  0  0.043187  0  4.018032  0  0  0.044447  0  4.042889  0  0  -0.002336  0.042647  0  4.000782  0
C  C68  1  0.68904428  0.73456525  0.19448407  1  0  0.037766  0  3.775767  0  0  0.043196  0  4.018126  0  0  0.044457  0  4.042984  0  0  -0.002311  0.04266  0  4.000877  0
C  C69  1  0.68904423  0.76543251  0.30551748  1  0  0.037754  0  3.775625  0  0  0.04319  0  4.017976  0  0  0.044451  0  4.042832  0  0  -0.002326  0.042657  0  4.000725  0
C  C70  1  0.16329093  0.25984731  0.86080610  1  0  -0.149045  0  3.662701  0  0  -0.176252  0  3.913776  0  0  -0.180955  0  3.933514  0  0  -0.08258  -0.172021  0  3.898071  0
C  C71  1  0.16329230  0.24015288  0.63919342  1  0  -0.149048  0  3.662677  0  0  -0.176248  0  3.913733  0  0  -0.180951  0  3.933471  0  0  -0.08256  -0.172007  0  3.898021  0
C  C72  1  0.83670789  0.74015273  0.13919461  1  0  -0.149038  0  3.66274  0  0  -0.17623  0  3.91381  0  0  -0.180935  0  3.933549  0  0  -0.082593  -0.171997  0  3.898103  0
C  C73  1  0.83670904  0.75984717  0.36080656  1  0  -0.149053  0  3.662681  0  0  -0.176246  0  3.913759  0  0  -0.180951  0  3.933497  0  0  -0.082566  -0.172013  0  3.898051  0
C  C74  1  0.62755791  0.28825852  0.80631462  1  0  0.322327  0  3.727619  0  0  0.302719  0  3.99249  0  0  0.322821  0  3.990837  0  0  0.147784  0.288664  0  3.994015  0
C  C75  1  0.62756426  0.21173969  0.69368365  1  0  0.322073  0  3.728043  0  0  0.302586  0  3.992771  0  0  0.322682  0  3.991119  0  0  0.147685  0.288533  0  3.994296  0
C  C76  1  0.37243585  0.71173842  0.19368332  1  0  0.322111  0  3.727926  0  0  0.302551  0  3.992761  0  0  0.322648  0  3.991108  0  0  0.14768  0.288497  0  3.994282  0
C  C77  1  0.37244213  0.78825935  0.30631468  1  0  0.322305  0  3.727612  0  0  0.302717  0  3.992492  0  0  0.32282  0  3.990839  0  0  0.147771  0.28866  0  3.994017  0
Br  Br78  1  0.39244841  0.45624530  0.31706596  1  0  -0.503279  0  0.998337  0  0  -0.442062  0  1.29314  0  0  -0.463329  0  1.272547  0  0  -0.260166  -0.429466  0  1.308074  0
Br  Br79  1  0.39246096  0.04374307  0.18293799  1  0  -0.503287  0  0.99839  0  0  -0.442071  0  1.293198  0  0  -0.463339  0  1.27261  0  0  -0.260145  -0.429475  0  1.308132  0
Br  Br80  1  0.60755167  0.54375475  0.68293403  1  0  -0.503284  0  0.998363  0  0  -0.442066  0  1.293161  0  0  -0.463333  0  1.272567  0  0  -0.260166  -0.429468  0  1.308097  0
Br  Br81  1  0.60753912  0.95625699  0.81706200  1  0  -0.50329  0  0.998393  0  0  -0.442075  0  1.293193  0  0  -0.463343  0  1.272604  0  0  -0.260145  -0.429477  0  1.308125  0
N  N82  1  0.73046053  0.26959110  0.14533213  1  0  -0.322946  0  3.347107  0  0  -0.233944  0  3.611522  0  0  -0.253849  0  3.629117  0  0  -0.338215  -0.220398  0  3.599095  0
N  N83  1  0.73046167  0.23040693  0.35466697  1  0  -0.322965  0  3.347137  0  0  -0.233976  0  3.611566  0  0  -0.253879  0  3.629161  0  0  -0.338209  -0.220429  0  3.599134  0
N  N84  1  0.26953955  0.73040790  0.85466766  1  0  -0.322938  0  3.347164  0  0  -0.233935  0  3.611573  0  0  -0.253838  0  3.629167  0  0  -0.338182  -0.22039  0  3.599146  0
N  N85  1  0.26953841  0.76959312  0.64533301  1  0  -0.322978  0  3.347127  0  0  -0.233987  0  3.61155  0  0  -0.25389  0  3.629145  0  0  -0.338199  -0.220437  0  3.599115  0
O  O86  1  0.76201348  0.32983106  0.84869716  1  0  -0.424182  0  1.997669  0  0  -0.3863  0  2.221596  0  0  -0.400457  0  2.218301  0  0  -0.244069  -0.376234  0  2.223989  0
O  O87  1  0.76200848  0.17017028  0.65130385  1  0  -0.42399  0  1.998079  0  0  -0.386119  0  2.221912  0  0  -0.400274  0  2.218621  0  0  -0.243965  -0.376056  0  2.224304  0
O  O88  1  0.23799164  0.67017003  0.15130375  1  0  -0.423986  0  1.998072  0  0  -0.386084  0  2.221937  0  0  -0.400238  0  2.218644  0  0  -0.243947  -0.376023  0  2.224327  0
O  O89  1  0.23798528  0.82983184  0.34869799  1  0  -0.424191  0  1.997667  0  0  -0.386322  0  2.221595  0  0  -0.400481  0  2.218306  0  0  -0.244089  -0.376254  0  2.223986  0
