# generated using pymatgen
data_FeCu2H38C31N14O3
_symmetry_space_group_name_H-M   'P 1'
_cell_length_a   9.32434426
_cell_length_b   10.77298129
_cell_length_c   19.60205986
_cell_angle_alpha   90.00000003
_cell_angle_beta   89.99927104
_cell_angle_gamma   98.37466842
_symmetry_Int_Tables_number   1
_chemical_formula_structural   FeCu2H38C31N14O3
_chemical_formula_sum   'Fe2 Cu4 H76 C62 N28 O6'
_cell_volume   1948.04995639
_cell_formula_units_Z   2
loop_
 _symmetry_equiv_pos_site_id
 _symmetry_equiv_pos_as_xyz
  1  'x, y, z'
loop_
 _atom_site_type_symbol
 _atom_site_label
 _atom_site_symmetry_multiplicity
 _atom_site_fract_x
 _atom_site_fract_y
 _atom_site_fract_z
 _atom_site_occupancy
 _atom_site_pbe_bader_charge
 _atom_site_pbe_bader_spin_density
 _atom_site_pbe_cm5_charge
 _atom_site_pbe_ddec_charge
 _atom_site_pbe_ddec_spin_density
 _atom_site_pbe_ddec_sum_bond_order
 _atom_site_pbe_magmom
Fe  Fe0  1  0.02363318  0.25524755  0.81671512  1  0.982608  5.9e-05  0.678403  0.169791  8e-05  5.164228  0.0
Fe  Fe1  1  0.97638107  0.74475054  0.31671835  1  0.982707  5.9e-05  0.678273  0.169464  8.1e-05  5.164627  0.0
Cu  Cu2  1  0.07029977  0.78964920  0.87731934  1  1.030391  0.275346  0.733171  0.705486  0.338097  2.437018  0.275
Cu  Cu3  1  0.92969745  0.21035258  0.37732079  1  1.030472  0.275362  0.733141  0.705483  0.338109  2.436886  0.275
Cu  Cu4  1  0.93882556  0.70014456  0.73363435  1  1.046936  -0.27326  0.753261  0.730072  -0.336643  2.431549  -0.273
Cu  Cu5  1  0.06116803  0.29986346  0.23362986  1  1.047192  -0.273245  0.753165  0.730131  -0.336623  2.43127  -0.273
H  H6  1  0.40728635  0.69854408  0.65074927  1  0.073249  -0.000372  0.108392  0.146252  -0.000171  1.018436  0.0
H  H7  1  0.59271770  0.30144442  0.15074206  1  0.073156  -0.000372  0.108405  0.146294  -0.000171  1.018183  0.0
H  H8  1  0.61064297  0.80970220  0.95705421  1  0.071856  0.000358  0.109035  0.149052  0.000164  1.013455  0.0
H  H9  1  0.38936415  0.19030669  0.45705130  1  0.071911  0.000357  0.109058  0.149066  0.000164  1.01348  0.0
H  H10  1  0.32253919  0.75935017  0.05180329  1  0.081671  -0.000131  0.106684  0.15946  -5.7e-05  0.959901  0.0
H  H11  1  0.67746294  0.24065471  0.55179965  1  0.081768  -0.000133  0.10664  0.159371  -5.8e-05  0.959888  0.0
H  H12  1  0.37595662  0.62648140  0.01118647  1  0.034974  -6.6e-05  0.092397  0.129415  -2.5e-05  1.000011  0.0
H  H13  1  0.62404611  0.37352080  0.51118469  1  0.034946  -6.7e-05  0.09239  0.129407  -2.6e-05  0.999992  0.0
H  H14  1  0.19984475  0.66663425  0.99685128  1  0.072013  -8.7e-05  0.093752  0.124343  -5.4e-05  1.062909  0.0
H  H15  1  0.80015616  0.33336985  0.49684689  1  0.072554  -8.8e-05  0.093738  0.124308  -5.5e-05  1.062919  0.0
H  H16  1  0.77838274  0.88694988  0.63363004  1  0.084069  0.000162  0.099508  0.142553  9.6e-05  1.032594  0.0
H  H17  1  0.22161131  0.11305194  0.13362661  1  0.083963  0.000163  0.099568  0.142612  9.6e-05  1.032548  0.0
H  H18  1  0.61956256  0.84338044  0.58407910  1  0.033439  -1e-06  0.097051  0.142633  -1e-05  0.982833  0.0
H  H19  1  0.38043237  0.15661311  0.08407521  1  0.033518  1e-06  0.097011  0.14258  -9e-06  0.982879  0.0
H  H20  1  0.77140361  0.76312562  0.57332313  1  0.038275  4.5e-05  0.093751  0.135222  2e-05  1.02033  0.0
H  H21  1  0.22859692  0.23687354  0.07331712  1  0.038218  4.7e-05  0.09374  0.135191  2.1e-05  1.020432  0.0
H  H22  1  0.63527898  0.05435279  0.81967519  1  0.059162  -0.0001  0.101491  0.155826  -5.4e-05  1.006368  0.0
H  H23  1  0.36472213  0.94565011  0.31967756  1  0.059125  -0.0001  0.101504  0.155815  -5.4e-05  1.006401  0.0
H  H24  1  0.63004571  0.91402653  0.77166293  1  0.050863  -9.6e-05  0.096248  0.140821  -3.9e-05  1.006345  0.0
H  H25  1  0.36995196  0.08596814  0.27166165  1  0.050904  -9.5e-05  0.096225  0.140795  -3.9e-05  1.006418  0.0
H  H26  1  0.74024887  0.93838384  0.84546504  1  0.102118  0.000119  0.102243  0.163386  6.6e-05  0.994903  0.0
H  H27  1  0.25975671  0.06161799  0.34546495  1  0.102148  0.000119  0.102219  0.163355  6.6e-05  0.99493  0.0
H  H28  1  0.36666125  0.44260955  0.78121679  1  0.08547  0.000115  0.097545  0.145375  6.2e-05  1.022422  0.0
H  H29  1  0.63334387  0.55738030  0.28120833  1  0.085646  0.000115  0.09754  0.145328  6.2e-05  1.022552  0.0
H  H30  1  0.26888710  0.56630796  0.75955407  1  0.104438  -0.000122  0.10252  0.162533  -6.5e-05  1.000241  0.0
H  H31  1  0.73111399  0.43368014  0.25954245  1  0.105178  -0.000121  0.102616  0.162664  -6.5e-05  1.000217  0.0
H  H32  1  0.37875904  0.57947734  0.83374849  1  0.024344  0.0001  0.092305  0.128406  3.7e-05  1.015127  0.0
H  H33  1  0.62123913  0.42051144  0.33373754  1  0.024657  9.9e-05  0.092327  0.128475  3.7e-05  1.015116  0.0
H  H34  1  0.69663368  0.69615273  0.88174911  1  0.043054  -0.000854  0.09708  0.033122  -0.000442  1.012087  -0.001
H  H35  1  0.30336433  0.30384808  0.38174519  1  0.04294  -0.000855  0.09711  0.033254  -0.000443  1.011925  -0.001
H  H36  1  0.73877924  0.49660961  0.94702987  1  0.084368  -0.000575  0.1228  0.118243  -0.000269  0.980511  0.0
H  H37  1  0.26121981  0.50339471  0.44702418  1  0.084453  -0.000576  0.122792  0.11818  -0.000269  0.980644  0.0
H  H38  1  0.91488087  0.51684081  0.91065101  1  0.075898  -0.000155  0.113644  0.099385  -8.7e-05  0.988408  0.0
H  H39  1  0.08511968  0.48316645  0.41064588  1  0.075793  -0.000155  0.113618  0.099381  -8.7e-05  0.988473  0.0
H  H40  1  0.40379926  0.00916851  0.76767422  1  0.112645  -0.000916  0.128001  0.127182  -0.000438  0.967402  -0.001
H  H41  1  0.59620499  0.99082047  0.26767926  1  0.113237  -0.000916  0.127975  0.127103  -0.000438  0.967408  -0.001
H  H42  1  0.24255127  0.01519264  0.81457539  1  0.141378  4.2e-05  0.11745  0.114492  3.2e-05  1.016756  0.0
H  H43  1  0.75745572  0.98480647  0.31457844  1  0.141455  4.2e-05  0.117494  0.114487  3.2e-05  1.01674  0.0
H  H44  1  0.17997500  0.94873776  0.98916899  1  0.080779  -3.1e-05  0.092866  0.13234  -7e-06  1.034812  0.0
H  H45  1  0.82002431  0.05126827  0.48917059  1  0.080817  -3.2e-05  0.092848  0.1323  -8e-06  1.03486  0.0
H  H46  1  0.15431569  0.94080113  0.08015848  1  0.087779  -0.000112  0.094404  0.142913  -5.2e-05  1.042645  0.0
H  H47  1  0.84569013  0.05920454  0.58016044  1  0.087645  -0.000114  0.094418  0.142926  -5.3e-05  1.042568  0.0
H  H48  1  0.04547444  0.02471253  0.02794590  1  0.03038  -0.000155  0.093409  0.139311  -6.8e-05  1.005399  0.0
H  H49  1  0.95453258  0.97529803  0.52794317  1  0.030403  -0.000156  0.093408  0.139307  -6.9e-05  1.00532  0.0
H  H50  1  0.88110338  0.80196884  0.12536988  1  0.145766  0.000359  0.109432  0.156906  0.000171  1.037346  0.0
H  H51  1  0.11889794  0.19804234  0.62536555  1  0.145387  0.000358  0.109345  0.156742  0.00017  1.037309  0.0
H  H52  1  0.30711199  0.79974183  0.72350366  1  0.028483  0.001309  0.096861  0.03214  0.000663  1.014557  0.001
H  H53  1  0.69288891  0.20025769  0.22350910  1  0.028448  0.001308  0.096893  0.032205  0.000663  1.01468  0.001
H  H54  1  0.07536748  0.97085607  0.70251321  1  0.092355  0.00018  0.121115  0.119635  0.0001  0.983727  0.0
H  H55  1  0.92462812  0.02914077  0.20250907  1  0.092448  0.000181  0.121112  0.119668  0.0001  0.983618  0.0
H  H56  1  0.24987303  0.00173604  0.66447277  1  0.085778  0.000447  0.123165  0.12167  0.000206  0.983578  0.0
H  H57  1  0.75011803  0.99826569  0.16447434  1  0.085781  0.000448  0.123272  0.121834  0.000206  0.983524  0.0
H  H58  1  0.24344965  0.02885017  0.53666429  1  0.074507  0.000121  0.095201  0.135178  5.9e-05  1.026318  0.0
H  H59  1  0.75655998  0.97114059  0.03666428  1  0.074652  0.000122  0.095131  0.135099  6e-05  1.026345  0.0
H  H60  1  0.30552698  0.91392320  0.48307333  1  0.097652  -0.000172  0.104799  0.163392  -8.9e-05  0.989369  0.0
H  H61  1  0.69447287  0.08606122  0.98307161  1  0.097645  -0.000171  0.104807  0.163393  -8.9e-05  0.989322  0.0
H  H62  1  0.38756746  0.95021461  0.56401661  1  0.062837  0.000148  0.097024  0.134488  7e-05  0.994651  0.0
H  H63  1  0.61243382  0.04976955  0.06401590  1  0.062708  0.000149  0.097043  0.13449  7.1e-05  0.994704  0.0
H  H64  1  0.12554706  0.69593170  0.48465482  1  0.086833  -0.000398  0.103013  0.144904  -0.000184  1.059822  0.0
H  H65  1  0.87444678  0.30406124  0.98465050  1  0.086635  -0.000398  0.103091  0.144993  -0.000183  1.059869  0.0
H  H66  1  0.80849658  0.54898289  0.59851322  1  0.0659  8.7e-05  0.097418  0.140975  4e-05  1.005167  0.0
H  H67  1  0.19149008  0.45101444  0.09850336  1  0.065731  8.9e-05  0.097328  0.14087  4e-05  1.005341  0.0
H  H68  1  0.95865635  0.47063770  0.61333213  1  0.100479  0.000153  0.101515  0.159311  6.8e-05  0.999177  0.0
H  H69  1  0.04133312  0.52935954  0.11333186  1  0.100623  0.000154  0.10147  0.159235  6.9e-05  0.999185  0.0
H  H70  1  0.91469171  0.51021912  0.52822488  1  0.029686  2.8e-05  0.087855  0.122123  1e-05  1.038762  0.0
H  H71  1  0.08528627  0.48978515  0.02822128  1  0.029722  2.9e-05  0.087885  0.122222  1.1e-05  1.03871  0.0
H  H72  1  0.76306006  0.47545000  0.79453307  1  0.116412  -1.8e-05  0.120964  0.123146  -2e-05  1.005389  0.0
H  H73  1  0.23694195  0.52454830  0.29452650  1  0.116142  -1.8e-05  0.120967  0.123366  -2e-05  1.004769  0.0
H  H74  1  0.59964881  0.48269309  0.83935845  1  0.094541  0.000964  0.124497  0.121678  0.000458  0.973153  0.001
H  H75  1  0.40034933  0.51730225  0.33935140  1  0.094349  0.000963  0.124489  0.121896  0.000458  0.972416  0.001
H  H76  1  0.74272134  0.47650829  0.07985824  1  0.058348  -0.000125  0.094599  0.136645  -6.2e-05  1.017654  0.0
H  H77  1  0.25727621  0.52350498  0.57984952  1  0.058219  -0.000126  0.094605  0.136716  -6.3e-05  1.017561  0.0
H  H78  1  0.60522648  0.55222730  0.04267481  1  0.007771  -0.000132  0.092952  0.126597  -6.2e-05  1.008704  0.0
H  H79  1  0.39476819  0.44778239  0.54266423  1  0.007762  -0.000133  0.092895  0.126619  -6.2e-05  1.008624  0.0
H  H80  1  0.67513240  0.59989750  0.12459507  1  0.118828  0.00019  0.10515  0.164471  0.0001  0.988913  0.0
H  H81  1  0.32486286  0.40011562  0.62458593  1  0.11905  0.000189  0.105223  0.164613  9.9e-05  0.988884  0.0
C  C82  1  0.00360536  0.40298851  0.76571340  1  0.806962  0.000684  0.032892  0.044986  0.000415  3.790774  0.0
C  C83  1  0.99640296  0.59701078  0.26571804  1  0.806819  0.000685  0.032931  0.045012  0.000416  3.790703  0.0
C  C84  1  0.37047433  0.78294436  0.94473685  1  0.491536  -0.000427  0.095718  0.263288  -6.3e-05  4.05651  0.0
C  C85  1  0.62952372  0.21705997  0.44473604  1  0.491466  -0.000429  0.095722  0.263362  -6.4e-05  4.056477  0.0
C  C86  1  0.49943466  0.67781731  0.68007601  1  0.041863  -0.001359  -0.124274  -0.36256  -0.000887  3.985957  -0.001
C  C87  1  0.50056460  0.32217864  0.18006732  1  0.041636  -0.001357  -0.124142  -0.361499  -0.000886  3.982731  -0.001
C  C88  1  0.64632291  0.71831103  0.66538935  1  0.424559  0.000541  0.096495  0.264205  0.000147  4.059087  0.0
C  C89  1  0.35367923  0.28168682  0.16538206  1  0.424417  0.000541  0.096339  0.264812  0.000148  4.057155  0.0
C  C90  1  0.49528639  0.60633413  0.73949834  1  0.303305  0.000789  0.10825  0.216365  0.000289  3.972611  0.0
C  C91  1  0.50470804  0.39366164  0.23948963  1  0.303566  0.00079  0.108167  0.222491  0.000292  3.974967  0.0
C  C92  1  0.51601616  0.82493276  0.92786828  1  -0.035277  0.001369  -0.126372  -0.3635  0.000883  3.980275  0.001
C  C93  1  0.48399052  0.17507531  0.42786530  1  -0.034585  0.001367  -0.126372  -0.363481  0.000882  3.98037  0.001
C  C94  1  0.01664040  0.09004852  0.85311540  1  0.807874  -0.000782  0.032404  0.042784  -0.000482  3.79903  -0.001
C  C95  1  0.98337359  0.90994755  0.35311859  1  0.808413  -0.000783  0.032474  0.042846  -0.000483  3.799072  -0.001
C  C96  1  0.51516993  0.89109799  0.86683695  1  0.330436  -0.000575  0.107748  0.224462  -0.000156  3.983127  0.0
C  C97  1  0.48483040  0.10890756  0.36683702  1  0.329583  -0.000576  0.107728  0.224425  -0.000157  3.983167  0.0
C  C98  1  0.31391709  0.70475638  0.00416954  1  -0.062289  0.00014  -0.232565  -0.425211  4.1e-05  3.950839  0.0
C  C99  1  0.68608296  0.29524776  0.50416738  1  -0.0629  0.000138  -0.232513  -0.425105  4e-05  3.950793  0.0
C  C100  1  0.70774717  0.80703465  0.61106630  1  -0.01812  -0.000111  -0.235044  -0.438321  -3.2e-05  3.956761  0.0
C  C101  1  0.29225143  0.19296533  0.11106244  1  -0.018183  -0.000109  -0.235053  -0.438316  -3.1e-05  3.95697  0.0
C  C102  1  0.63577960  0.95271048  0.82364775  1  -0.014084  0.000307  -0.23662  -0.446586  0.000189  3.949362  0.0
C  C103  1  0.36422337  0.04729145  0.32364855  1  -0.01408  0.000307  -0.236603  -0.44653  0.000189  3.949424  0.0
C  C104  1  0.37121513  0.54513865  0.78079693  1  -0.030455  -0.000337  -0.237457  -0.445029  -0.000209  3.957136  0.0
C  C105  1  0.62878431  0.45484938  0.28078696  1  -0.031482  -0.000337  -0.237575  -0.444785  -0.000209  3.955782  0.0
C  C106  1  0.77315894  0.63379338  0.86397370  1  0.516643  -0.000268  -0.011141  0.194445  -0.000229  3.924495  0.0
C  C107  1  0.22683740  0.36620753  0.36396821  1  0.517337  -0.000267  -0.011141  0.194647  -0.000229  3.923458  0.0
C  C108  1  0.82505070  0.56628236  0.92620170  1  0.305052  -0.000718  -0.050917  -0.154445  -0.000583  3.889292  0.0
C  C109  1  0.17494959  0.43372578  0.42619550  1  0.304632  -0.000719  -0.05095  -0.154405  -0.000584  3.889337  0.0
C  C110  1  0.83570326  0.26152367  0.85577028  1  0.767135  -3.6e-05  0.015686  -0.005242  -3.2e-05  3.851976  0.0
C  C111  1  0.16430851  0.73847241  0.35577284  1  0.767108  -3.7e-05  0.015786  -0.00503  -3.2e-05  3.851625  0.0
C  C112  1  0.99338654  0.82493072  0.02429751  1  0.404053  -0.000847  0.106091  0.286106  -0.000425  4.007544  0.0
C  C113  1  0.00661133  0.17507618  0.52429488  1  0.402943  -0.000849  0.106181  0.28631  -0.000427  4.007317  0.0
C  C114  1  0.31370776  0.95214336  0.79400032  1  0.251799  -0.000638  -0.051381  -0.156195  -0.000557  3.864577  0.0
C  C115  1  0.68630124  0.04785205  0.29399967  1  0.251009  -0.000642  -0.051363  -0.156036  -0.000559  3.864412  0.0
C  C116  1  0.10019995  0.94103938  0.03045825  1  -0.034956  0.000173  -0.242343  -0.439512  7.7e-05  3.938368  0.0
C  C117  1  0.89980096  0.05896747  0.53045835  1  -0.03478  0.000171  -0.242326  -0.439501  7.6e-05  3.938213  0.0
C  C118  1  0.89422068  0.77021585  0.07364619  1  0.036134  0.001495  -0.117833  -0.343981  0.000984  3.932096  0.001
C  C119  1  0.10577631  0.22979933  0.57364246  1  0.036624  0.001493  -0.117897  -0.344138  0.000983  3.932164  0.001
C  C120  1  0.81803918  0.66309447  0.04410769  1  0.299439  -0.000588  0.101111  0.20748  -0.000137  3.98972  0.0
C  C121  1  0.18195433  0.33692086  0.54410146  1  0.300066  -0.00059  0.101194  0.207695  -0.000138  3.989923  0.0
C  C122  1  0.22984190  0.85838289  0.74451139  1  0.526982  0.00015  -0.010535  0.196238  0.00015  3.926464  0.0
C  C123  1  0.77015898  0.14161373  0.24451023  1  0.526968  0.000152  -0.010615  0.196077  0.000151  3.926783  0.0
C  C124  1  0.16864313  0.92745846  0.68513057  1  0.320511  8.7e-05  -0.051498  -0.163014  0.000157  3.856153  0.0
C  C125  1  0.83135098  0.07253940  0.18512700  1  0.320306  8.7e-05  -0.051681  -0.163379  0.000158  3.856282  0.0
C  C126  1  0.01545040  0.66467799  0.58624907  1  0.485732  0.000863  0.095795  0.2626  0.000374  4.052778  0.0
C  C127  1  0.98454228  0.33532121  0.08624509  1  0.48635  0.000865  0.09577  0.262569  0.000375  4.052801  0.0
C  C128  1  0.17671920  0.83677138  0.56580329  1  0.369036  0.000835  0.103389  0.21361  0.000289  3.987587  0.0
C  C129  1  0.82327786  0.16321939  0.06580283  1  0.368356  0.000837  0.10331  0.213566  0.00029  3.987499  0.0
C  C130  1  0.28411208  0.93799913  0.53606017  1  -0.105572  -0.000417  -0.230811  -0.434004  -0.000249  3.963849  0.0
C  C131  1  0.71589064  0.06198888  0.03605832  1  -0.105718  -0.000415  -0.230722  -0.433892  -0.000248  3.963705  0.0
C  C132  1  0.10802214  0.72614300  0.53629486  1  -0.018973  -0.001529  -0.127347  -0.36549  -0.000988  3.970802  -0.001
C  C133  1  0.89197336  0.27385260  0.03628787  1  -0.018392  -0.001527  -0.12738  -0.365556  -0.000987  3.970668  -0.001
C  C134  1  0.91914868  0.54213075  0.58127949  1  -0.080808  -0.000177  -0.239296  -0.444309  -7.1e-05  3.955027  0.0
C  C135  1  0.08083698  0.45787041  0.08127235  1  -0.080721  -0.000175  -0.239179  -0.444189  -7e-05  3.955076  0.0
C  C136  1  0.91546599  0.16571179  0.74367518  1  0.797717  1.9e-05  0.037971  0.068767  1.8e-05  3.809074  0.0
C  C137  1  0.08454219  0.83428946  0.24367671  1  0.797854  1.9e-05  0.038059  0.068874  1.8e-05  3.809103  0.0
C  C138  1  0.18577520  0.23359927  0.75971246  1  0.785109  3.5e-05  0.01627  -0.004408  3.1e-05  3.858098  0.0
C  C139  1  0.81424206  0.76639525  0.25971923  1  0.785016  3.5e-05  0.01644  -0.004287  3.1e-05  3.857981  0.0
C  C140  1  0.69148911  0.53922530  0.81402665  1  0.313554  0.001002  -0.050867  -0.167305  0.000804  3.8574  0.001
C  C141  1  0.30850701  0.46077298  0.31402117  1  0.314137  0.001  -0.050879  -0.161019  0.000804  3.861127  0.001
C  C142  1  0.70401473  0.56765291  0.07405948  1  -0.029886  0.000406  -0.231541  -0.430354  0.000247  3.964961  0.0
C  C143  1  0.29598033  0.43235759  0.57405052  1  -0.030123  0.000405  -0.231567  -0.430659  0.000246  3.964826  0.0
N  N144  1  0.99231891  0.49691885  0.73738480  1  -1.33207  0.000198  -0.364  -0.384798  -5.9e-05  3.200458  -0.001
N  N145  1  0.00768307  0.50307684  0.23738627  1  -1.331857  0.000199  -0.364073  -0.384848  -5.9e-05  3.200437  -0.001
N  N146  1  0.37315592  0.88869918  0.85019117  1  -0.809264  0.001718  -0.148162  0.121619  0.00093  3.707889  0.001
N  N147  1  0.62684316  0.11129705  0.35019190  1  -0.809113  0.001718  -0.148203  0.121493  0.00093  3.707792  0.001
N  N148  1  0.01496048  0.98843071  0.87475805  1  -1.325788  -9.2e-05  -0.364618  -0.374702  0.000176  3.216107  0.001
N  N149  1  0.98505540  0.01156714  0.37476323  1  -1.326353  -9.3e-05  -0.364647  -0.374675  0.000176  3.216035  0.001
N  N150  1  0.63576592  0.60321417  0.75696190  1  -0.795609  -0.001812  -0.147512  0.150974  -0.000995  3.677495  -0.001
N  N151  1  0.36423102  0.39678620  0.25695455  1  -0.795712  -0.00181  -0.147459  0.129149  -0.001004  3.708155  -0.001
N  N152  1  0.72907035  0.67072756  0.71246323  1  -0.739324  -0.028651  -0.275268  -0.30359  -0.019024  3.463125  -0.026
N  N153  1  0.27092691  0.32927392  0.21245543  1  -0.739153  -0.028649  -0.275226  -0.297392  -0.019016  3.468179  -0.026
N  N154  1  0.28331195  0.82315892  0.89700489  1  -0.733683  0.027198  -0.27521  -0.304483  0.018038  3.466576  0.025
N  N155  1  0.71668299  0.17683905  0.39700508  1  -0.733658  0.0272  -0.275151  -0.304394  0.01804  3.466578  0.025
N  N156  1  0.12446639  0.32579020  0.87866494  1  0.302497  -0.000158  -0.192002  0.115898  -0.000102  3.575238  0.0
N  N157  1  0.87553953  0.67421243  0.37866980  1  0.302821  -0.000159  -0.191926  0.116088  -0.000102  3.574981  0.0
N  N158  1  0.72266960  0.26684682  0.88113837  1  -1.303251  -4.2e-05  -0.369741  -0.378317  -1.8e-05  2.938859  0.0
N  N159  1  0.27733918  0.73314825  0.38114228  1  -1.303211  -4.3e-05  -0.369786  -0.378415  -1.8e-05  2.938618  0.0
N  N160  1  0.97943864  0.75408667  0.96731630  1  -0.751074  0.030592  -0.284427  -0.302764  0.020247  3.501324  0.027
N  N161  1  0.02055750  0.24592229  0.46731512  1  -0.750085  0.030592  -0.284409  -0.302796  0.020248  3.501374  0.027
N  N162  1  0.87256050  0.65570921  0.97981021  1  -0.802946  0.002628  -0.157438  0.095331  0.001498  3.738921  0.002
N  N163  1  0.12743316  0.34429973  0.47980430  1  -0.803512  0.002628  -0.157415  0.095406  0.001498  3.738835  0.002
N  N164  1  0.12387091  0.83908146  0.63049308  1  -0.818004  -0.002462  -0.151207  0.106995  -0.001367  3.731242  -0.002
N  N165  1  0.87611736  0.16091761  0.13049026  1  -0.817382  -0.00246  -0.150981  0.107388  -0.001366  3.730798  -0.002
N  N166  1  0.02611399  0.73485447  0.64349252  1  -0.719937  -0.031631  -0.28085  -0.286183  -0.020934  3.491735  -0.028
N  N167  1  0.97387353  0.26514831  0.14349013  1  -0.720744  -0.031632  -0.280939  -0.286407  -0.020935  3.491762  -0.028
N  N168  1  0.28556446  0.22335991  0.72470563  1  -1.314246  3.5e-05  -0.366044  -0.376461  1.4e-05  2.947087  0.0
N  N169  1  0.71445375  0.77663473  0.22471148  1  -1.314436  3.6e-05  -0.366203  -0.376555  1.5e-05  2.946917  0.0
N  N170  1  0.85180737  0.10744601  0.69989171  1  -1.273128  1.6e-05  -0.348647  -0.368038  5e-06  2.91743  0.0
N  N171  1  0.14820059  0.89255354  0.19989183  1  -1.273181  1.9e-05  -0.348707  -0.368123  6e-06  2.917445  0.0
O  O172  1  0.89281114  0.70443170  0.83138595  1  -1.001247  -0.00159  -0.382194  -0.529082  -0.000936  2.495114  -0.001
O  O173  1  0.10718733  0.29557024  0.33137863  1  -1.00162  -0.001603  -0.382167  -0.528912  -0.000944  2.494953  -0.001
O  O174  1  0.20079311  0.37302904  0.92132910  1  -0.436259  -0.000105  0.05519  0.012069  -6.1e-05  2.206972  0.0
O  O175  1  0.79920355  0.62698198  0.42133239  1  -0.436537  -0.000108  0.055181  0.012028  -6.3e-05  2.206709  0.0
O  O176  1  0.11678223  0.78219280  0.77895352  1  -1.000018  0.001617  -0.382835  -0.531221  0.000888  2.491182  0.001
O  O177  1  0.88322341  0.21780552  0.27895065  1  -1.000006  0.001595  -0.382788  -0.531145  0.000875  2.49112  0.001
