# generated using pymatgen
data_KPH12PtC2N2(ClO2)2
_symmetry_space_group_name_H-M   'P 1'
_cell_length_a   7.94200604
_cell_length_b   8.67594668
_cell_length_c   8.77673475
_cell_angle_alpha   84.04119585
_cell_angle_beta   67.84126475
_cell_angle_gamma   85.69155008
_symmetry_Int_Tables_number   1
_chemical_formula_structural   KPH12PtC2N2(ClO2)2
_chemical_formula_sum   'K2 P2 H24 Pt2 C4 N4 Cl4 O8'
_cell_volume   556.63888409
_cell_formula_units_Z   2
loop_
 _symmetry_equiv_pos_site_id
 _symmetry_equiv_pos_as_xyz
  1  'x, y, z'
loop_
 _atom_site_type_symbol
 _atom_site_label
 _atom_site_symmetry_multiplicity
 _atom_site_fract_x
 _atom_site_fract_y
 _atom_site_fract_z
 _atom_site_occupancy
 _atom_site_hle17_bader_spin_density
 _atom_site_hle17_ddec_charge
 _atom_site_hle17_ddec_spin_density
 _atom_site_hle17_ddec_sum_bond_order
 _atom_site_hle17_magmom
 _atom_site_hse06_10hf_bader_spin_density
 _atom_site_hse06_10hf_ddec_charge
 _atom_site_hse06_10hf_ddec_spin_density
 _atom_site_hse06_10hf_ddec_sum_bond_order
 _atom_site_hse06_10hf_magmom
 _atom_site_hse06_bader_spin_density
 _atom_site_hse06_ddec_charge
 _atom_site_hse06_ddec_spin_density
 _atom_site_hse06_ddec_sum_bond_order
 _atom_site_hse06_magmom
 _atom_site_pbe_bader_spin_density
 _atom_site_pbe_cm5_charge
 _atom_site_pbe_ddec_charge
 _atom_site_pbe_ddec_spin_density
 _atom_site_pbe_ddec_sum_bond_order
 _atom_site_pbe_magmom
K  K0  1  0.57235872  0.78370669  0.43234548  1  0  0.898955  0  0.4952  0  0  0.846083  0  0.693073  0  0  0.858908  0  0.671275  0  0  0.661297  0.836483  0  0.708485  0
K  K1  1  0.42764538  0.21628438  0.56764280  1  0  0.898981  0  0.495162  0  0  0.846096  0  0.693038  0  0  0.858914  0  0.671257  0  0  0.661307  0.836498  0  0.70845  0
P  P2  1  0.80705028  0.21300823  0.74535661  1  0  1.237831  0  4.665021  0  0  1.110811  0  5.142923  0  0  1.148465  0  5.121953  0  0  0.278337  1.084588  0  5.157017  0
P  P3  1  0.19293180  0.78698864  0.25463848  1  0  1.23778  0  4.665051  0  0  1.110723  0  5.142992  0  0  1.148386  0  5.122022  0  0  0.278245  1.084493  0  5.157094  0
H  H4  1  0.77453047  0.45358864  0.59622247  1  0  0.116416  0  0.950231  0  0  0.134751  0  1.002307  0  0  0.136072  0  1.002585  0  0  0.109517  0.133723  0  1.002345  0
H  H5  1  0.22546895  0.54641399  0.40377535  1  0  0.11641  0  0.950246  0  0  0.13475  0  1.002322  0  0  0.136069  0  1.002602  0  0  0.109511  0.133722  0  1.002357  0
H  H6  1  0.59252582  0.43425827  0.79241693  1  0  0.098164  0  0.989441  0  0  0.093635  0  1.089286  0  0  0.097374  0  1.084385  0  0  0.096052  0.090774  0  1.092962  0
H  H7  1  0.40747088  0.56574436  0.20758180  1  0  0.098194  0  0.989394  0  0  0.093657  0  1.089259  0  0  0.0974  0  1.084349  0  0  0.096069  0.090799  0  1.092932  0
H  H8  1  0.58028155  0.18830888  0.02345951  1  0  0.126859  0  0.935099  0  0  0.139974  0  0.995077  0  0  0.14191  0  0.99426  0  0  0.11286  0.138457  0  0.995898  0
H  H9  1  0.41972065  0.81169259  0.97653635  1  0  0.126825  0  0.935123  0  0  0.139998  0  0.995029  0  0  0.141918  0  0.994232  0  0  0.112869  0.138481  0  0.995849  0
H  H10  1  0.75077568  0.03550031  0.98622101  1  0  0.123876  0  0.953205  0  0  0.139946  0  1.008334  0  0  0.141488  0  1.00821  0  0  0.106923  0.138799  0  1.008585  0
H  H11  1  0.24922390  0.96449885  0.01377710  1  0  0.123898  0  0.953222  0  0  0.139959  0  1.00836  0  0  0.1415  0  1.008232  0  0  0.106929  0.13881  0  1.008609  0
H  H12  1  0.97374960  0.49917188  0.74053772  1  0  0.278011  0  0.921771  0  0  0.26189  0  0.991298  0  0  0.268705  0  0.986327  0  0  0.272549  0.25697  0  0.995099  0
H  H13  1  0.02624725  0.50082727  0.25946131  1  0  0.278005  0  0.921774  0  0  0.261888  0  0.991302  0  0  0.268703  0  0.986329  0  0  0.272532  0.256967  0  0.995105  0
H  H14  1  0.80415792  0.63109634  0.76859447  1  0  0.312171  0  0.90494  0  0  0.299362  0  0.959818  0  0  0.306722  0  0.954976  0  0  0.281314  0.29412  0  0.963386  0
H  H15  1  0.19583885  0.36890395  0.23140903  1  0  0.312208  0  0.904906  0  0  0.299346  0  0.959862  0  0  0.306711  0  0.955003  0  0  0.281308  0.2941  0  0.963435  0
H  H16  1  0.86759180  0.97355778  0.31932095  1  0  0.414188  0  0.89536  0  0  0.383916  0  0.958697  0  0  0.394397  0  0.943351  0  0  0.280235  0.376527  0  0.969509  0
H  H17  1  0.13241311  0.02644250  0.68068210  1  0  0.414254  0  0.895275  0  0  0.383965  0  0.95864  0  0  0.394446  0  0.943291  0  0  0.280253  0.376575  0  0.969451  0
H  H18  1  0.96472997  0.22984922  0.98269001  1  0  0.276206  0  0.923267  0  0  0.259163  0  0.99539  0  0  0.265995  0  0.990384  0  0  0.271999  0.254279  0  0.999136  0
H  H19  1  0.03527097  0.77014875  0.01731346  1  0  0.276179  0  0.923368  0  0  0.259136  0  0.995475  0  0  0.265967  0  0.99047  0  0  0.271986  0.254255  0  0.999228  0
H  H20  1  0.79887180  0.19803447  0.16400120  1  0  0.308979  0  0.906181  0  0  0.297322  0  0.959767  0  0  0.30456  0  0.954999  0  0  0.283654  0.292202  0  0.963209  0
H  H21  1  0.20112645  0.80196352  0.83599975  1  0  0.308979  0  0.906169  0  0  0.297325  0  0.95974  0  0  0.304564  0  0.954968  0  0  0.283652  0.292208  0  0.963187  0
H  H22  1  0.86000911  0.79959075  0.53388416  1  0  0.405536  0  0.905951  0  0  0.375213  0  0.969908  0  0  0.385674  0  0.954487  0  0  0.278826  0.367836  0  0.980767  0
H  H23  1  0.13998489  0.20041071  0.46611902  1  0  0.405473  0  0.906029  0  0  0.375169  0  0.969957  0  0  0.385627  0  0.95454  0  0  0.278786  0.367791  0  0.980816  0
H  H24  1  0.74294951  0.90709449  0.67329069  1  0  0.421284  0  0.877306  0  0  0.392283  0  0.938247  0  0  0.402396  0  0.923316  0  0  0.287991  0.385124  0  0.948811  0
H  H25  1  0.25704048  0.09290582  0.32671280  1  0  0.42125  0  0.877364  0  0  0.392234  0  0.93834  0  0  0.402349  0  0.923406  0  0  0.287933  0.385068  0  0.948914  0
H  H26  1  0.77924513  0.09781997  0.44653358  1  0  0.407177  0  0.902146  0  0  0.377019  0  0.966733  0  0  0.387182  0  0.951595  0  0  0.280396  0.369803  0  0.97749  0
H  H27  1  0.22075707  0.90217914  0.55347505  1  0  0.407181  0  0.902163  0  0  0.377012  0  0.966767  0  0  0.387176  0  0.951626  0  0  0.280374  0.369794  0  0.977524  0
Pt  Pt28  1  0.77871980  0.48370162  0.04739613  1  0  0.363762  0  3.057738  0  0  0.301713  0  3.681873  0  0  0.33118  0  3.634431  0  0  0.515687  0.283246  0  3.713498  0
Pt  Pt29  1  0.22128128  0.51629405  0.95260410  1  0  0.363813  0  3.057711  0  0  0.301744  0  3.681834  0  0  0.331208  0  3.634387  0  0  0.515682  0.28328  0  3.713471  0
C  C30  1  0.74062551  0.41786093  0.72830721  1  0  -0.247579  0  3.608209  0  0  -0.28374  0  3.863215  0  0  -0.287075  0  3.873066  0  0  -0.087825  -0.281146  0  3.856441  0
C  C31  1  0.25937536  0.58213937  0.27169263  1  0  -0.247522  0  3.608137  0  0  -0.283688  0  3.863137  0  0  -0.287014  0  3.872972  0  0  -0.087805  -0.281105  0  3.856362  0
C  C32  1  0.72711870  0.16166680  0.96726895  1  0  -0.246614  0  3.58438  0  0  -0.282228  0  3.835266  0  0  -0.28508  0  3.844188  0  0  -0.083685  -0.280197  0  3.8295  0
C  C33  1  0.27288612  0.83833582  0.03273047  1  0  -0.246529  0  3.584379  0  0  -0.282175  0  3.835226  0  0  -0.285015  0  3.84415  0  0  -0.083641  -0.280128  0  3.829451  0
N  N34  1  0.83453969  0.51520691  0.79798124  1  0  -0.445563  0  3.313699  0  0  -0.38997  0  3.570937  0  0  -0.409096  0  3.574622  0  0  -0.615821  -0.377255  0  3.568598  0
N  N35  1  0.16545981  0.48479338  0.20202020  1  0  -0.445667  0  3.313732  0  0  -0.390027  0  3.570942  0  0  -0.40915  0  3.574634  0  0  -0.61582  -0.377304  0  3.568596  0
N  N36  1  0.82595202  0.24671273  0.04374064  1  0  -0.44689  0  3.30927  0  0  -0.393328  0  3.568558  0  0  -0.411985  0  3.57154  0  0  -0.613129  -0.380977  0  3.566792  0
N  N37  1  0.17404764  0.75328409  0.95626110  1  0  -0.446932  0  3.309251  0  0  -0.393353  0  3.568505  0  0  -0.412002  0  3.571472  0  0  -0.613142  -0.381027  0  3.56677  0
Cl  Cl38  1  0.72975129  0.75146313  0.05239538  1  0  -0.463599  0  1.223568  0  0  -0.427915  0  1.535027  0  0  -0.441301  0  1.512358  0  0  -0.278175  -0.418742  0  1.550631  0
Cl  Cl39  1  0.27025655  0.24853371  0.94759905  1  0  -0.463606  0  1.223557  0  0  -0.427901  0  1.534992  0  0  -0.441286  0  1.512329  0  0  -0.278165  -0.418727  0  1.550599  0
Cl  Cl40  1  0.71905218  0.45267782  0.32980029  1  0  -0.511845  0  1.261814  0  0  -0.477084  0  1.58505  0  0  -0.49035  0  1.561787  0  0  -0.304828  -0.467894  0  1.60096  0
Cl  Cl41  1  0.28094747  0.54731900  0.67020144  1  0  -0.511815  0  1.261779  0  0  -0.477065  0  1.585024  0  0  -0.490333  0  1.561774  0  0  -0.304802  -0.467877  0  1.600932  0
O  O42  1  0.71104356  0.12002905  0.66657465  1  0  -0.857447  0  1.965749  0  0  -0.776464  0  2.204022  0  0  -0.801197  0  2.18816  0  0  -0.42826  -0.75887  0  2.214564  0
O  O43  1  0.28897055  0.87997702  0.33343043  1  0  -0.857601  0  1.96511  0  0  -0.776603  0  2.203388  0  0  -0.801347  0  2.18753  0  0  -0.428373  -0.75899  0  2.213912  0
O  O44  1  0.01512395  0.20006045  0.67890980  1  0  -0.842318  0  1.960049  0  0  -0.756085  0  2.19363  0  0  -0.781499  0  2.178461  0  0  -0.394209  -0.738057  0  2.203645  0
O  O45  1  0.98489285  0.79994796  0.32108503  1  0  -0.842188  0  1.960688  0  0  -0.755923  0  2.194274  0  0  -0.781344  0  2.179099  0  0  -0.394072  -0.737897  0  2.204294  0
O  O46  1  0.75907854  0.79845397  0.64373892  1  0  -0.852708  0  1.805566  0  0  -0.801876  0  1.96018  0  0  -0.820454  0  1.930916  0  0  -0.648699  -0.788677  0  1.98064  0
O  O47  1  0.24091563  0.20154401  0.35626454  1  0  -0.852666  0  1.805658  0  0  -0.801824  0  1.96024  0  0  -0.820402  0  1.930983  0  0  -0.648672  -0.788626  0  1.980708  0
O  O48  1  0.77389157  0.06042507  0.34561766  1  0  -0.874823  0  1.821411  0  0  -0.824383  0  1.978948  0  0  -0.842975  0  1.949637  0  0  -0.662952  -0.811099  0  1.999284  0
O  O49  1  0.22610927  0.93957522  0.65438561  1  0  -0.874932  0  1.821394  0  0  -0.824453  0  1.978928  0  0  -0.843065  0  1.949652  0  0  -0.662994  -0.811174  0  1.999266  0
