# generated using pymatgen
data_ErH14C12N3O10
_symmetry_space_group_name_H-M   'P 1'
_cell_length_a   7.50862675
_cell_length_b   11.85835095
_cell_length_c   12.83014667
_cell_angle_alpha   110.47085304
_cell_angle_beta   98.02882766
_cell_angle_gamma   96.24895575
_symmetry_Int_Tables_number   1
_chemical_formula_structural   ErH14C12N3O10
_chemical_formula_sum   'Er2 H28 C24 N6 O20'
_cell_volume   1044.33824913
_cell_formula_units_Z   2
loop_
 _symmetry_equiv_pos_site_id
 _symmetry_equiv_pos_as_xyz
  1  'x, y, z'
loop_
 _atom_site_type_symbol
 _atom_site_label
 _atom_site_symmetry_multiplicity
 _atom_site_fract_x
 _atom_site_fract_y
 _atom_site_fract_z
 _atom_site_occupancy
 _atom_site_hle17_bader_spin_density
 _atom_site_hle17_ddec_charge
 _atom_site_hle17_ddec_spin_density
 _atom_site_hle17_ddec_sum_bond_order
 _atom_site_hle17_magmom
 _atom_site_hse06_10hf_bader_spin_density
 _atom_site_hse06_10hf_ddec_charge
 _atom_site_hse06_10hf_ddec_spin_density
 _atom_site_hse06_10hf_ddec_sum_bond_order
 _atom_site_hse06_10hf_magmom
 _atom_site_hse06_bader_spin_density
 _atom_site_hse06_ddec_charge
 _atom_site_hse06_ddec_spin_density
 _atom_site_hse06_ddec_sum_bond_order
 _atom_site_hse06_magmom
 _atom_site_pbe_bader_spin_density
 _atom_site_pbe_cm5_charge
 _atom_site_pbe_ddec_charge
 _atom_site_pbe_ddec_spin_density
 _atom_site_pbe_ddec_sum_bond_order
 _atom_site_pbe_magmom
Er  Er0  1  0.25155594  0.01166731  0.98020611  1  0  2.258989  0  1.639054  0  0  2.108708  0  2.111896  0  0  2.250243  0  1.906428  0  0  1.520252  2.069816  0  2.143415  0
Er  Er1  1  0.74838469  0.98833150  0.01978417  1  0  2.258948  0  1.639127  0  0  2.108626  0  2.112094  0  0  2.250192  0  1.906515  0  0  1.520179  2.069767  0  2.143548  0
H  H2  1  0.95081122  0.87199728  0.56630443  1  0  0.094724  0  0.907862  0  0  0.108251  0  0.966804  0  0  0.110403  0  0.964437  0  0  0.119819  0.106737  0  0.968394  0
H  H3  1  0.04922466  0.12803489  0.43371791  1  0  0.094784  0  0.907949  0  0  0.108385  0  0.966914  0  0  0.110529  0  0.96456  0  0  0.119861  0.106874  0  0.968497  0
H  H4  1  0.96536577  0.72828037  0.58030151  1  0  0.091481  0  0.910596  0  0  0.109179  0  0.963685  0  0  0.110555  0  0.962543  0  0  0.121452  0.108111  0  0.964587  0
H  H5  1  0.03469184  0.27174052  0.41970640  1  0  0.091637  0  0.910582  0  0  0.109346  0  0.963755  0  0  0.110716  0  0.962624  0  0  0.121472  0.108279  0  0.964653  0
H  H6  1  0.73668131  0.76802916  0.71075962  1  0  0.118876  0  0.941848  0  0  0.129961  0  1.006114  0  0  0.132255  0  1.005016  0  0  0.109461  0.128434  0  1.006621  0
H  H7  1  0.26329556  0.23194518  0.28920106  1  0  0.118895  0  0.941647  0  0  0.129998  0  1.005933  0  0  0.132294  0  1.004826  0  0  0.109471  0.128466  0  1.006444  0
H  H8  1  0.72051202  0.90801733  0.69342911  1  0  0.122571  0  0.911728  0  0  0.1378  0  0.966703  0  0  0.139821  0  0.966215  0  0  0.11376  0.136416  0  0.967007  0
H  H9  1  0.27946533  0.09195737  0.30655129  1  0  0.122528  0  0.911704  0  0  0.137821  0  0.966619  0  0  0.139798  0  0.966182  0  0  0.113811  0.136443  0  0.966925  0
H  H10  1  0.38712759  0.90932533  0.36379831  1  0  0.095184  0  0.935857  0  0  0.108617  0  0.998519  0  0  0.110131  0  0.997091  0  0  0.115728  0.107419  0  0.999705  0
H  H11  1  0.61289134  0.09066616  0.63619195  1  0  0.095182  0  0.935746  0  0  0.108659  0  0.9984  0  0  0.110167  0  0.996956  0  0  0.115743  0.107459  0  0.999581  0
H  H12  1  0.25586591  0.77225937  0.25699044  1  0  0.090952  0  0.912476  0  0  0.10464  0  0.97067  0  0  0.106805  0  0.968351  0  0  0.11683  0.103081  0  0.972293  0
H  H13  1  0.74415609  0.22772323  0.74302223  1  0  0.090882  0  0.912521  0  0  0.10463  0  0.970686  0  0  0.106785  0  0.96836  0  0  0.116877  0.10307  0  0.972302  0
H  H14  1  0.51841253  0.75422967  0.14985790  1  0  0.12799  0  0.89817  0  0  0.143624  0  0.95145  0  0  0.145923  0  0.950385  0  0  0.117472  0.142105  0  0.952031  0
H  H15  1  0.48159261  0.24577665  0.85012237  1  0  0.128101  0  0.898203  0  0  0.143678  0  0.951543  0  0  0.145948  0  0.950465  0  0  0.117493  0.142154  0  0.952144  0
H  H16  1  0.63315371  0.89821412  0.24844926  1  0  0.137005  0  0.914209  0  0  0.149739  0  0.970843  0  0  0.152894  0  0.968838  0  0  0.116658  0.147499  0  0.972318  0
H  H17  1  0.36682477  0.10180268  0.75153911  1  0  0.137045  0  0.914339  0  0  0.149703  0  0.97104  0  0  0.152838  0  0.969023  0  0  0.116691  0.147473  0  0.972501  0
H  H18  1  0.36327810  0.39817264  0.24864559  1  0  0.087514  0  0.930024  0  0  0.10052  0  0.991698  0  0  0.103078  0  0.988435  0  0  0.116873  0.098648  0  0.994044  0
H  H19  1  0.63674137  0.60182551  0.75140167  1  0  0.087446  0  0.929958  0  0  0.100617  0  0.99156  0  0  0.103185  0  0.988262  0  0  0.116914  0.098733  0  0.993917  0
H  H20  1  0.51663896  0.38722384  0.36341274  1  0  0.076865  0  0.927229  0  0  0.091993  0  0.98793  0  0  0.09271  0  0.987337  0  0  0.112793  0.091303  0  0.988634  0
H  H21  1  0.48342712  0.61277553  0.63661164  1  0  0.076683  0  0.927116  0  0  0.091931  0  0.987806  0  0  0.092664  0  0.987188  0  0  0.112764  0.091214  0  0.988533  0
H  H22  1  0.63885233  0.43025533  0.15980652  1  0  0.115882  0  0.902079  0  0  0.132001  0  0.954778  0  0  0.134007  0  0.954293  0  0  0.110499  0.130683  0  0.955055  0
H  H23  1  0.36113250  0.56973544  0.84019423  1  0  0.115884  0  0.901979  0  0  0.132027  0  0.954631  0  0  0.134041  0  0.954134  0  0  0.110513  0.130696  0  0.954915  0
H  H24  1  0.77687404  0.39692110  0.26554850  1  0  0.120018  0  0.910916  0  0  0.135063  0  0.963416  0  0  0.13771  0  0.961911  0  0  0.108252  0.133277  0  0.964309  0
H  H25  1  0.22314012  0.60305028  0.73443524  1  0  0.119986  0  0.910968  0  0  0.135005  0  0.963466  0  0  0.137655  0  0.961954  0  0  0.108256  0.133212  0  0.964355  0
H  H26  1  0.17906373  0.24983681  0.01742407  1  0  0.446807  0  0.802514  0  0  0.428435  0  0.856596  0  0  0.437803  0  0.843366  0  0  0.331409  0.421869  0  0.864477  0
H  H27  1  0.82086463  0.75018003  0.98257389  1  0  0.446741  0  0.802606  0  0  0.428408  0  0.856611  0  0  0.437765  0  0.843415  0  0  0.331494  0.421845  0  0.864476  0
H  H28  1  0.01371804  0.17338510  0.91794288  1  0  0.455793  0  0.825685  0  0  0.42793  0  0.882217  0  0  0.438893  0  0.866321  0  0  0.314888  0.420361  0  0.893391  0
H  H29  1  0.98621886  0.82662646  0.08205653  1  0  0.455885  0  0.825579  0  0  0.42809  0  0.882038  0  0  0.439016  0  0.866194  0  0  0.314987  0.42054  0  0.89319  0
C  C30  1  0.67528275  0.60948277  0.44790397  1  0  0.647879  0  3.858516  0  0  0.572315  0  4.175828  0  0  0.607627  0  4.172042  0  0  0.341712  0.548546  0  4.177724  0
C  C31  1  0.32476417  0.39053256  0.55210078  1  0  0.647277  0  3.859274  0  0  0.571854  0  4.176402  0  0  0.607155  0  4.172622  0  0  0.341529  0.548096  0  4.178287  0
C  C32  1  0.63145004  0.81074914  0.44250696  1  0  0.64735  0  3.858888  0  0  0.57425  0  4.168403  0  0  0.609597  0  4.164609  0  0  0.344224  0.550437  0  4.170237  0
C  C33  1  0.36862125  0.18928234  0.55749051  1  0  0.647045  0  3.85849  0  0  0.574341  0  4.167494  0  0  0.609693  0  4.163717  0  0  0.344487  0.550541  0  4.169308  0
C  C34  1  0.44635745  0.62301852  0.29693754  1  0  0.648849  0  3.859172  0  0  0.574724  0  4.171601  0  0  0.609839  0  4.16822  0  0  0.34269  0.550872  0  4.173477  0
C  C35  1  0.55368116  0.37697272  0.70306986  1  0  0.648648  0  3.858868  0  0  0.57459  0  4.171267  0  0  0.60968  0  4.167917  0  0  0.34254  0.550755  0  4.173117  0
C  C36  1  0.87708426  0.79624411  0.58165167  1  0  0.058103  0  3.630232  0  0  -0.010721  0  3.897381  0  0  -0.004206  0  3.906015  0  0  -0.052978  -0.014899  0  3.891082  0
C  C37  1  0.12295334  0.20377461  0.41835934  1  0  0.057619  0  3.630521  0  0  -0.011527  0  3.898218  0  0  -0.005012  0  3.906848  0  0  -0.053091  -0.015682  0  3.891893  0
C  C38  1  0.81296542  0.84224187  0.69442920  1  0  -0.282122  0  3.638062  0  0  -0.31987  0  3.889794  0  0  -0.325817  0  3.895777  0  0  -0.15532  -0.31541  0  3.88487  0
C  C39  1  0.18701705  0.15774261  0.30556525  1  0  -0.281927  0  3.637362  0  0  -0.319631  0  3.889211  0  0  -0.325522  0  3.895172  0  0  -0.155306  -0.315182  0  3.884302  0
C  C40  1  0.96835080  0.90692415  0.79275831  1  0  0.757903  0  3.790236  0  0  0.715155  0  4.08135  0  0  0.749193  0  4.080964  0  0  0.217005  0.691767  0  4.087391  0
C  C41  1  0.03160774  0.09306363  0.20723904  1  0  0.758176  0  3.788782  0  0  0.715373  0  4.080014  0  0  0.749416  0  4.079619  0  0  0.217192  0.69199  0  4.086066  0
C  C42  1  0.39387620  0.82280914  0.29676286  1  0  0.05415  0  3.619958  0  0  -0.012967  0  3.885674  0  0  -0.00654  0  3.894126  0  0  -0.054519  -0.017101  0  3.879651  0
C  C43  1  0.60613968  0.17718741  0.70324202  1  0  0.054179  0  3.619901  0  0  -0.013038  0  3.88569  0  0  -0.00658  0  3.894038  0  0  -0.054539  -0.017147  0  3.879643  0
C  C44  1  0.49727401  0.84301933  0.20873951  1  0  -0.294594  0  3.639941  0  0  -0.333796  0  3.892468  0  0  -0.340077  0  3.89791  0  0  -0.155026  -0.329222  0  3.887993  0
C  C45  1  0.50270152  0.15698555  0.79124609  1  0  -0.294621  0  3.640148  0  0  -0.333718  0  3.892771  0  0  -0.339888  0  3.898069  0  0  -0.15501  -0.329162  0  3.888305  0
C  C46  1  0.39882593  0.90134893  0.13627217  1  0  0.767374  0  3.783637  0  0  0.724727  0  4.075292  0  0  0.758982  0  4.074052  0  0  0.230566  0.701376  0  4.081443  0
C  C47  1  0.60112310  0.09864712  0.86372133  1  0  0.767354  0  3.783851  0  0  0.72462  0  4.075642  0  0  0.758836  0  4.074416  0  0  0.230426  0.701266  0  4.081804  0
C  C48  1  0.50380919  0.42385927  0.29587315  1  0  0.054631  0  3.642141  0  0  -0.014892  0  3.915386  0  0  -0.007954  0  3.923586  0  0  -0.05924  -0.019299  0  3.909469  0
C  C49  1  0.49621503  0.57615381  0.70416873  1  0  0.055037  0  3.641148  0  0  -0.014882  0  3.914717  0  0  -0.007948  0  3.922875  0  0  -0.059199  -0.01927  0  3.908783  0
C  C50  1  0.63759087  0.37950381  0.21721969  1  0  -0.285364  0  3.639823  0  0  -0.325351  0  3.893215  0  0  -0.33106  0  3.898118  0  0  -0.1599  -0.321115  0  3.888601  0
C  C51  1  0.36239769  0.62049037  0.78279203  1  0  -0.285427  0  3.639844  0  0  -0.325297  0  3.893186  0  0  -0.331007  0  3.898076  0  0  -0.15988  -0.321051  0  3.888552  0
C  C52  1  0.58738543  0.24474008  0.14204563  1  0  0.773871  0  3.779472  0  0  0.735961  0  4.06964  0  0  0.771453  0  4.063265  0  0  0.233193  0.712639  0  4.07557  0
C  C53  1  0.41256693  0.75524604  0.85794261  1  0  0.773848  0  3.779732  0  0  0.735929  0  4.069796  0  0  0.771414  0  4.06341  0  0  0.232853  0.712606  0  4.075724  0
N  N54  1  0.53996577  0.55737426  0.35080162  1  0  -0.33914  0  3.385606  0  0  -0.258432  0  3.636723  0  0  -0.283957  0  3.651431  0  0  -0.251859  -0.241199  0  3.626267  0
N  N55  1  0.46007473  0.44262402  0.64921775  1  0  -0.338763  0  3.384869  0  0  -0.25805  0  3.63601  0  0  -0.283551  0  3.650683  0  0  -0.251671  -0.240823  0  3.625531  0
N  N56  1  0.72222431  0.73622697  0.48680333  1  0  -0.343106  0  3.376513  0  0  -0.260659  0  3.625683  0  0  -0.285942  0  3.639821  0  0  -0.252001  -0.243551  0  3.615468  0
N  N57  1  0.27782771  0.26376702  0.51317771  1  0  -0.342657  0  3.376513  0  0  -0.260251  0  3.625555  0  0  -0.285535  0  3.639707  0  0  -0.251985  -0.243157  0  3.61533  0
N  N58  1  0.48785245  0.74968715  0.35130465  1  0  -0.338016  0  3.366012  0  0  -0.255991  0  3.613229  0  0  -0.281274  0  3.627344  0  0  -0.250407  -0.238865  0  3.603151  0
N  N59  1  0.51218703  0.25031267  0.64869245  1  0  -0.337828  0  3.366361  0  0  -0.255948  0  3.613583  0  0  -0.281245  0  3.62769  0  0  -0.250492  -0.238847  0  3.603503  0
O  O60  1  0.11958464  0.95115035  0.77973556  1  0  -0.632331  0  1.922943  0  0  -0.586413  0  2.145617  0  0  -0.618898  0  2.135972  0  0  -0.343427  -0.569543  0  2.150507  0
O  O61  1  0.88036987  0.04885471  0.22026708  1  0  -0.632536  0  1.92253  0  0  -0.586557  0  2.145196  0  0  -0.619046  0  2.13555  0  0  -0.343531  -0.569689  0  2.15009  0
O  O62  1  0.94455418  0.91669499  0.89399273  1  0  -0.877893  0  2.155795  0  0  -0.822645  0  2.42654  0  0  -0.87249  0  2.413347  0  0  -0.472581  -0.803062  0  2.43361  0
O  O63  1  0.05540307  0.08328676  0.10598994  1  0  -0.878121  0  2.155201  0  0  -0.822808  0  2.425918  0  0  -0.87266  0  2.412709  0  0  -0.47269  -0.803224  0  2.432997  0
O  O64  1  0.41771820  0.19916904  0.10867388  1  0  -0.748351  0  2.015852  0  0  -0.696484  0  2.264816  0  0  -0.734871  0  2.251686  0  0  -0.392686  -0.677364  0  2.270666  0
O  O65  1  0.58222568  0.80083337  0.89132035  1  0  -0.74825  0  2.01574  0  0  -0.696398  0  2.264699  0  0  -0.734789  0  2.251557  0  0  -0.392504  -0.67729  0  2.270547  0
O  O66  1  0.71780877  0.18823855  0.11533682  1  0  -0.724752  0  2.041464  0  0  -0.678432  0  2.284779  0  0  -0.715285  0  2.271054  0  0  -0.393062  -0.660394  0  2.290504  0
O  O67  1  0.28215642  0.81174613  0.88464311  1  0  -0.72476  0  2.04159  0  0  -0.67844  0  2.284862  0  0  -0.715287  0  2.271145  0  0  -0.392875  -0.660406  0  2.290587  0
O  O68  1  0.49594648  0.96511850  0.09442224  1  0  -0.858975  0  2.216238  0  0  -0.7983  0  2.479037  0  0  -0.84951  0  2.467826  0  0  -0.463372  -0.778169  0  2.484438  0
O  O69  1  0.50399516  0.03489120  0.90557337  1  0  -0.859035  0  2.216371  0  0  -0.798309  0  2.479186  0  0  -0.849521  0  2.467996  0  0  -0.463368  -0.778177  0  2.484587  0
O  O70  1  0.22717050  0.88973119  0.11354928  1  0  -0.675367  0  1.973261  0  0  -0.622647  0  2.198509  0  0  -0.655193  0  2.189504  0  0  -0.321619  -0.605038  0  2.20431  0
O  O71  1  0.77277505  0.11024272  0.88644499  1  0  -0.675331  0  1.973656  0  0  -0.622547  0  2.198984  0  0  -0.655116  0  2.189997  0  0  -0.321571  -0.604936  0  2.204782  0
O  O72  1  0.33429399  0.57301814  0.20804126  1  0  -0.529643  0  1.854231  0  0  -0.498958  0  2.055946  0  0  -0.516276  0  2.047355  0  0  -0.295951  -0.487231  0  2.061743  0
O  O73  1  0.66577175  0.42698781  0.79197825  1  0  -0.529744  0  1.853549  0  0  -0.499089  0  2.05522  0  0  -0.51641  0  2.046647  0  0  -0.295934  -0.487363  0  2.061004  0
O  O74  1  0.75042070  0.54782572  0.49441495  1  0  -0.523325  0  1.866767  0  0  -0.493377  0  2.076908  0  0  -0.510988  0  2.068537  0  0  -0.288388  -0.481322  0  2.08239  0
O  O75  1  0.24967791  0.45219450  0.50560160  1  0  -0.522928  0  1.868055  0  0  -0.493033  0  2.078154  0  0  -0.510631  0  2.069785  0  0  -0.288186  -0.480985  0  2.08363  0
O  O76  1  0.67585548  0.92241712  0.48139510  1  0  -0.520884  0  1.891067  0  0  -0.489507  0  2.105841  0  0  -0.507333  0  2.09683  0  0  -0.280109  -0.477262  0  2.111744  0
O  O77  1  0.32419965  0.07757872  0.51858693  1  0  -0.52101  0  1.889662  0  0  -0.489817  0  2.104267  0  0  -0.50766  0  2.095271  0  0  -0.280389  -0.477568  0  2.110157  0
O  O78  1  0.14693802  0.18361386  0.94325235  1  0  -0.876854  0  1.820796  0  0  -0.834137  0  1.997846  0  0  -0.862245  0  1.961178  0  0  -0.613095  -0.821336  0  2.017102  0
O  O79  1  0.85299892  0.81640027  0.05674730  1  0  -0.876915  0  1.820906  0  0  -0.834306  0  1.997834  0  0  -0.862387  0  1.961276  0  0  -0.613329  -0.821534  0  2.017018  0
