# generated using pymatgen
data_ZnH42C36(NO3)2
_symmetry_space_group_name_H-M   'P 1'
_cell_length_a   10.10468030
_cell_length_b   12.88282876
_cell_length_c   16.75658687
_cell_angle_alpha   77.59636250
_cell_angle_beta   72.42706152
_cell_angle_gamma   66.90066582
_symmetry_Int_Tables_number   1
_chemical_formula_structural   ZnH42C36(NO3)2
_chemical_formula_sum   'Zn2 H84 C72 N4 O12'
_cell_volume   1901.22094423
_cell_formula_units_Z   2
loop_
 _symmetry_equiv_pos_site_id
 _symmetry_equiv_pos_as_xyz
  1  'x, y, z'
loop_
 _atom_site_type_symbol
 _atom_site_label
 _atom_site_symmetry_multiplicity
 _atom_site_fract_x
 _atom_site_fract_y
 _atom_site_fract_z
 _atom_site_occupancy
 _atom_site_pbe_bader_charge
 _atom_site_pbe_bader_spin_density
 _atom_site_pbe_cm5_charge
 _atom_site_pbe_ddec_charge
 _atom_site_pbe_ddec_spin_density
 _atom_site_pbe_ddec_sum_bond_order
 _atom_site_pbe_magmom
Zn  Zn0  1  0.19347725  0.24986357  0.75001499  1  1.251086  0  0.683747  0.742663  0  2.42536  0
Zn  Zn1  1  0.80651388  0.75013287  0.24999620  1  1.251257  0  0.683741  0.742691  0  2.425107  0
H  H2  1  0.72203936  0.57909894  0.71134771  1  0.056604  0  0.095687  0.097253  0  1.040085  0
H  H3  1  0.01243656  0.92052787  0.78866790  1  0.064686  0  0.095282  0.096698  0  1.04075  0
H  H4  1  0.27795875  0.42091415  0.28865256  1  0.056525  0  0.095675  0.097304  0  1.04012  0
H  H5  1  0.98755939  0.07946226  0.21133340  1  0.064702  0  0.095314  0.096772  0  1.040746  0
H  H6  1  0.86649749  0.46195922  0.93908638  1  0.070434  0  0.103241  0.111432  0  1.023433  0
H  H7  1  0.26771625  0.03782602  0.56098708  1  0.066445  0  0.102781  0.110488  0  1.022613  0
H  H8  1  0.13349519  0.53804285  0.06091513  1  0.070712  0  0.103234  0.111383  0  1.02338  0
H  H9  1  0.73228125  0.96217684  0.43901280  1  0.066437  0  0.102761  0.110465  0  1.022666  0
H  H10  1  0.35652529  0.78235142  0.80852159  1  -0.022475  0  0.092902  0.044402  0  0.975567  0
H  H11  1  0.94750111  0.71744776  0.69150854  1  -0.001425  0  0.093352  0.045291  0  0.976193  0
H  H12  1  0.64347695  0.21765473  0.19147501  1  -0.022446  0  0.09291  0.04435  0  0.975684  0
H  H13  1  0.05249652  0.28255250  0.30849000  1  -0.00153  0  0.093366  0.045274  0  0.976289  0
H  H14  1  0.37458700  0.77173576  0.66382085  1  0.035191  0  0.083218  0.114529  0  1.072018  0
H  H15  1  0.81025569  0.72797458  0.83620272  1  0.07975  0  0.083705  0.115529  0  1.071857  0
H  H16  1  0.62541596  0.22826891  0.33618186  1  0.035094  0  0.083209  0.114485  0  1.071967  0
H  H17  1  0.18975512  0.27201716  0.16379554  1  0.079734  0  0.08371  0.115529  0  1.071932  0
H  H18  1  0.56831082  0.69748245  0.64336350  1  0.005123  0  0.081276  0.105867  0  1.019441  0
H  H19  1  0.90917304  0.80219901  0.85668855  1  0.009013  0  0.081901  0.106992  0  1.019622  0
H  H20  1  0.43168560  0.30251350  0.35663367  1  0.005326  0  0.081238  0.105832  0  1.019336  0
H  H21  1  0.09084203  0.19779017  0.14330999  1  0.009302  0  0.081851  0.106955  0  1.019653  0
H  H22  1  0.44478661  0.63094753  0.71275062  1  -0.005767  0  0.081494  0.106861  0  1.033743  0
H  H23  1  0.78859806  0.86873870  0.78733425  1  -0.001929  0  0.081196  0.107074  0  1.033524  0
H  H24  1  0.55521040  0.36905879  0.28725050  1  -0.005804  0  0.081477  0.10683  0  1.033707  0
H  H25  1  0.21140729  0.13125839  0.21267120  1  -0.001938  0  0.08114  0.107009  0  1.033547  0
H  H26  1  0.42463593  0.93302808  0.70333305  1  0.035687  0  0.087774  0.127718  0  1.031832  0
H  H27  1  0.06104666  0.56666030  0.79660431  1  0.034817  0  0.08831  0.128539  0  1.03251  0
H  H28  1  0.57537413  0.06696528  0.29666326  1  0.03568  0  0.087748  0.127707  0  1.031833  0
H  H29  1  0.93893986  0.43334139  0.20338647  1  0.034679  0  0.088312  0.128612  0  1.032461  0
H  H30  1  0.50749879  0.90725294  0.78888309  1  0.011534  0  0.077119  0.099145  0  1.052954  0
H  H31  1  0.20381916  0.59241479  0.71102785  1  0.009054  0  0.07661  0.098375  0  1.051258  0
H  H32  1  0.49251069  0.09274627  0.21110987  1  0.011539  0  0.077089  0.099087  0  1.052919  0
H  H33  1  0.79617059  0.40758432  0.28896221  1  0.009044  0  0.07661  0.098418  0  1.051246  0
H  H34  1  0.61632317  0.85074185  0.69282532  1  0.028599  0  0.086609  0.121886  0  1.001515  0
H  H35  1  0.16002429  0.64881521  0.80715504  1  0.017244  0  0.086026  0.121096  0  1.000669  0
H  H36  1  0.38368175  0.14925830  0.30717010  1  0.028708  0  0.086603  0.121878  0  1.001504  0
H  H37  1  0.83998469  0.35117122  0.19283797  1  0.017103  0  0.086074  0.121102  0  1.000687  0
H  H38  1  0.57397566  0.70802010  0.04961461  1  0.057735  0  0.086878  0.055834  0  0.991613  0
H  H39  1  0.33225290  0.79183665  0.45031888  1  0.034385  0  0.087396  0.055909  0  0.99211  0
H  H40  1  0.42601644  0.29198781  0.95038354  1  0.057895  0  0.086884  0.055781  0  0.991532  0
H  H41  1  0.66775323  0.20816775  0.54967613  1  0.034444  0  0.08742  0.055931  0  0.99218  0
H  H42  1  0.54940380  0.55003688  0.16362535  1  -0.027601  0  0.076394  0.100544  0  1.03008  0
H  H43  1  0.26355756  0.94996477  0.33634900  1  -0.016136  0  0.076606  0.10033  0  1.029906  0
H  H44  1  0.45057652  0.44997885  0.83637713  1  -0.027576  0  0.076404  0.100587  0  1.03005  0
H  H45  1  0.73641806  0.05004750  0.66365200  1  -0.016033  0  0.076608  0.10036  0  1.029908  0
H  H46  1  0.45776491  0.55950517  0.08551005  1  0.053541  0  0.086785  0.12493  0  1.019988  0
H  H47  1  0.10331383  0.94041493  0.41452629  1  0.042959  0  0.086915  0.124736  0  1.020938  0
H  H48  1  0.54222005  0.44050714  0.91449220  1  0.053763  0  0.086782  0.124939  0  1.019837  0
H  H49  1  0.89667332  0.05959481  0.58547542  1  0.043085  0  0.086928  0.124783  0  1.020936  0
H  H50  1  0.63336787  0.45211815  0.08715594  1  0.036086  0  0.082402  0.112204  0  1.013913  0
H  H51  1  0.17320077  0.04774373  0.41290555  1  0.037585  0  0.082422  0.111955  0  1.013608  0
H  H52  1  0.36661434  0.54789342  0.91284934  1  0.036187  0  0.082355  0.112165  0  1.014161  0
H  H53  1  0.82678669  0.95225843  0.58709870  1  0.037654  0  0.082414  0.111926  0  1.013597  0
H  H54  1  0.77700910  0.61368925  0.12280833  1  0.004841  0  0.07931  0.10843  0  1.048946  0
H  H55  1  0.51429305  0.88626532  0.37727827  1  0.028825  0  0.079569  0.108684  0  1.04868  0
H  H56  1  0.22297255  0.38631894  0.87719768  1  0.004748  0  0.079333  0.108448  0  1.049043  0
H  H57  1  0.48569367  0.11374753  0.62271519  1  0.02869  0  0.079554  0.10856  0  1.048618  0
H  H58  1  0.86671399  0.50761764  0.05380724  1  0.031493  0  0.084963  0.112946  0  1.024282  0
H  H59  1  0.42854482  0.99226810  0.44633811  1  0.02409  0  0.084615  0.112846  0  1.023655  0
H  H60  1  0.13327168  0.49238614  0.94619466  1  0.031348  0  0.084962  0.112932  0  1.024288  0
H  H61  1  0.57144321  0.00774652  0.55365718  1  0.024194  0  0.08466  0.112916  0  1.023665  0
H  H62  1  0.85333071  0.64999513  0.01542734  1  -0.010592  0  0.081411  0.111103  0  1.015981  0
H  H63  1  0.51922164  0.84987607  0.48467989  1  -0.00903  0  0.081847  0.112018  0  1.014459  0
H  H64  1  0.14665655  0.35001207  0.98457483  1  -0.010776  0  0.081429  0.111087  0  1.015922  0
H  H65  1  0.48077767  0.15013423  0.51531351  1  -0.009044  0  0.081855  0.111954  0  1.014729  0
H  H66  1  0.12341766  0.15141617  0.91890144  1  0.184048  0  0.132583  0.11565  0  0.967445  0
H  H67  1  0.19402679  0.34823364  0.58103531  1  0.156092  0  0.132796  0.115926  0  0.967627  0
H  H68  1  0.87659448  0.84859143  0.08111217  1  0.183928  0  0.132588  0.115682  0  0.967528  0
H  H69  1  0.80599708  0.65172677  0.41896868  1  0.157134  0  0.132761  0.115995  0  0.967493  0
H  H70  1  0.23894078  0.04114738  0.03640206  1  0.078638  0  0.118291  0.124525  0  0.996238  0
H  H71  1  0.31684808  0.45856565  0.46355295  1  0.08714  0  0.118594  0.125152  0  0.993857  0
H  H72  1  0.76109976  0.95887791  0.96360602  1  0.091931  0  0.11833  0.1246  0  0.996279  0
H  H73  1  0.68320601  0.54136904  0.53644600  1  0.08571  0  0.118618  0.125073  0  0.994048  0
H  H74  1  0.66147840  0.04485561  0.87179006  1  0.107957  0  0.118953  0.125602  0  0.996046  0
H  H75  1  0.57767198  0.45537083  0.62833528  1  0.07704  0  0.118991  0.125346  0  0.996706  0
H  H76  1  0.33853912  0.95519267  0.12819358  1  0.108301  0  0.118881  0.125462  0  0.996461  0
H  H77  1  0.42232606  0.54461724  0.37167975  1  0.07708  0  0.11897  0.125201  0  0.996827  0
H  H78  1  0.52813171  0.15107628  0.76213598  1  0.088108  0  0.121381  0.083971  0  1.007488  0
H  H79  1  0.44088018  0.34904352  0.73794156  1  0.078731  0  0.121333  0.084115  0  1.006244  0
H  H80  1  0.47186175  0.84894225  0.23784923  1  0.087821  0  0.121321  0.083873  0  1.007588  0
H  H81  1  0.55909366  0.65095917  0.26207765  1  0.078871  0  0.121329  0.084074  0  1.006138  0
H  H82  1  0.38008695  0.81263389  0.90501278  1  0.618878  0  0.322292  0.350639  0  0.918599  0
H  H83  1  0.09791390  0.68720802  0.59499234  1  0.597141  0  0.322318  0.350419  0  0.919176  0
H  H84  1  0.61990343  0.18737329  0.09498881  1  0.61864  0  0.322339  0.350744  0  0.918527  0
H  H85  1  0.90207043  0.31280335  0.40500722  1  0.596955  0  0.322357  0.35052  0  0.919103  0
C  C86  1  0.93816993  0.42346221  0.77651758  1  1.513821  0  0.186598  0.560897  0  4.233428  0
C  C87  1  0.13805368  0.07626191  0.72357679  1  1.537912  0  0.187147  0.562457  0  4.228861  0
C  C88  1  0.06181801  0.57653662  0.22348899  1  1.513797  0  0.186628  0.561012  0  4.233552  0
C  C89  1  0.86194799  0.92373181  0.27642937  1  1.537395  0  0.187175  0.562519  0  4.229082  0
C  C90  1  0.80519867  0.51175407  0.82141044  1  0.01943  0  -0.035213  -0.058462  0  4.056366  0
C  C91  1  0.13820525  0.98809120  0.67862149  1  0.057491  0  -0.034819  -0.057553  0  4.057334  0
C  C92  1  0.19477859  0.48824308  0.17859662  1  0.019276  0  -0.035132  -0.058324  0  4.056408  0
C  C93  1  0.86179704  0.01190352  0.32138915  1  0.058037  0  -0.034754  -0.057506  0  4.057021  0
C  C94  1  0.70206909  0.58871499  0.77742261  1  -0.068626  0  -0.09272  -0.137065  0  3.997466  0
C  C95  1  0.06811078  0.91107290  0.72257340  1  -0.025579  0  -0.092546  -0.136659  0  4.003295  0
C  C96  1  0.29791717  0.41128287  0.22258026  1  -0.069062  0  -0.09268  -0.137205  0  3.997489  0
C  C97  1  0.93189772  0.08892399  0.27742613  1  -0.026019  0  -0.092624  -0.136778  0  4.002972  0
C  C98  1  0.57870614  0.67498031  0.81592187  1  0.030724  0  -0.028077  -0.056765  0  3.967819  0
C  C99  1  0.06971101  0.82479317  0.68404950  1  -0.014232  0  -0.028092  -0.05687  0  3.968433  0
C  C100  1  0.42129166  0.32501501  0.18408172  1  0.031981  0  -0.028029  -0.056727  0  3.967972  0
C  C101  1  0.93029403  0.17520438  0.31594459  1  -0.014147  0  -0.027964  -0.056647  0  3.9681  0
C  C102  1  0.56151953  0.68384397  0.90133473  1  0.382546  0  0.080187  0.202551  0  4.029733  0
C  C103  1  0.14684825  0.81598741  0.59862416  1  0.38252  0  0.080479  0.203627  0  4.029295  0
C  C104  1  0.43847170  0.31615909  0.09867104  1  0.381851  0  0.080115  0.202547  0  4.029453  0
C  C105  1  0.85314960  0.18400766  0.40137230  1  0.382578  0  0.080544  0.203613  0  4.029057  0
C  C106  1  0.66430536  0.60832180  0.94726664  1  0.076466  0  -0.018542  -0.015889  0  3.910037  0
C  C107  1  0.22014986  0.89149305  0.55271322  1  0.018519  0  -0.018868  -0.019513  0  3.912755  0
C  C108  1  0.33567889  0.39168286  0.05273596  1  0.076366  0  -0.018603  -0.016173  0  3.909551  0
C  C109  1  0.77985620  0.10850457  0.44728305  1  0.018585  0  -0.018911  -0.019425  0  3.912846  0
C  C110  1  0.78426674  0.52214111  0.90608079  1  -0.093138  0  -0.088754  -0.142619  0  3.976425  0
C  C111  1  0.21252723  0.97768683  0.59394542  1  -0.098736  0  -0.088432  -0.140556  0  3.976593  0
C  C112  1  0.21572120  0.47785769  0.09392459  1  -0.093397  0  -0.088803  -0.142558  0  3.976311  0
C  C113  1  0.78747151  0.02231101  0.40605693  1  -0.099055  0  -0.088448  -0.140595  0  3.976849  0
C  C114  1  0.46996302  0.75997497  0.76669911  1  0.04038  0  -0.084735  0.093683  0  3.902478  0
C  C115  1  0.99670157  0.73981723  0.73331383  1  0.026824  0  -0.085025  0.092082  0  3.901073  0
C  C116  1  0.53004493  0.24002770  0.23329528  1  0.040104  0  -0.084779  0.093735  0  3.902652  0
C  C117  1  0.00330448  0.26018043  0.26668363  1  0.027348  0  -0.085068  0.09208  0  3.901077  0
C  C118  1  0.46406078  0.71185777  0.69246897  1  -0.016321  0  -0.248458  -0.38869  0  3.919946  0
C  C119  1  0.86845888  0.78785267  0.80759687  1  -0.07998  0  -0.249525  -0.391041  0  3.921439  0
C  C120  1  0.53593857  0.28814322  0.30752613  1  -0.016325  0  -0.248367  -0.388563  0  3.919777  0
C  C121  1  0.13154754  0.21214427  0.19240423  1  -0.080344  0  -0.249432  -0.39093  0  3.921591  0
C  C122  1  0.50587972  0.86958433  0.73641648  1  -0.062982  0  -0.247047  -0.391588  0  3.895479  0
C  C123  1  0.11199185  0.63008769  0.76353285  1  -0.041193  0  -0.246808  -0.390986  0  3.891647  0
C  C124  1  0.49413030  0.13041838  0.26357931  1  -0.06293  0  -0.246956  -0.391518  0  3.895295  0
C  C125  1  0.88800734  0.36990897  0.23646009  1  -0.040952  0  -0.246851  -0.391158  0  3.891595  0
C  C126  1  0.64547904  0.61986268  0.03861411  1  -0.007677  0  -0.091374  0.085219  0  3.889708  0
C  C127  1  0.30447241  0.87998706  0.46135139  1  0.045045  0  -0.091339  0.087655  0  3.887833  0
C  C128  1  0.35450493  0.38014937  0.96138061  1  -0.007779  0  -0.091322  0.085628  0  3.889058  0
C  C129  1  0.69550306  0.12002088  0.53864746  1  0.045177  0  -0.091263  0.087557  0  3.887716  0
C  C130  1  0.56637231  0.54130721  0.09705364  1  -0.042941  0  -0.24462  -0.382238  0  3.9159  0
C  C131  1  0.20530076  0.95858586  0.40294765  1  -0.052737  0  -0.244681  -0.381206  0  3.915996  0
C  C132  1  0.43360889  0.45870422  0.90294768  1  -0.043265  0  -0.244584  -0.382379  0  3.915958  0
C  C133  1  0.79468662  0.04141871  0.59705259  1  -0.053324  0  -0.24476  -0.381291  0  3.915707  0
C  C134  1  0.79355557  0.59665028  0.05846892  1  -0.016495  0  -0.248755  -0.393058  0  3.938972  0
C  C135  1  0.44917850  0.90324166  0.44160879  1  -0.03944  0  -0.249739  -0.395688  0  3.937129  0
C  C136  1  0.20643068  0.40335678  0.94152928  1  -0.016223  0  -0.248799  -0.393126  0  3.939035  0
C  C137  1  0.55081366  0.09676598  0.55838164  1  -0.039329  0  -0.249813  -0.395508  0  3.937432  0
C  C138  1  0.24217454  0.12605606  0.91232786  1  0.448429  0  0.066049  0.116625  0  3.899385  0
C  C139  1  0.28077016  0.37364210  0.58762710  1  0.519813  0  0.06584  0.116305  0  3.901512  0
C  C140  1  0.75784756  0.87394757  0.08766971  1  0.44807  0  0.066148  0.116673  0  3.899408  0
C  C141  1  0.71924852  0.62631831  0.41237666  1  0.513295  0  0.06574  0.115966  0  3.901004  0
C  C142  1  0.30896436  0.06406176  0.97730867  1  0.011138  0  -0.066846  -0.15474  0  3.900947  0
C  C143  1  0.35057544  0.43568599  0.52265082  1  -0.036345  0  -0.068108  -0.155516  0  3.899735  0
C  C144  1  0.69107689  0.93594788  0.02269022  1  -0.002249  0  -0.066923  -0.154969  0  3.90128  0
C  C145  1  0.64946481  0.56425641  0.47734927  1  -0.030148  0  -0.06807  -0.155347  0  3.899699  0
C  C146  1  0.46269581  0.03249897  0.96592401  1  0.028501  0  0.023918  0.113017  0  3.952394  0
C  C147  1  0.46114236  0.46742609  0.53407434  1  0.007828  0  0.024596  0.11255  0  3.95335  0
C  C148  1  0.53734170  0.96751876  0.03406275  1  -0.002949  0  0.023891  0.113061  0  3.952418  0
C  C149  1  0.53889637  0.53251965  0.46592422  1  -0.028873  0  0.024589  0.112549  0  3.953205  0
C  C150  1  0.54210134  0.06554627  0.88657081  1  -0.048276  0  -0.069368  -0.160973  0  3.926019  0
C  C151  1  0.49404318  0.43448911  0.61345366  1  0.005276  0  -0.068998  -0.159631  0  3.92315  0
C  C152  1  0.45792585  0.93447815  0.11341244  1  -0.048751  0  -0.06944  -0.161032  0  3.926532  0
C  C153  1  0.50597191  0.56548168  0.38655482  1  0.004844  0  -0.06904  -0.159462  0  3.923238  0
C  C154  1  0.46753238  0.12656941  0.82445784  1  0.498835  0  0.055204  0.088912  0  3.969521  0
C  C155  1  0.41838068  0.37339631  0.67555327  1  0.491047  0  0.055002  0.088228  0  3.963699  0
C  C156  1  0.53248370  0.87343819  0.17553175  1  0.499722  0  0.055393  0.089085  0  3.969842  0
C  C157  1  0.58161269  0.62658821  0.32445790  1  0.491672  0  0.055001  0.088119  0  3.963768  0
N  N158  1  0.32001979  0.15750888  0.83675213  1  -1.256948  0  -0.319851  -0.219399  0  3.550913  0
N  N159  1  0.31428690  0.34228849  0.66322671  1  -1.244487  0  -0.320044  -0.219585  0  3.551828  0
N  N160  1  0.67997956  0.84249210  0.16324298  1  -1.257138  0  -0.319938  -0.219395  0  3.550975  0
N  N161  1  0.68571333  0.65768991  0.33678014  1  -1.24464  0  -0.31991  -0.219254  0  3.551535  0
O  O162  1  0.02566227  0.35228926  0.82322896  1  -1.169346  0  -0.343791  -0.562344  0  2.329436  0
O  O163  1  0.20100857  0.14753341  0.67689325  1  -1.169518  0  -0.343647  -0.563015  0  2.326626  0
O  O164  1  0.97432264  0.64770703  0.17677803  1  -1.169407  0  -0.343825  -0.562466  0  2.329391  0
O  O165  1  0.79898029  0.85246800  0.32311387  1  -1.169428  0  -0.343693  -0.563023  0  2.326664  0
O  O166  1  0.96380984  0.42118434  0.69873586  1  -1.160204  0  -0.349398  -0.575716  0  2.085125  0
O  O167  1  0.08377853  0.07831851  0.80139591  1  -1.187275  0  -0.350252  -0.576852  0  2.084342  0
O  O168  1  0.03618537  0.57882367  0.30126528  1  -1.160239  0  -0.349381  -0.575713  0  2.085455  0
O  O169  1  0.91623270  0.92167011  0.19861061  1  -1.187143  0  -0.3502  -0.576866  0  2.084495  0
O  O170  1  0.44373752  0.76813028  0.94312506  1  -1.155401  0  -0.356778  -0.447634  0  2.306785  0
O  O171  1  0.15522314  0.73168819  0.55684478  1  -1.125824  0  -0.35704  -0.447547  0  2.306878  0
O  O172  1  0.55626387  0.23188000  0.05686796  1  -1.154876  0  -0.356831  -0.447767  0  2.306609  0
O  O173  1  0.84476214  0.26831651  0.44315881  1  -1.125643  0  -0.357186  -0.44778  0  2.306649  0
