# generated using pymatgen
data_Mn2H18C28N8O9
_symmetry_space_group_name_H-M   'P 1'
_cell_length_a   12.78085123
_cell_length_b   12.78083427
_cell_length_c   13.78803948
_cell_angle_alpha   66.62195637
_cell_angle_beta   66.62207507
_cell_angle_gamma   63.79386300
_symmetry_Int_Tables_number   1
_chemical_formula_structural   Mn2H18C28N8O9
_chemical_formula_sum   'Mn4 H36 C56 N16 O18'
_cell_volume   1786.48486020
_cell_formula_units_Z   2
loop_
 _symmetry_equiv_pos_site_id
 _symmetry_equiv_pos_as_xyz
  1  'x, y, z'
loop_
 _atom_site_type_symbol
 _atom_site_label
 _atom_site_symmetry_multiplicity
 _atom_site_fract_x
 _atom_site_fract_y
 _atom_site_fract_z
 _atom_site_occupancy
 _atom_site_pbe_bader_charge
 _atom_site_pbe_bader_spin_density
 _atom_site_pbe_cm5_charge
 _atom_site_pbe_ddec_charge
 _atom_site_pbe_ddec_spin_density
 _atom_site_pbe_ddec_sum_bond_order
 _atom_site_pbe_magmom
Mn  Mn0  1  0.74223985  0.29030517  0.10314886  1  1.513029  4.54023  0.602918  0.942579  4.668946  2.378993  4.47
Mn  Mn1  1  0.70969135  0.25776502  0.39685133  1  1.513083  4.540227  0.6029  0.942564  4.668939  2.379003  4.47
Mn  Mn2  1  0.25775997  0.70969478  0.89685695  1  1.513068  4.540232  0.602911  0.942544  4.668942  2.379017  4.47
Mn  Mn3  1  0.29030748  0.74224121  0.60314383  1  1.513029  4.540238  0.602902  0.942554  4.668942  2.379013  4.47
H  H4  1  0.90008670  0.18889499  0.21766529  1  0.650131  0.001666  0.294111  0.378245  0.001507  0.969013  0.002
H  H5  1  0.81110589  0.09991359  0.28233443  1  0.650135  0.001666  0.29409  0.378221  0.001507  0.969024  0.002
H  H6  1  0.09991400  0.81110637  0.78233388  1  0.65013  0.001665  0.294117  0.378257  0.001507  0.968992  0.002
H  H7  1  0.18889393  0.90008636  0.71766558  1  0.650132  0.001665  0.2941  0.378236  0.001507  0.968999  0.002
H  H8  1  0.90378096  0.55816076  0.03849992  1  0.092396  0.000353  0.107755  0.112703  1.3e-05  1.001968  0.0
H  H9  1  0.44184099  0.09621988  0.46150049  1  0.092366  0.000353  0.107736  0.112693  1.3e-05  1.001982  0.0
H  H10  1  0.09622062  0.44184203  0.96149840  1  0.092396  0.000353  0.107729  0.11267  1.3e-05  1.001984  0.0
H  H11  1  0.55815793  0.90377951  0.53850223  1  0.092391  0.000353  0.107749  0.112711  1.3e-05  1.001949  0.0
H  H12  1  0.61054450  0.89128140  0.20877031  1  0.103101  0.000362  0.11724  0.133932  0.000157  0.991521  0.0
H  H13  1  0.10871957  0.38945382  0.29122801  1  0.103103  0.000362  0.117248  0.133959  0.000157  0.991475  0.0
H  H14  1  0.38945350  0.10871914  0.79122943  1  0.103124  0.000362  0.117262  0.133987  0.000157  0.991453  0.0
H  H15  1  0.89128116  0.61054498  0.70876991  1  0.103112  0.000362  0.117227  0.133916  0.000157  0.991519  0.0
H  H16  1  0.55232114  0.75344576  0.42328224  1  0.144735  0.000573  0.140092  0.106489  6.7e-05  0.998519  0.0
H  H17  1  0.24655401  0.44767841  0.07671540  1  0.144679  0.000573  0.140085  0.106519  6.7e-05  0.998539  0.0
H  H18  1  0.44768051  0.24655189  0.57671505  1  0.144649  0.000573  0.140068  0.106486  6.7e-05  0.998552  0.0
H  H19  1  0.75344856  0.55231809  0.92328415  1  0.144706  0.000573  0.140079  0.106492  6.7e-05  0.998545  0.0
H  H20  1  0.31238320  0.61343736  0.41813202  1  0.120482  0.000829  0.122262  0.111898  0.000414  1.001296  0.0
H  H21  1  0.38656235  0.68761651  0.08186624  1  0.120485  0.000829  0.122278  0.111917  0.000414  1.001254  0.0
H  H22  1  0.68761573  0.38656118  0.58186884  1  0.12052  0.000829  0.122286  0.111922  0.000414  1.00129  0.0
H  H23  1  0.61343748  0.31238172  0.91813367  1  0.120451  0.000829  0.122258  0.111903  0.000414  1.001251  0.0
H  H24  1  0.49891431  0.61304732  0.22211636  1  0.137925  0.000823  0.125539  0.124177  0.000302  1.033396  0.0
H  H25  1  0.38695296  0.50108678  0.27788131  1  0.138314  0.000823  0.125567  0.124202  0.000302  1.033378  0.0
H  H26  1  0.50108549  0.38695348  0.77788190  1  0.138299  0.000823  0.125572  0.124208  0.000302  1.033372  0.0
H  H27  1  0.61304776  0.49891288  0.72211848  1  0.13799  0.000823  0.12557  0.124221  0.000302  1.033363  0.0
H  H28  1  0.73110235  0.99626102  0.20609506  1  0.187854  0.000455  0.134757  0.110253  0.000163  1.026588  0.0
H  H29  1  0.00373985  0.26889492  0.29390660  1  0.187889  0.000455  0.13473  0.110201  0.000163  1.026559  0.0
H  H30  1  0.26889564  0.00374123  0.79390624  1  0.18788  0.000455  0.134742  0.110253  0.000163  1.026475  0.0
H  H31  1  0.99625905  0.73110618  0.70609332  1  0.18791  0.000455  0.134738  0.110239  0.000163  1.026506  0.0
H  H32  1  0.87575934  0.18253089  0.88480332  1  0.116522  0.000741  0.122564  0.116517  0.000283  0.996838  0.0
H  H33  1  0.81747114  0.12424452  0.61520310  1  0.116474  0.000741  0.122542  0.116476  0.000283  0.99693  0.0
H  H34  1  0.12424496  0.81747102  0.11520230  1  0.11649  0.000741  0.12255  0.116477  0.000283  0.996905  0.0
H  H35  1  0.18252777  0.87575573  0.38479569  1  0.11648  0.000741  0.122542  0.116474  0.000283  0.996913  0.0
H  H36  1  0.87744853  0.96607318  0.87911288  1  0.171175  0.000693  0.124579  0.13408  0.000376  1.031817  0.0
H  H37  1  0.03393255  0.12255502  0.62088671  1  0.17116  0.000693  0.124562  0.133973  0.000376  1.031898  0.0
H  H38  1  0.12255481  0.03393245  0.12088665  1  0.171156  0.000693  0.124563  0.133975  0.000376  1.031903  0.0
H  H39  1  0.96606728  0.87744321  0.37911248  1  0.171075  0.000693  0.124568  0.134041  0.000376  1.031824  0.0
C  C40  1  0.74257696  0.61046862  0.16473717  1  0.045955  0.006806  -0.010369  -0.094627  0.004713  3.966504  0.003
C  C41  1  0.38953206  0.25742137  0.33526152  1  0.045944  0.006806  -0.01036  -0.094608  0.004713  3.96656  0.003
C  C42  1  0.25742013  0.38953307  0.83526103  1  0.045926  0.006806  -0.010357  -0.094568  0.004713  3.966503  0.003
C  C43  1  0.61046867  0.74257743  0.66473858  1  0.045987  0.006805  -0.010361  -0.094603  0.004712  3.966509  0.003
C  C44  1  0.84109119  0.63099733  0.07722920  1  -0.018279  0.008891  -0.082365  -0.113522  0.006743  3.975464  0.005
C  C45  1  0.36900335  0.15891000  0.42277066  1  -0.018291  0.008891  -0.082332  -0.113538  0.006742  3.975546  0.005
C  C46  1  0.15890953  0.36900233  0.92277131  1  -0.018276  0.00889  -0.082358  -0.113582  0.006742  3.975494  0.005
C  C47  1  0.63099647  0.84108995  0.57723008  1  -0.018283  0.00889  -0.082355  -0.113586  0.006742  3.975496  0.005
C  C48  1  0.86394779  0.73953745  0.04059567  1  0.020802  0.004224  -0.008168  -0.084703  0.0028  3.952746  0.002
C  C49  1  0.26046398  0.13605180  0.45940663  1  0.020811  0.004224  -0.008178  -0.084595  0.0028  3.95276  0.002
C  C50  1  0.13605201  0.26046336  0.95940693  1  0.020794  0.004224  -0.008178  -0.084563  0.0028  3.952712  0.002
C  C51  1  0.73953492  0.86394931  0.54059475  1  0.02072  0.004223  -0.008208  -0.084638  0.0028  3.952715  0.002
C  C52  1  0.78101425  0.83350823  0.08980188  1  0.337316  0.009709  0.10183  0.158212  0.008001  3.987296  0.007
C  C53  1  0.16649478  0.21898383  0.41019810  1  0.338548  0.009707  0.101807  0.15805  0.008001  3.987414  0.007
C  C54  1  0.21898373  0.16649402  0.91019869  1  0.338511  0.009707  0.101808  0.158074  0.008001  3.987412  0.007
C  C55  1  0.83350504  0.78101612  0.58980119  1  0.33862  0.009707  0.101821  0.158087  0.008001  3.98733  0.007
C  C56  1  0.67891004  0.81650885  0.17487571  1  -0.002607  0.000518  -0.086659  -0.247309  0.000422  3.965124  0.0
C  C57  1  0.18349278  0.32108803  0.32512183  1  -0.002591  0.000518  -0.086664  -0.247311  0.000422  3.965206  0.0
C  C58  1  0.32108703  0.18349370  0.82512218  1  -0.002588  0.000518  -0.086678  -0.247368  0.000422  3.965192  0.0
C  C59  1  0.81650706  0.67891020  0.67487736  1  -0.002637  0.000518  -0.086657  -0.247253  0.000422  3.965179  0.0
C  C60  1  0.66151876  0.70502406  0.21337204  1  0.271555  0.009312  0.094435  0.152507  0.007585  4.012895  0.006
C  C61  1  0.29497677  0.33847991  0.28662563  1  0.271521  0.009312  0.094452  0.152511  0.007585  4.01302  0.006
C  C62  1  0.33847832  0.29497763  0.78662544  1  0.271423  0.009312  0.094463  0.152546  0.007585  4.012948  0.006
C  C63  1  0.70502397  0.66151803  0.71337406  1  0.271546  0.009311  0.094462  0.152484  0.007584  4.013078  0.006
C  C64  1  0.51025288  0.71689004  0.39581660  1  0.992274  0.012677  0.15467  0.116791  0.010183  3.873611  0.009
C  C65  1  0.28311067  0.48974605  0.10418092  1  0.992265  0.012679  0.154651  0.116696  0.010185  3.87362  0.009
C  C66  1  0.48974786  0.28310790  0.60418091  1  0.992353  0.012677  0.154679  0.116787  0.010183  3.873555  0.009
C  C67  1  0.71689281  0.51024930  0.89581872  1  0.992305  0.012676  0.154644  0.116722  0.010182  3.87361  0.009
C  C68  1  0.39009691  0.64224407  0.38977882  1  0.422015  0.005769  0.005587  -0.030752  0.004095  4.013619  0.004
C  C69  1  0.35775488  0.60990360  0.11022018  1  0.421872  0.00577  0.005567  -0.030777  0.004095  4.013685  0.004
C  C70  1  0.60990384  0.35775301  0.61022118  1  0.421865  0.00577  0.005578  -0.030773  0.004095  4.013779  0.004
C  C71  1  0.64224675  0.39009490  0.88977969  1  0.421872  0.005769  0.005561  -0.030781  0.004094  4.013737  0.004
C  C72  1  0.47970657  0.64203351  0.29304978  1  0.254  0.0016  -0.000856  -0.109802  0.000809  3.929674  0.001
C  C73  1  0.35796536  0.52029393  0.20694787  1  0.253663  0.0016  -0.000893  -0.109827  0.000808  3.92967  0.001
C  C74  1  0.52029326  0.35796473  0.70694796  1  0.253627  0.0016  -0.000869  -0.109786  0.000808  3.929661  0.001
C  C75  1  0.64203538  0.47970401  0.79305254  1  0.253667  0.0016  -0.000904  -0.109879  0.000809  3.929655  0.001
C  C76  1  0.76680685  0.02095315  0.11753170  1  0.92471  0.011685  0.148298  0.107225  0.009287  3.874708  0.008
C  C77  1  0.97904797  0.23318929  0.38247165  1  0.924697  0.011681  0.148359  0.107227  0.009284  3.874855  0.008
C  C78  1  0.23319024  0.97904854  0.88247085  1  0.924681  0.011685  0.148373  0.107237  0.009286  3.874712  0.008
C  C79  1  0.02095184  0.76681151  0.61752660  1  0.92475  0.011681  0.148358  0.107157  0.009284  3.874891  0.008
C  C80  1  0.84476670  0.11187501  0.95051933  1  0.370302  0.004731  0.00029  -0.031473  0.003287  4.028503  0.003
C  C81  1  0.88812589  0.15523572  0.54948516  1  0.37026  0.004729  0.000301  -0.031516  0.003287  4.028463  0.003
C  C82  1  0.15523580  0.88812663  0.04948415  1  0.370264  0.00473  0.000301  -0.031485  0.003287  4.028419  0.003
C  C83  1  0.11187303  0.84476367  0.45051394  1  0.37032  0.004729  0.000325  -0.031503  0.003287  4.028457  0.003
C  C84  1  0.84727163  0.00566443  0.94602236  1  0.267424  0.001206  -0.005799  -0.111763  0.000577  3.9138  0.001
C  C85  1  0.99433966  0.15272912  0.55398019  1  0.267572  0.001207  -0.005834  -0.111695  0.000578  3.913793  0.001
C  C86  1  0.15272903  0.99433951  0.05397950  1  0.267544  0.001207  -0.005812  -0.111663  0.000577  3.91377  0.001
C  C87  1  0.00565926  0.84727027  0.44601891  1  0.267566  0.001206  -0.00586  -0.111804  0.000577  3.913745  0.001
C  C88  1  0.98063081  0.74682144  0.95399291  1  1.606183  0.006832  0.210962  0.585717  0.006349  4.241636  0.006
C  C89  1  0.25317944  0.01937020  0.54600961  1  1.606188  0.006833  0.210928  0.585692  0.00635  4.241584  0.006
C  C90  1  0.01936988  0.25318079  0.04600885  1  1.606176  0.006832  0.210934  0.5856  0.006348  4.241668  0.006
C  C91  1  0.74681855  0.98063120  0.45399272  1  1.606182  0.006831  0.210989  0.585725  0.006347  4.241528  0.006
C  C92  1  0.72907118  0.48768900  0.20389651  1  1.623522  0.019088  0.221788  0.599348  0.018059  4.219928  0.016
C  C93  1  0.51231116  0.27093003  0.29610210  1  1.623577  0.019085  0.221753  0.599289  0.018057  4.219996  0.016
C  C94  1  0.27092862  0.51231180  0.79610174  1  1.623576  0.019083  0.221716  0.59923  0.018055  4.220045  0.016
C  C95  1  0.48768867  0.72906906  0.70390039  1  1.623571  0.019086  0.221766  0.59942  0.018056  4.219818  0.016
N  N96  1  0.55555528  0.68991098  0.29756853  1  -1.25429  0.006073  -0.222583  0.011171  0.003394  3.807235  0.003
N  N97  1  0.31008943  0.44444407  0.20242971  1  -1.25391  0.006074  -0.222572  0.011208  0.003395  3.807148  0.003
N  N98  1  0.44444362  0.31008926  0.70242953  1  -1.253799  0.006072  -0.222581  0.011179  0.003395  3.807117  0.003
N  N99  1  0.68991221  0.55555358  0.79756975  1  -1.253902  0.006073  -0.222538  0.011259  0.003394  3.807104  0.003
N  N100  1  0.41018135  0.68903799  0.45296319  1  -1.24051  0.05191  -0.337787  -0.281926  0.034268  3.498897  0.012
N  N101  1  0.31096134  0.58981860  0.04703586  1  -1.240368  0.051911  -0.337781  -0.281885  0.034268  3.499072  0.012
N  N102  1  0.58982031  0.31095880  0.54703586  1  -1.240387  0.051906  -0.337818  -0.281988  0.034268  3.499103  0.012
N  N103  1  0.68904032  0.41017819  0.95296463  1  -1.240425  0.051902  -0.337758  -0.281885  0.034266  3.49907  0.012
N  N104  1  0.79772141  0.94745636  0.05320509  1  -1.23424  0.005316  -0.222533  0.009907  0.003032  3.775292  0.002
N  N105  1  0.05254711  0.20227675  0.44679535  1  -1.235381  0.005316  -0.222502  0.010027  0.003031  3.775231  0.002
N  N106  1  0.20227747  0.05254645  0.94679494  1  -1.235343  0.005317  -0.222512  0.009989  0.003032  3.775276  0.002
N  N107  1  0.94745270  0.79772320  0.55320466  1  -1.235345  0.005316  -0.222515  0.010003  0.003031  3.775279  0.002
N  N108  1  0.79400246  0.12077552  0.05743401  1  -1.205855  0.051736  -0.339402  -0.298549  0.036118  3.505953  0.017
N  N109  1  0.87922574  0.20599815  0.44256977  1  -1.205964  0.051734  -0.339369  -0.298426  0.036115  3.505926  0.017
N  N110  1  0.20599824  0.87922585  0.94256950  1  -1.205978  0.05174  -0.339426  -0.298524  0.036118  3.505899  0.017
N  N111  1  0.12077316  0.79400295  0.55742943  1  -1.20601  0.051735  -0.339372  -0.298338  0.036113  3.505944  0.017
O  O112  1  0.71966454  0.45447809  0.13337230  1  -1.199945  0.059813  -0.303276  -0.558194  0.042771  2.311875  0.027
O  O113  1  0.54552399  0.28033515  0.36662474  1  -1.199964  0.059815  -0.303233  -0.55813  0.042771  2.311919  0.027
O  O114  1  0.28033344  0.54552416  0.86662464  1  -1.199911  0.059804  -0.3032  -0.558101  0.042767  2.311948  0.027
O  O115  1  0.45447769  0.71965993  0.63337711  1  -1.199923  0.059811  -0.303284  -0.558248  0.042772  2.31176  0.027
O  O116  1  0.73017946  0.42936469  0.30258096  1  -1.195752  0.065418  -0.30887  -0.552036  0.045571  2.299821  0.028
O  O117  1  0.57063344  0.26982159  0.19741705  1  -1.19581  0.065418  -0.308879  -0.552047  0.04557  2.299759  0.028
O  O118  1  0.26982126  0.57063496  0.69741520  1  -1.195839  0.065411  -0.308862  -0.552029  0.045567  2.299737  0.028
O  O119  1  0.42936547  0.73017865  0.80258391  1  -1.195867  0.065417  -0.308845  -0.552058  0.045569  2.299867  0.028
O  O120  1  0.06934110  0.71687198  0.99046131  1  -1.178403  0.049561  -0.303381  -0.54831  0.035083  2.277385  0.022
O  O121  1  0.28312970  0.93065998  0.50953959  1  -1.178282  0.049556  -0.303348  -0.548308  0.035083  2.277378  0.022
O  O122  1  0.93066049  0.28312996  0.00953949  1  -1.178283  0.049553  -0.30335  -0.548284  0.035082  2.277394  0.022
O  O123  1  0.71687010  0.06934083  0.49046156  1  -1.178401  0.049563  -0.303365  -0.548294  0.03508  2.277339  0.022
O  O124  1  0.98054612  0.77967382  0.85398882  1  -1.182011  0.005666  -0.321262  -0.564733  0.003032  2.169635  0.004
O  O125  1  0.22032710  0.01945242  0.64601457  1  -1.182113  0.005667  -0.321279  -0.56475  0.003032  2.169597  0.004
O  O126  1  0.01945276  0.22032814  0.14601369  1  -1.182102  0.005666  -0.321284  -0.564681  0.003031  2.169626  0.004
O  O127  1  0.77967092  0.98054727  0.35398766  1  -1.182051  0.005665  -0.321308  -0.564778  0.003031  2.169566  0.004
O  O128  1  0.81409854  0.18590165  0.24999998  1  -1.323479  0.109504  -0.552698  -0.768049  0.083218  2.314783  0.052
O  O129  1  0.18590127  0.81409830  0.75000004  1  -1.323456  0.109491  -0.552695  -0.768036  0.08321  2.314693  0.052
