# generated using pymatgen
data_SmH12C8NO11
_symmetry_space_group_name_H-M   'P 1'
_cell_length_a   6.61402177
_cell_length_b   12.28936988
_cell_length_c   17.70400000
_cell_angle_alpha   90.00000000
_cell_angle_beta   90.00000000
_cell_angle_gamma   90.00000000
_symmetry_Int_Tables_number   1
_chemical_formula_structural   SmH12C8NO11
_chemical_formula_sum   'Sm4 H48 C32 N4 O44'
_cell_volume   1439.01935918
_cell_formula_units_Z   4
loop_
 _symmetry_equiv_pos_site_id
 _symmetry_equiv_pos_as_xyz
  1  'x, y, z'
loop_
 _atom_site_type_symbol
 _atom_site_label
 _atom_site_symmetry_multiplicity
 _atom_site_fract_x
 _atom_site_fract_y
 _atom_site_fract_z
 _atom_site_occupancy
 _atom_site_hle17_bader_spin_density
 _atom_site_hle17_ddec_charge
 _atom_site_hle17_ddec_spin_density
 _atom_site_hle17_ddec_sum_bond_order
 _atom_site_hle17_magmom
 _atom_site_hse06_10hf_bader_spin_density
 _atom_site_hse06_10hf_ddec_charge
 _atom_site_hse06_10hf_ddec_spin_density
 _atom_site_hse06_10hf_ddec_sum_bond_order
 _atom_site_hse06_10hf_magmom
 _atom_site_hse06_bader_spin_density
 _atom_site_hse06_ddec_charge
 _atom_site_hse06_ddec_spin_density
 _atom_site_hse06_ddec_sum_bond_order
 _atom_site_hse06_magmom
 _atom_site_pbe_bader_charge
 _atom_site_pbe_bader_spin_density
 _atom_site_pbe_cm5_charge
 _atom_site_pbe_ddec_charge
 _atom_site_pbe_ddec_spin_density
 _atom_site_pbe_ddec_sum_bond_order
 _atom_site_pbe_magmom
Sm  Sm0  1  0.51628648  0.97374724  0.37749718  1  0  2.297631  0  1.596062  0  0  2.205176  0  1.93736  0  0  2.243142  0  1.899458  0  2.22513  0  1.483113  2.104313  0  2.102373  0
Sm  Sm1  1  0.48371174  0.02625521  0.87749605  1  0  2.297619  0  1.596057  0  0  2.205158  0  1.937358  0  0  2.243119  0  1.899457  0  2.225198  0  1.483148  2.104289  0  2.102381  0
Sm  Sm2  1  0.01628812  0.52624830  0.37749322  1  0  2.297658  0  1.596019  0  0  2.205208  0  1.937306  0  0  2.243172  0  1.899406  0  2.225358  0  1.483141  2.104369  0  2.102276  0
Sm  Sm3  1  0.98371312  0.47375090  0.87749605  1  0  2.297706  0  1.596026  0  0  2.205258  0  1.93732  0  0  2.243225  0  1.899418  0  2.225195  0  1.48317  2.104457  0  2.102236  0
H  H4  1  0.84283363  0.07710485  0.27829248  1  0  0.440483  0  0.805002  0  0  0.427485  0  0.850477  0  0  0.435473  0  0.841567  0  0.612337  0  0.335976  0.421458  0  0.856432  0
H  H5  1  0.15716156  0.92289923  0.77829361  1  0  0.440514  0  0.804985  0  0  0.427506  0  0.850468  0  0  0.435496  0  0.841549  0  0.61217  0  0.336005  0.421475  0  0.856422  0
H  H6  1  0.34285040  0.42289394  0.27829191  1  0  0.440573  0  0.804865  0  0  0.427563  0  0.850342  0  0  0.435561  0  0.841423  0  0.612324  0  0.336035  0.421532  0  0.856297  0
H  H7  1  0.65716445  0.57710933  0.77829530  1  0  0.440524  0  0.804953  0  0  0.427509  0  0.850459  0  0  0.4355  0  0.841539  0  0.61211  0  0.335999  0.421481  0  0.856415  0
H  H8  1  0.98610501  0.02126635  0.33784625  1  0  0.453486  0  0.830253  0  0  0.424633  0  0.890121  0  0  0.434892  0  0.874885  0  0.669694  0  0.310486  0.416827  0  0.901604  0
H  H9  1  0.01389170  0.97874180  0.83784625  1  0  0.453598  0  0.830084  0  0  0.424704  0  0.890044  0  0  0.434962  0  0.874807  0  0.669683  0  0.310551  0.416899  0  0.901526  0
H  H10  1  0.48610817  0.47874139  0.33784568  1  0  0.453675  0  0.829983  0  0  0.424784  0  0.889938  0  0  0.435041  0  0.874702  0  0.669699  0  0.310552  0.416978  0  0.901422  0
H  H11  1  0.51389157  0.52126839  0.83784738  1  0  0.453604  0  0.830086  0  0  0.424724  0  0.890011  0  0  0.434981  0  0.874776  0  0.669656  0  0.310501  0.416919  0  0.901493  0
H  H12  1  0.77647159  0.15265551  0.44517510  1  0  0.428115  0  0.876218  0  0  0.397623  0  0.939003  0  0  0.408207  0  0.923553  0  0.635782  0  0.298181  0.390017  0  0.94992  0
H  H13  1  0.22352512  0.84734206  0.94517171  1  0  0.428125  0  0.876218  0  0  0.397633  0  0.939004  0  0  0.408218  0  0.923553  0  0.63581  0  0.298177  0.390026  0  0.949923  0
H  H14  1  0.27647172  0.34733758  0.44517284  1  0  0.428135  0  0.876197  0  0  0.397634  0  0.939003  0  0  0.408218  0  0.923553  0  0.635805  0  0.298144  0.390027  0  0.94992  0
H  H15  1  0.72352347  0.65266487  0.94517284  1  0  0.428033  0  0.876339  0  0  0.397548  0  0.93911  0  0  0.408131  0  0.923661  0  0.63579  0  0.298124  0.389942  0  0.950026  0
H  H16  1  0.55960959  0.20003792  0.45703400  1  0  0.433486  0  0.873846  0  0  0.400259  0  0.941966  0  0  0.411536  0  0.925377  0  0.647888  0  0.295019  0.392119  0  0.953735  0
H  H17  1  0.44039468  0.79996534  0.95703174  1  0  0.433518  0  0.873769  0  0  0.40028  0  0.941917  0  0  0.411559  0  0.925325  0  0.647903  0  0.295015  0.39214  0  0.953686  0
H  H18  1  0.05960670  0.29995924  0.45703457  1  0  0.433508  0  0.873795  0  0  0.400283  0  0.941915  0  0  0.411558  0  0.92533  0  0.647845  0  0.29499  0.392143  0  0.953684  0
H  H19  1  0.94039303  0.70004322  0.95703174  1  0  0.433534  0  0.873762  0  0  0.40031  0  0.941879  0  0  0.411587  0  0.925293  0  0.647816  0  0.295013  0.392171  0  0.953648  0
H  H20  1  0.79143979  0.85689015  0.47684196  1  0  0.449603  0  0.808356  0  0  0.43086  0  0.858926  0  0  0.440426  0  0.844808  0  0.628503  0  0.326289  0.423864  0  0.869082  0
H  H21  1  0.20856599  0.14311067  0.97684309  1  0  0.449533  0  0.808396  0  0  0.43083  0  0.858938  0  0  0.440388  0  0.844832  0  0.628479  0  0.326287  0.423838  0  0.869094  0
H  H22  1  0.29142934  0.64310295  0.47684026  1  0  0.44956  0  0.808418  0  0  0.430847  0  0.858931  0  0  0.440409  0  0.844823  0  0.628598  0  0.326272  0.423852  0  0.869085  0
H  H23  1  0.70856586  0.35689706  0.97684139  1  0  0.449622  0  0.808292  0  0  0.430897  0  0.858859  0  0  0.440462  0  0.844745  0  0.628598  0  0.326305  0.423902  0  0.869014  0
H  H24  1  0.84917168  0.97455444  0.51169566  1  0  0.436802  0  0.866773  0  0  0.405298  0  0.930569  0  0  0.417222  0  0.913186  0  0.656083  0  0.293883  0.396494  0  0.943307  0
H  H25  1  0.15083258  0.02544557  0.01169510  1  0  0.436877  0  0.866677  0  0  0.405376  0  0.930465  0  0  0.4173  0  0.913082  0  0.656123  0  0.293921  0.396573  0  0.943201  0
H  H26  1  0.34917031  0.52544028  0.51169227  1  0  0.436866  0  0.866692  0  0  0.405369  0  0.930473  0  0  0.417291  0  0.91309  0  0.655883  0  0.293902  0.396564  0  0.943213  0
H  H27  1  0.65082640  0.47456054  0.01169453  1  0  0.436807  0  0.866762  0  0  0.405283  0  0.930585  0  0  0.417205  0  0.913204  0  0.655803  0  0.293855  0.396479  0  0.943324  0
H  H28  1  0.21557081  0.92628590  0.49908947  1  0  0.448963  0  0.80809  0  0  0.427648  0  0.863086  0  0  0.437177  0  0.848927  0  0.617785  0  0.326045  0.42048  0  0.87357  0
H  H29  1  0.78442137  0.07371330  0.99908947  1  0  0.448968  0  0.808155  0  0  0.427657  0  0.863086  0  0  0.437186  0  0.848928  0  0.617836  0  0.326044  0.420488  0  0.873571  0
H  H30  1  0.71557823  0.57372022  0.49908552  1  0  0.448885  0  0.808206  0  0  0.42758  0  0.863175  0  0  0.437108  0  0.849019  0  0.61783  0  0.326046  0.420412  0  0.873659  0
H  H31  1  0.28442906  0.42630257  0.99909286  1  0  0.448996  0  0.808168  0  0  0.427688  0  0.86306  0  0  0.437217  0  0.848901  0  0.61788  0  0.326082  0.420519  0  0.873546  0
H  H32  1  0.41051120  0.94421114  0.55215657  1  0  0.45129  0  0.85018  0  0  0.41766  0  0.916986  0  0  0.429534  0  0.899798  0  0.66573  0  0.293254  0.409015  0  0.929376  0
H  H33  1  0.58948249  0.05578480  0.05215714  1  0  0.451268  0  0.8502  0  0  0.417646  0  0.916994  0  0  0.42952  0  0.899807  0  0.665698  0  0.293253  0.408997  0  0.929391  0
H  H34  1  0.91051409  0.55578439  0.55215375  1  0  0.451281  0  0.850188  0  0  0.417656  0  0.916989  0  0  0.42953  0  0.8998  0  0.6658  0  0.293266  0.409008  0  0.929384  0
H  H35  1  0.08947506  0.44421643  0.05215488  1  0  0.451292  0  0.850176  0  0  0.417668  0  0.916972  0  0  0.429542  0  0.899785  0  0.665658  0  0.29327  0.409021  0  0.929367  0
H  H36  1  0.23106062  0.17173216  0.35324729  1  0  0.444208  0  0.797681  0  0  0.426384  0  0.850166  0  0  0.435289  0  0.839493  0  0.623837  0  0.334479  0.419623  0  0.857666  0
H  H37  1  0.76893608  0.82826460  0.85324559  1  0  0.444178  0  0.797719  0  0  0.426358  0  0.850192  0  0  0.435262  0  0.839524  0  0.623783  0  0.334484  0.419598  0  0.857688  0
H  H38  1  0.73106805  0.32825768  0.35324672  1  0  0.444176  0  0.79782  0  0  0.426361  0  0.85028  0  0  0.435263  0  0.839614  0  0.624158  0  0.334486  0.419601  0  0.857773  0
H  H39  1  0.26893319  0.67174071  0.85324616  1  0  0.444144  0  0.797852  0  0  0.426326  0  0.85032  0  0  0.435229  0  0.839653  0  0.624177  0  0.334472  0.419567  0  0.857814  0
H  H40  1  0.14313379  0.12747440  0.43012991  1  0  0.436283  0  0.859335  0  0  0.40279  0  0.926461  0  0  0.413657  0  0.910523  0  0.64333  0  0.304709  0.394704  0  0.93824  0
H  H41  1  0.85686594  0.87252643  0.93012653  1  0  0.436283  0  0.859312  0  0  0.402794  0  0.926436  0  0  0.413664  0  0.910493  0  0.643421  0  0.304735  0.394709  0  0.938213  0
H  H42  1  0.64313970  0.37252195  0.43012653  1  0  0.436314  0  0.859283  0  0  0.402827  0  0.926401  0  0  0.413698  0  0.910455  0  0.643443  0  0.304732  0.394741  0  0.93818  0
H  H43  1  0.35686154  0.62748132  0.93012822  1  0  0.436266  0  0.859351  0  0  0.402787  0  0.926451  0  0  0.413654  0  0.910513  0  0.643436  0  0.304723  0.394703  0  0.938228  0
H  H44  1  0.51029466  0.87730291  0.07001130  1  0  0.120689  0  0.956098  0  0  0.126802  0  1.02505  0  0  0.131227  0  1.021579  0  0.145211  0  0.118569  0.123619  0  1.027557  0
H  H45  1  0.48971263  0.12269710  0.57000734  1  0  0.120716  0  0.956182  0  0  0.126839  0  1.025118  0  0  0.131267  0  1.02164  0  0.145248  0  0.118549  0.123642  0  1.027667  0
H  H46  1  0.01029026  0.62269751  0.07000508  1  0  0.120755  0  0.956136  0  0  0.126859  0  1.025105  0  0  0.131294  0  1.021624  0  0.145217  0  0.118539  0.123664  0  1.027644  0
H  H47  1  0.98971250  0.37729925  0.57001073  1  0  0.12059  0  0.956062  0  0  0.12672  0  1.025012  0  0  0.131143  0  1.021534  0  0.145296  0  0.118503  0.123533  0  1.027531  0
H  H48  1  0.59025055  0.59348608  0.21097097  1  0  0.132882  0  0.9343  0  0  0.137528  0  0.99986  0  0  0.142572  0  0.995403  0  0.146447  0  0.120817  0.13375  0  1.003578  0
H  H49  1  0.40975069  0.40651067  0.71096701  1  0  0.132904  0  0.934364  0  0  0.137541  0  0.999901  0  0  0.142583  0  0.995448  0  0.146522  0  0.120837  0.133763  0  1.003619  0
H  H50  1  0.09025522  0.90651027  0.21096758  1  0  0.132978  0  0.934295  0  0  0.137606  0  0.999849  0  0  0.142651  0  0.99539  0  0.146532  0  0.120855  0.133826  0  1.003569  0
H  H51  1  0.90975963  0.09348649  0.71097153  1  0  0.132941  0  0.934214  0  0  0.137529  0  0.999829  0  0  0.142572  0  0.995373  0  0.14649  0  0.120802  0.133749  0  1.003548  0
C  C52  1  0.49656928  0.02572386  0.19196961  1  0  0.64753  0  3.905263  0  0  0.595562  0  4.214263  0  0  0.629222  0  4.204157  0  1.633545  0  0.215009  0.572574  0  4.218442  0
C  C53  1  0.50341383  0.97427127  0.69197018  1  0  0.647735  0  3.90463  0  0  0.595784  0  4.213608  0  0  0.629449  0  4.203497  0  1.633403  0  0.215091  0.572798  0  4.217786  0
C  C54  1  0.99657368  0.47427411  0.19196566  1  0  0.647596  0  3.904958  0  0  0.595645  0  4.213928  0  0  0.629308  0  4.20382  0  1.633453  0  0.215146  0.572659  0  4.218104  0
C  C55  1  0.00342454  0.52572671  0.69196848  1  0  0.647661  0  3.90493  0  0  0.595676  0  4.21389  0  0  0.629334  0  4.203787  0  1.633631  0  0.215133  0.572689  0  4.218071  0
C  C56  1  0.53008444  0.90275987  0.19038014  1  0  0.116307  0  3.712435  0  0  0.12459  0  3.96034  0  0  0.124871  0  3.977783  0  0.48574  0  0.124294  0.124166  0  3.945863  0
C  C57  1  0.46992437  0.09724095  0.69037675  1  0  0.116258  0  3.712128  0  0  0.124541  0  3.960042  0  0  0.124815  0  3.977483  0  0.486489  0  0.124263  0.124116  0  3.945565  0
C  C58  1  0.03007701  0.59724218  0.19037506  1  0  0.11626  0  3.712597  0  0  0.124548  0  3.960486  0  0  0.124824  0  3.977931  0  0.486262  0  0.124231  0.124125  0  3.946007  0
C  C59  1  0.96991516  0.40276028  0.69037845  1  0  0.11628  0  3.712268  0  0  0.12468  0  3.959995  0  0  0.124969  0  3.977436  0  0.486642  0  0.124237  0.124256  0  3.945522  0
C  C60  1  0.52775454  0.83868580  0.12489833  1  0  -0.094948  0  3.630082  0  0  -0.132623  0  3.883349  0  0  -0.133871  0  3.901465  0  0.009177  0  -0.063972  -0.132028  0  3.872337  0
C  C61  1  0.47225124  0.16132235  0.62489268  1  0  -0.095036  0  3.630271  0  0  -0.132706  0  3.883497  0  0  -0.133937  0  3.901589  0  0.009099  0  -0.063943  -0.132112  0  3.87247  0
C  C62  1  0.02775014  0.66131381  0.12489324  1  0  -0.094966  0  3.630181  0  0  -0.132644  0  3.883416  0  0  -0.133899  0  3.90154  0  0.009098  0  -0.063871  -0.132052  0  3.872399  0
C  C63  1  0.97225716  0.33867481  0.62489720  1  0  -0.094905  0  3.630006  0  0  -0.132601  0  3.883171  0  0  -0.133848  0  3.901285  0  0.008909  0  -0.063864  -0.132009  0  3.872159  0
C  C64  1  0.54437982  0.72555307  0.13205095  1  0  -0.030442  0  3.708449  0  0  -0.010103  0  3.951721  0  0  -0.014834  0  3.972959  0  -0.071515  0  -0.002097  -0.007327  0  3.938212  0
C  C65  1  0.45562142  0.27445101  0.63204756  1  0  -0.03046  0  3.708655  0  0  -0.010096  0  3.951914  0  0  -0.014831  0  3.973153  0  -0.071816  0  -0.002041  -0.007318  0  3.938403  0
C  C66  1  0.04437996  0.77444573  0.13204756  1  0  -0.030482  0  3.708563  0  0  -0.010114  0  3.9518  0  0  -0.014847  0  3.973041  0  -0.071436  0  -0.002086  -0.007336  0  3.93829  0
C  C67  1  0.95563641  0.22554615  0.63205151  1  0  -0.030303  0  3.708447  0  0  -0.009957  0  3.951679  0  0  -0.014686  0  3.972918  0  -0.072194  0  -0.002039  -0.007182  0  3.938171  0
C  C68  1  0.53996496  0.64782410  0.06587381  1  0  0.655158  0  3.875623  0  0  0.597352  0  4.179265  0  0  0.629663  0  4.173233  0  1.600973  0  0.220626  0.575497  0  4.183036  0
C  C69  1  0.46003477  0.35217754  0.56587212  1  0  0.65538  0  3.875567  0  0  0.59748  0  4.179319  0  0  0.62979  0  4.173286  0  1.600926  0  0.220628  0.575626  0  4.183092  0
C  C70  1  0.03997114  0.85217713  0.06587212  1  0  0.655232  0  3.875581  0  0  0.597373  0  4.17929  0  0  0.629685  0  4.173257  0  1.582987  0  0.220617  0.575518  0  4.183062  0
C  C71  1  0.96003766  0.14782206  0.56587551  1  0  0.65541  0  3.875724  0  0  0.597542  0  4.179421  0  0  0.629851  0  4.173394  0  1.583191  0  0.220703  0.575688  0  4.18319  0
C  C72  1  0.57437519  0.68089252  0.20387765  1  0  -0.079449  0  3.637591  0  0  -0.11621  0  3.890553  0  0  -0.117063  0  3.909052  0  0.023449  0  -0.059466  -0.115903  0  3.879625  0
C  C73  1  0.42563059  0.31910424  0.70387822  1  0  -0.07954  0  3.63773  0  0  -0.116234  0  3.89067  0  0  -0.117087  0  3.90917  0  0.023639  0  -0.059464  -0.115928  0  3.879743  0
C  C74  1  0.07437381  0.81910465  0.20387427  1  0  -0.079706  0  3.637686  0  0  -0.116353  0  3.890672  0  0  -0.117205  0  3.909167  0  0.023221  0  -0.059514  -0.116047  0  3.879748  0
C  C75  1  0.92563802  0.18089373  0.70388217  1  0  -0.07966  0  3.637496  0  0  -0.116352  0  3.890459  0  0  -0.117204  0  3.908957  0  0.024477  0  -0.059467  -0.116047  0  3.879534  0
C  C76  1  0.58451728  0.75039242  0.26572131  1  0  0.100908  0  3.746204  0  0  0.107047  0  3.995283  0  0  0.106085  0  4.013962  0  0.488253  0  0.118807  0.107326  0  3.980391  0
C  C77  1  0.41549153  0.24960515  0.76571848  1  0  0.101033  0  3.745956  0  0  0.10707  0  3.99515  0  0  0.106106  0  4.013831  0  0.488278  0  0.118811  0.107352  0  3.980258  0
C  C78  1  0.08450532  0.74960149  0.26571396  1  0  0.101141  0  3.745788  0  0  0.107047  0  3.995209  0  0  0.106091  0  4.013889  0  0.488304  0  0.118764  0.107329  0  3.980319  0
C  C79  1  0.91549139  0.25039364  0.76572357  1  0  0.101005  0  3.746207  0  0  0.107098  0  3.995312  0  0  0.106142  0  4.013999  0  0.4872  0  0.118737  0.10738  0  3.980422  0
C  C80  1  0.62963960  0.71208289  0.34514404  1  0  0.680311  0  3.875139  0  0  0.628732  0  4.179501  0  0  0.663041  0  4.16876  0  1.6202  0  0.234909  0.605371  0  4.181149  0
C  C81  1  0.37036165  0.28791631  0.84514008  1  0  0.680167  0  3.875101  0  0  0.628616  0  4.179476  0  0  0.662928  0  4.16873  0  1.620628  0  0.234814  0.605249  0  4.181143  0
C  C82  1  0.12964124  0.78791265  0.34513613  1  0  0.680126  0  3.875113  0  0  0.628564  0  4.17957  0  0  0.662858  0  4.168853  0  1.62054  0  0.234806  0.605196  0  4.181237  0
C  C83  1  0.87035849  0.21208573  0.84514347  1  0  0.680169  0  3.875352  0  0  0.628629  0  4.179648  0  0  0.662913  0  4.16895  0  1.620876  0  0.234876  0.605269  0  4.181296  0
N  N84  1  0.55686391  0.85809933  0.25867601  1  0  -0.435012  0  3.354379  0  0  -0.398535  0  3.606795  0  0  -0.408916  0  3.626732  0  -1.24735  0  -0.38664  -0.383279  0  3.590864  0
N  N85  1  0.44314641  0.14189662  0.75867375  1  0  -0.434992  0  3.354211  0  0  -0.398495  0  3.606678  0  0  -0.408874  0  3.626617  0  -1.24787  0  -0.386671  -0.383236  0  3.590743  0
N  N86  1  0.05685799  0.64189703  0.25867036  1  0  -0.435023  0  3.35443  0  0  -0.398486  0  3.606942  0  0  -0.408864  0  3.626876  0  -1.247807  0  -0.386626  -0.383232  0  3.591007  0
N  N87  1  0.94314023  0.35810298  0.75867431  1  0  -0.434994  0  3.35432  0  0  -0.39856  0  3.606716  0  0  -0.408946  0  3.62666  0  -1.24767  0  -0.386604  -0.383311  0  3.590785  0
O  O88  1  0.46796338  0.06593666  0.25804677  1  0  -0.732033  0  1.971652  0  0  -0.694928  0  2.217101  0  0  -0.717714  0  2.202386  0  -1.188728  0  -0.409208  -0.669791  0  2.229597  0
O  O89  1  0.53201518  0.93405684  0.75804507  1  0  -0.732106  0  1.971527  0  0  -0.695013  0  2.21697  0  0  -0.717797  0  2.202254  0  -1.188806  0  -0.40923  -0.669877  0  2.229466  0
O  O90  1  0.96797686  0.43405643  0.25804056  1  0  -0.731982  0  1.971736  0  0  -0.69488  0  2.217173  0  0  -0.717664  0  2.202458  0  -1.188837  0  -0.409176  -0.669746  0  2.229668  0
O  O91  1  0.03202136  0.56594114  0.75804507  1  0  -0.732048  0  1.971568  0  0  -0.694955  0  2.217016  0  0  -0.71774  0  2.202304  0  -1.18874  0  -0.40921  -0.669828  0  2.229511  0
O  O92  1  0.49853933  0.07910821  0.13166460  1  0  -0.580274  0  1.941547  0  0  -0.533048  0  2.148123  0  0  -0.55507  0  2.13537  0  -1.172297  0  -0.310147  -0.518557  0  2.157533  0
O  O93  1  0.50145586  0.92088692  0.63166008  1  0  -0.580381  0  1.94112  0  0  -0.533164  0  2.147694  0  0  -0.55519  0  2.134938  0  -1.172218  0  -0.3102  -0.518673  0  2.157101  0
O  O94  1  0.99851954  0.42088732  0.13165782  1  0  -0.580414  0  1.941154  0  0  -0.5332  0  2.147723  0  0  -0.555223  0  2.134971  0  -1.172181  0  -0.310341  -0.518708  0  2.157129  0
O  O95  1  0.00146205  0.57910699  0.63165895  1  0  -0.580377  0  1.941355  0  0  -0.533168  0  2.147939  0  0  -0.555191  0  2.135185  0  -1.172493  0  -0.310241  -0.518677  0  2.157348  0
O  O96  1  0.59703009  0.77993340  0.39780728  1  0  -0.694739  0  2.006894  0  0  -0.655009  0  2.250692  0  0  -0.677662  0  2.237905  0  -1.186622  0  -0.363404  -0.630695  0  2.26095  0
O  O97  1  0.40296964  0.22006254  0.89780219  1  0  -0.694698  0  2.006901  0  0  -0.654988  0  2.250705  0  0  -0.677633  0  2.237903  0  -1.186575  0  -0.363408  -0.630656  0  2.260947  0
O  O98  1  0.09702569  0.72006133  0.39780163  1  0  -0.694739  0  2.006809  0  0  -0.655006  0  2.250617  0  0  -0.677649  0  2.23783  0  -1.186546  0  -0.363377  -0.630676  0  2.260856  0
O  O99  1  0.90297102  0.27994275  0.89780671  1  0  -0.694796  0  2.006822  0  0  -0.655085  0  2.250602  0  0  -0.677733  0  2.237835  0  -1.186713  0  -0.363455  -0.630776  0  2.260857  0
O  O100  1  0.70043313  0.61717241  0.35335178  1  0  -0.718726  0  2.079429  0  0  -0.675311  0  2.339851  0  0  -0.700276  0  2.328961  0  -1.197961  0  -0.385475  -0.64847  0  2.349534  0
O  O101  1  0.29956811  0.38282597  0.85334727  1  0  -0.718658  0  2.079385  0  0  -0.675245  0  2.339757  0  0  -0.700209  0  2.328864  0  -1.198392  0  -0.385405  -0.64841  0  2.349444  0
O  O102  1  0.20043176  0.88281906  0.35334953  1  0  -0.718522  0  2.07949  0  0  -0.675123  0  2.339927  0  0  -0.700082  0  2.329046  0  -1.198264  0  -0.38535  -0.648277  0  2.349612  0
O  O103  1  0.79956798  0.11717769  0.85335348  1  0  -0.718574  0  2.079592  0  0  -0.675166  0  2.339992  0  0  -0.700122  0  2.329119  0  -1.198343  0  -0.385389  -0.648322  0  2.349672  0
O  O104  1  0.56729931  0.54892888  0.07992601  1  0  -0.574804  0  1.947621  0  0  -0.524174  0  2.161207  0  0  -0.547678  0  2.152893  0  -1.160455  0  -0.293415  -0.508142  0  2.167129  0
O  O105  1  0.43268681  0.45106706  0.57992544  1  0  -0.574878  0  1.947678  0  0  -0.524243  0  2.161313  0  0  -0.547749  0  2.153001  0  -1.160489  0  -0.293423  -0.508204  0  2.167219  0
O  O106  1  0.06731759  0.95107155  0.07992544  1  0  -0.574881  0  1.947598  0  0  -0.524247  0  2.161217  0  0  -0.547755  0  2.152904  0  -1.14232  0  -0.293434  -0.508206  0  2.167123  0
O  O107  1  0.93269121  0.04893009  0.57992883  1  0  -0.574915  0  1.947633  0  0  -0.524264  0  2.161237  0  0  -0.547773  0  2.152927  0  -1.1424  0  -0.293461  -0.508227  0  2.167148  0
O  O108  1  0.51495446  0.68734932  0.99882682  1  0  -0.681267  0  2.047628  0  0  -0.602808  0  2.261378  0  0  -0.629847  0  2.250128  0  -1.218354  0  -0.316561  -0.584539  0  2.26989  0
O  O109  1  0.48504679  0.31265557  0.49882456  1  0  -0.681337  0  2.047557  0  0  -0.602841  0  2.261363  0  0  -0.629882  0  2.250108  0  -1.218412  0  -0.316557  -0.584573  0  2.269878  0
O  O110  1  0.01496064  0.81266168  0.99882343  1  0  -0.681227  0  2.047589  0  0  -0.602765  0  2.261397  0  0  -0.629804  0  2.250143  0  -1.218617  0  -0.316554  -0.584498  0  2.269913  0
O  O111  1  0.98504363  0.18733833  0.49882682  1  0  -0.681369  0  2.047692  0  0  -0.602905  0  2.261498  0  0  -0.629941  0  2.250245  0  -1.218511  0  -0.316584  -0.584636  0  2.270009  0
O  O112  1  0.85182211  0.01708387  0.31390194  1  0  -0.881532  0  1.870008  0  0  -0.84391  0  2.051232  0  0  -0.861545  0  2.025706  0  -1.257371  0  -0.61324  -0.82323  0  2.073766  0
O  O113  1  0.14817308  0.98292102  0.81390251  1  0  -0.881682  0  1.869869  0  0  -0.84404  0  2.051043  0  0  -0.861674  0  2.02552  0  -1.257177  0  -0.613341  -0.823352  0  2.073571  0
O  O114  1  0.35182527  0.48291491  0.31390138  1  0  -0.88182  0  1.869691  0  0  -0.844178  0  2.050873  0  0  -0.861822  0  2.025344  0  -1.25734  0  -0.613374  -0.823495  0  2.073408  0
O  O115  1  0.64817295  0.51708510  0.81390194  1  0  -0.881707  0  1.869831  0  0  -0.844071  0  2.051049  0  0  -0.861704  0  2.025524  0  -1.257103  0  -0.613297  -0.823396  0  2.073575  0
O  O116  1  0.63716301  0.14859265  0.42431033  1  0  -0.947151  0  1.871104  0  0  -0.907875  0  2.069477  0  0  -0.925886  0  2.035053  0  -1.291404  0  -0.662676  -0.885103  0  2.098949  0
O  O117  1  0.36283673  0.85140818  0.92430524  1  0  -0.947173  0  1.870977  0  0  -0.907869  0  2.069297  0  0  -0.92588  0  2.034879  0  -1.291491  0  -0.662643  -0.885101  0  2.098771  0
O  O118  1  0.13716163  0.35140288  0.42430863  1  0  -0.947179  0  1.870974  0  0  -0.907903  0  2.06935  0  0  -0.925914  0  2.034929  0  -1.291407  0  -0.662618  -0.885138  0  2.098823  0
O  O119  1  0.86283357  0.64859794  0.92430524  1  0  -0.947142  0  1.871074  0  0  -0.907844  0  2.069409  0  0  -0.925855  0  2.034995  0  -1.291378  0  -0.662612  -0.885084  0  2.098874  0
O  O120  1  0.79959519  0.93444335  0.46555072  1  0  -0.910593  0  1.830395  0  0  -0.863591  0  2.011975  0  0  -0.882538  0  1.979948  0  -1.271885  0  -0.637994  -0.841663  0  2.039623  0
O  O121  1  0.20041210  0.06555828  0.96555016  1  0  -0.910587  0  1.830329  0  0  -0.863601  0  2.011981  0  0  -0.882541  0  1.979957  0  -1.271879  0  -0.638033  -0.841682  0  2.03962  0
O  O122  1  0.29958928  0.56555137  0.46554733  1  0  -0.910609  0  1.830377  0  0  -0.863624  0  2.011994  0  0  -0.88257  0  1.979967  0  -1.271829  0  -0.638002  -0.8417  0  2.039647  0
O  O123  1  0.70040743  0.43445027  0.96554846  1  0  -0.910622  0  1.830283  0  0  -0.863617  0  2.01195  0  0  -0.882563  0  1.979923  0  -1.27178  0  -0.638001  -0.841697  0  2.039595  0
O  O124  1  0.35135355  0.95670975  0.49973961  1  0  -0.943566  0  1.833468  0  0  -0.903367  0  2.027105  0  0  -0.920741  0  1.992669  0  -1.272356  0  -0.650855  -0.880916  0  2.057527  0
O  O125  1  0.64863863  0.04328944  0.99973961  1  0  -0.943525  0  1.833575  0  0  -0.903365  0  2.027203  0  0  -0.920739  0  1.992765  0  -1.272398  0  -0.650841  -0.880914  0  2.057624  0
O  O126  1  0.85135492  0.54328904  0.49973735  1  0  -0.943465  0  1.833579  0  0  -0.903278  0  2.027202  0  0  -0.920648  0  1.992761  0  -1.272418  0  -0.650875  -0.880829  0  2.057617  0
O  O127  1  0.14863725  0.45671504  0.99973848  1  0  -0.943603  0  1.83361  0  0  -0.903432  0  2.027204  0  0  -0.920808  0  1.992765  0  -1.272405  0  -0.650912  -0.880978  0  2.057606  0
O  O128  1  0.21469842  0.10555627  0.38297955  1  0  -0.869644  0  1.879785  0  0  -0.821944  0  2.067995  0  0  -0.839606  0  2.038385  0  -1.242762  0  -0.599334  -0.801585  0  2.092536  0
O  O129  1  0.78529678  0.89444130  0.88297673  1  0  -0.869617  0  1.879777  0  0  -0.821908  0  2.067986  0  0  -0.83957  0  2.038379  0  -1.242832  0  -0.599362  -0.801551  0  2.092529  0
O  O130  1  0.71470584  0.39443438  0.38297673  1  0  -0.869663  0  1.879856  0  0  -0.821959  0  2.068079  0  0  -0.83962  0  2.038469  0  -1.24323  0  -0.599378  -0.801605  0  2.092621  0
O  O131  1  0.28529994  0.60556482  0.88297786  1  0  -0.86957  0  1.879946  0  0  -0.821885  0  2.068163  0  0  -0.839546  0  2.038556  0  -1.243238  0  -0.599351  -0.801536  0  2.092703  0
