# generated using pymatgen
data_H18PbC22S2(NO4)2
_symmetry_space_group_name_H-M   'P 1'
_cell_length_a   7.29741478
_cell_length_b   12.53556273
_cell_length_c   13.24900000
_cell_angle_alpha   96.87673710
_cell_angle_beta   97.12859361
_cell_angle_gamma   95.46670234
_symmetry_Int_Tables_number   1
_chemical_formula_structural   H18PbC22S2(NO4)2
_chemical_formula_sum   'H36 Pb2 C44 S4 N4 O16'
_cell_volume   1186.47777759
_cell_formula_units_Z   2
loop_
 _symmetry_equiv_pos_site_id
 _symmetry_equiv_pos_as_xyz
  1  'x, y, z'
loop_
 _atom_site_type_symbol
 _atom_site_label
 _atom_site_symmetry_multiplicity
 _atom_site_fract_x
 _atom_site_fract_y
 _atom_site_fract_z
 _atom_site_occupancy
 _atom_site_hle17_bader_spin_density
 _atom_site_hle17_ddec_charge
 _atom_site_hle17_ddec_spin_density
 _atom_site_hle17_ddec_sum_bond_order
 _atom_site_hle17_magmom
 _atom_site_hse06_10hf_bader_spin_density
 _atom_site_hse06_10hf_ddec_charge
 _atom_site_hse06_10hf_ddec_spin_density
 _atom_site_hse06_10hf_ddec_sum_bond_order
 _atom_site_hse06_10hf_magmom
 _atom_site_hse06_bader_spin_density
 _atom_site_hse06_ddec_charge
 _atom_site_hse06_ddec_spin_density
 _atom_site_hse06_ddec_sum_bond_order
 _atom_site_hse06_magmom
 _atom_site_pbe_bader_charge
 _atom_site_pbe_bader_spin_density
 _atom_site_pbe_cm5_charge
 _atom_site_pbe_ddec_charge
 _atom_site_pbe_ddec_spin_density
 _atom_site_pbe_ddec_sum_bond_order
 _atom_site_pbe_magmom
H  H0  1  0.49760283  0.28858749  0.71863547  1  0  0.435862  0  0.861798  0  0  0.404676  0  0.925167  0  0  0.415829  0  0.908878  0  0.64047  0  0.28418  0.396767  0  0.936687  0
H  H1  1  0.50242043  0.71142821  0.28136903  1  0  0.435771  0  0.861971  0  0  0.404599  0  0.925315  0  0  0.415765  0  0.90901  0  0.640569  0  0.284126  0.396675  0  0.93685  0
H  H2  1  0.54790708  0.25485035  0.60695894  1  0  0.409071  0  0.894578  0  0  0.379209  0  0.956769  0  0  0.389108  0  0.942261  0  0.64305  0  0.285178  0.372233  0  0.966974  0
H  H3  1  0.45210879  0.74515565  0.39304245  1  0  0.409066  0  0.894606  0  0  0.379185  0  0.956835  0  0  0.389086  0  0.942323  0  0.643069  0  0.285158  0.37221  0  0.967039  0
H  H4  1  0.90948293  0.26394524  0.61098856  1  0  0.420851  0  0.879932  0  0  0.386629  0  0.948618  0  0  0.397033  0  0.933318  0  0.653951  0  0.293574  0.379297  0  0.959376  0
H  H5  1  0.09052294  0.73605186  0.38900812  1  0  0.420763  0  0.880053  0  0  0.386585  0  0.948678  0  0  0.396986  0  0.933384  0  0.653882  0  0.293569  0.379255  0  0.959435  0
H  H6  1  0.07449582  0.24719957  0.69579829  1  0  0.438237  0  0.80727  0  0  0.423932  0  0.854487  0  0  0.431805  0  0.84421  0  0.629323  0  0.328779  0.418265  0  0.86063  0
H  H7  1  0.92551388  0.75279592  0.30420224  1  0  0.43803  0  0.807334  0  0  0.423713  0  0.854599  0  0  0.431589  0  0.844463  0  0.629389  0  0.328631  0.418045  0  0.860747  0
H  H8  1  0.71266679  0.10217123  0.37177842  1  0  0.097942  0  0.956949  0  0  0.109213  0  1.017062  0  0  0.112097  0  1.015206  0  0.08217  0  0.10255  0.107051  0  1.01849  0
H  H9  1  0.28735028  0.89782668  0.62821535  1  0  0.097918  0  0.956958  0  0  0.109194  0  1.017066  0  0  0.112071  0  1.015215  0  0.082119  0  0.102528  0.107046  0  1.018477  0
H  H10  1  0.69253163  0.99656630  0.19692373  1  0  0.11656  0  0.952328  0  0  0.127216  0  1.007558  0  0  0.130906  0  1.005351  0  0.089309  0  0.105184  0.124447  0  1.009415  0
H  H11  1  0.30746028  0.00342999  0.80307265  1  0  0.116668  0  0.952159  0  0  0.127284  0  1.007455  0  0  0.130993  0  1.005223  0  0.089285  0  0.105226  0.124504  0  1.009324  0
H  H12  1  0.66687913  0.08937062  0.04390481  1  0  0.109782  0  0.953044  0  0  0.121221  0  1.010507  0  0  0.124544  0  1.00797  0  0.099382  0  0.111005  0.118784  0  1.012423  0
H  H13  1  0.33311093  0.91062325  0.95608665  1  0  0.109789  0  0.953183  0  0  0.121233  0  1.010601  0  0  0.124555  0  1.008064  0  0.098446  0  0.111023  0.118793  0  1.012512  0
H  H14  1  0.63246744  0.45697326  0.98193659  1  0  0.0997  0  0.98364  0  0  0.107503  0  1.050982  0  0  0.110019  0  1.050402  0  0.12726  0  0.103584  0.105679  0  1.051474  0
H  H15  1  0.36754903  0.54302870  0.01807268  1  0  0.099734  0  0.983605  0  0  0.107533  0  1.05095  0  0  0.11005  0  1.050362  0  0.126266  0  0.103589  0.105712  0  1.051436  0
H  H16  1  0.63566339  0.56182331  0.15500526  1  0  0.106242  0  0.953549  0  0  0.118135  0  1.007119  0  0  0.121619  0  1.005107  0  0.130588  0  0.104663  0.115574  0  1.008706  0
H  H17  1  0.36434952  0.43816733  0.84500928  1  0  0.106205  0  0.95341  0  0  0.11807  0  1.00704  0  0  0.121558  0  1.005028  0  0.130323  0  0.104615  0.115509  0  1.008625  0
H  H18  1  0.66054510  0.46955232  0.30861083  1  0  0.062996  0  1.025868  0  0  0.074873  0  1.095894  0  0  0.077034  0  1.094689  0  0.01564  0  0.093616  0.073303  0  1.096832  0
H  H19  1  0.33947688  0.53044236  0.69140630  1  0  0.062963  0  1.026261  0  0  0.074856  0  1.096238  0  0  0.076983  0  1.095064  0  0.01556  0  0.093656  0.073317  0  1.097152  0
H  H20  1  0.14992825  0.53189942  0.31279165  1  0  0.078059  0  0.935918  0  0  0.087426  0  0.999527  0  0  0.090235  0  0.996129  0  0.116921  0  0.115683  0.085303  0  1.002078  0
H  H21  1  0.85008868  0.46810496  0.68720283  1  0  0.078052  0  0.93595  0  0  0.087508  0  0.999483  0  0  0.090248  0  0.996155  0  0.116849  0  0.11567  0.085382  0  1.002038  0
H  H22  1  0.11755357  0.52378775  0.12357412  1  0  0.113562  0  0.941978  0  0  0.125024  0  0.996602  0  0  0.128069  0  0.995756  0  0.109842  0  0.112061  0.122804  0  0.997376  0
H  H23  1  0.88245876  0.47621420  0.87642053  1  0  0.113479  0  0.94202  0  0  0.124921  0  0.996678  0  0  0.127966  0  0.995833  0  0.109854  0  0.112015  0.122706  0  0.997459  0
H  H24  1  0.11988156  0.34300486  0.01528110  1  0  0.109847  0  0.920012  0  0  0.123968  0  0.972958  0  0  0.126839  0  0.971117  0  0.11562  0  0.115545  0.121819  0  0.974412  0
H  H25  1  0.88011925  0.65699467  0.98471249  1  0  0.109774  0  0.9201  0  0  0.123906  0  0.973044  0  0  0.126776  0  0.971201  0  0.115743  0  0.115508  0.121751  0  0.974504  0
H  H26  1  0.15458532  0.14803545  0.00792445  1  0  0.120245  0  0.922972  0  0  0.133652  0  0.975491  0  0  0.136813  0  0.973955  0  0.089617  0  0.114536  0.131328  0  0.97673  0
H  H27  1  0.84540845  0.85197055  0.99207166  1  0  0.120309  0  0.9229  0  0  0.133728  0  0.975392  0  0  0.136887  0  0.973856  0  0.089466  0  0.114553  0.131403  0  0.976632  0
H  H28  1  0.18900331  0.98572569  0.09918362  1  0  0.118766  0  0.963618  0  0  0.128722  0  1.023149  0  0  0.131846  0  1.021963  0  0.137764  0  0.109654  0.126391  0  1.024165  0
H  H29  1  0.81096376  0.01427789  0.90080963  1  0  0.118617  0  0.963674  0  0  0.128587  0  1.023229  0  0  0.131719  0  1.022043  0  0.137721  0  0.109571  0.126255  0  1.024246  0
H  H30  1  0.22179497  0.90615990  0.25835359  1  0  0.11329  0  0.953283  0  0  0.122459  0  1.013762  0  0  0.126342  0  1.010068  0  0.160547  0  0.110786  0.119568  0  1.016486  0
H  H31  1  0.77817947  0.09384610  0.74164421  1  0  0.11328  0  0.953241  0  0  0.122412  0  1.013785  0  0  0.126295  0  1.010093  0  0.160248  0  0.110752  0.119517  0  1.016505  0
H  H32  1  0.24937458  0.93013426  0.45259690  1  0  0.111833  0  0.982135  0  0  0.11998  0  1.044483  0  0  0.123529  0  1.043157  0  0.107926  0  0.102839  0.11742  0  1.045608  0
H  H33  1  0.75059447  0.06986527  0.54739905  1  0  0.111975  0  0.982106  0  0  0.120034  0  1.044544  0  0  0.12358  0  1.043225  0  0.108411  0  0.102895  0.117475  0  1.045668  0
H  H34  1  0.24261489  0.11614509  0.54546638  1  0  0.077736  0  0.948549  0  0  0.086294  0  1.013177  0  0  0.089324  0  1.009663  0  0.107884  0  0.115332  0.08391  0  1.015901  0
H  H35  1  0.75734003  0.88385282  0.45452993  1  0  0.07771  0  0.94849  0  0  0.086254  0  1.01315  0  0  0.089294  0  1.009629  0  0.107766  0  0.115338  0.083887  0  1.015858  0
Pb  Pb36  1  0.23545722  0.37510140  0.51406200  1  0  1.350016  0  1.41466  0  0  1.161954  0  1.811697  0  0  1.21669  0  1.77046  0  1.445022  0  0.656415  1.121652  0  1.841157  0
Pb  Pb37  1  0.76454311  0.62488843  0.48595687  1  0  1.350033  0  1.414594  0  0  1.161958  0  1.811592  0  0  1.216697  0  1.770368  0  1.444701  0  0.656428  1.121657  0  1.841041  0
C  C38  1  0.69259036  0.25337873  0.31404507  1  0  -0.182152  0  3.708241  0  0  -0.162554  0  3.969346  0  0  -0.17118  0  3.990142  0  -0.217086  0  -0.024984  -0.157071  0  3.955564  0
C  C39  1  0.30743331  0.74661756  0.68595877  1  0  -0.182458  0  3.708529  0  0  -0.162794  0  3.969545  0  0  -0.17142  0  3.990344  0  -0.217446  0  -0.02508  -0.157309  0  3.955763  0
C  C40  1  0.70115806  0.14304490  0.30366206  1  0  -0.048959  0  3.771226  0  0  -0.08274  0  4.033853  0  0  -0.079266  0  4.05245  0  -0.012431  0  -0.085761  -0.084704  0  4.021147  0
C  C41  1  0.29886222  0.85694817  0.69633364  1  0  -0.048859  0  3.771397  0  0  -0.082668  0  4.033971  0  0  -0.07919  0  4.052581  0  -0.012587  0  -0.08572  -0.084644  0  4.021255  0
C  C42  1  0.69260533  0.08405421  0.20553570  1  0  -0.066825  0  3.739602  0  0  -0.080448  0  3.997836  0  0  -0.08477  0  4.017947  0  -0.008596  0  -0.089697  -0.077626  0  3.984288  0
C  C43  1  0.30739500  0.91593562  0.79446204  1  0  -0.066997  0  3.739289  0  0  -0.080612  0  3.997532  0  0  -0.084948  0  4.017635  0  -0.008305  0  -0.089849  -0.077782  0  3.98399  0
C  C44  1  0.67676223  0.13606524  0.11941506  1  0  -0.060902  0  3.673234  0  0  -0.087939  0  3.926789  0  0  -0.086407  0  3.944367  0  0.030677  0  -0.070247  -0.088871  0  3.914989  0
C  C45  1  0.32323458  0.86392782  0.88059186  1  0  -0.061033  0  3.673398  0  0  -0.087972  0  3.926924  0  0  -0.086441  0  3.944504  0  0.031734  0  -0.070223  -0.088896  0  3.915116  0
C  C46  1  0.66796484  0.24940133  0.12670638  1  0  0.053435  0  3.724045  0  0  0.063496  0  3.952887  0  0  0.062889  0  3.977769  0  0.017934  0  0.003154  0.06385  0  3.936224  0
C  C47  1  0.33204318  0.75059982  0.87329241  1  0  0.053827  0  3.724258  0  0  0.06369  0  3.953291  0  0  0.063082  0  3.978174  0  0.017866  0  0.003282  0.064046  0  3.936627  0
C  C48  1  0.65061242  0.30608514  0.03886310  1  0  -0.144664  0  3.672255  0  0  -0.123879  0  3.917463  0  0  -0.130469  0  3.939431  0  -0.157323  0  -0.014529  -0.11971  0  3.902974  0
C  C49  1  0.34940113  0.69391600  0.96113607  1  0  -0.144627  0  3.672522  0  0  -0.123795  0  3.917759  0  0  -0.130386  0  3.939739  0  -0.157474  0  -0.014589  -0.119638  0  3.903275  0
C  C50  1  0.64420030  0.41640362  0.05017366  1  0  -0.079719  0  3.776475  0  0  -0.106977  0  4.029782  0  0  -0.107045  0  4.050845  0  -0.052401  0  -0.091907  -0.106772  0  4.015544  0
C  C51  1  0.35581404  0.58360885  0.94984421  1  0  -0.079808  0  3.776611  0  0  -0.107044  0  4.029884  0  0  -0.107111  0  4.050954  0  -0.052132  0  -0.091852  -0.106833  0  4.015643  0
C  C52  1  0.64891039  0.47551316  0.14799724  1  0  -0.054573  0  3.757207  0  0  -0.066715  0  4.009591  0  0  -0.069018  0  4.029675  0  -0.057314  0  -0.089808  -0.065113  0  3.995983  0
C  C53  1  0.35110073  0.52449688  0.85200503  1  0  -0.054496  0  3.756895  0  0  -0.06662  0  4.009298  0  0  -0.068926  0  4.029384  0  -0.056443  0  -0.089716  -0.065018  0  3.995689  0
C  C54  1  0.66275820  0.42369053  0.23397567  1  0  -0.099033  0  3.744133  0  0  -0.125086  0  3.998905  0  0  -0.126364  0  4.01922  0  -0.036319  0  -0.09167  -0.124231  0  3.985231  0
C  C55  1  0.33725917  0.57630172  0.76601822  1  0  -0.098989  0  3.744723  0  0  -0.125067  0  3.999499  0  0  -0.126321  0  4.019842  0  -0.036664  0  -0.091761  -0.124237  0  3.985805  0
C  C56  1  0.67514595  0.31087759  0.22675806  1  0  0.067264  0  3.726335  0  0  0.073916  0  3.95722  0  0  0.075384  0  3.98096  0  0.000296  0  -0.001703  0.072992  0  3.941264  0
C  C57  1  0.32487434  0.68911547  0.77325122  1  0  0.067228  0  3.726698  0  0  0.073914  0  3.957603  0  0  0.075384  0  3.981336  0  0.001164  0  -0.001707  0.072987  0  3.941652  0
C  C58  1  0.15341341  0.45508037  0.26510172  1  0  0.157544  0  3.688324  0  0  0.125905  0  3.945982  0  0  0.134288  0  3.962309  0  0.552411  0  0.062265  0.120462  0  3.934725  0
C  C59  1  0.84659417  0.54492563  0.73489231  1  0  0.157396  0  3.688454  0  0  0.125665  0  3.946146  0  0  0.134102  0  3.96249  0  0.552584  0  0.062309  0.120227  0  3.934878  0
C  C60  1  0.13325058  0.44986261  0.15762186  1  0  -0.102286  0  3.7203  0  0  -0.116121  0  3.976623  0  0  -0.122856  0  3.998593  0  -0.087556  0  -0.075593  -0.111739  0  3.961823  0
C  C61  1  0.86675469  0.55013853  0.84237523  1  0  -0.102129  0  3.720091  0  0  -0.115943  0  3.976431  0  0  -0.122673  0  3.998376  0  -0.087616  0  -0.075552  -0.111571  0  3.961639  0
C  C62  1  0.13685762  0.35154669  0.09894658  1  0  -0.033168  0  3.661096  0  0  -0.060215  0  3.912055  0  0  -0.058587  0  3.931087  0  -0.002978  0  -0.053108  -0.06103  0  3.899082  0
C  C63  1  0.86313629  0.64845284  0.90105031  1  0  -0.033075  0  3.660975  0  0  -0.060136  0  3.911937  0  0  -0.058511  0  3.930975  0  -0.002801  0  -0.053081  -0.060947  0  3.898966  0
C  C64  1  0.15964776  0.25845984  0.14778283  1  0  0.036165  0  3.76744  0  0  0.052559  0  4.001367  0  0  0.050591  0  4.025976  0  -0.060905  0  0.007031  0.053756  0  3.984797  0
C  C65  1  0.84034877  0.74154616  0.85221346  1  0  0.036172  0  3.767359  0  0  0.052571  0  4.001294  0  0  0.050607  0  4.025905  0  -0.061142  0  0.007046  0.053768  0  3.984721  0
C  C66  1  0.16527819  0.15437309  0.09128060  1  0  -0.073078  0  3.696389  0  0  -0.098361  0  3.951529  0  0  -0.101209  0  3.973744  0  -0.005777  0  -0.071013  -0.096398  0  3.936543  0
C  C67  1  0.83470573  0.84562483  0.90871467  1  0  -0.07322  0  3.69636  0  0  -0.098472  0  3.95147  0  0  -0.101319  0  3.973686  0  -0.005966  0  -0.070993  -0.096509  0  3.936484  0
C  C68  1  0.18436553  0.06578437  0.14068431  1  0  -0.092442  0  3.699346  0  0  -0.113696  0  3.947236  0  0  -0.118004  0  3.971266  0  0.023213  0  -0.077164  -0.110677  0  3.931061  0
C  C69  1  0.81560474  0.93421435  0.85930786  1  0  -0.092095  0  3.699278  0  0  -0.113382  0  3.947159  0  0  -0.117699  0  3.971199  0  0.023778  0  -0.077084  -0.110363  0  3.930985  0
C  C70  1  0.19854767  0.07505877  0.25016754  1  0  0.03533  0  3.771525  0  0  0.05311  0  4.000774  0  0  0.050162  0  4.026123  0  -0.00495  0  0.004968  0.054864  0  3.983777  0
C  C71  1  0.80143428  0.92494319  0.74982880  1  0  0.0352  0  3.771302  0  0  0.052986  0  4.000622  0  0  0.050039  0  4.025973  0  -0.00493  0  0.005012  0.054741  0  3.983621  0
C  C72  1  0.21790080  0.98470283  0.30332536  1  0  -0.033346  0  3.658731  0  0  -0.053913  0  3.895935  0  0  -0.050584  0  3.912933  0  -0.088803  0  -0.056485  -0.055818  0  3.884347  0
C  C73  1  0.78206412  0.01530397  0.69666660  1  0  -0.033197  0  3.65879  0  0  -0.053722  0  3.895977  0  0  -0.050394  0  3.912973  0  -0.088676  0  -0.056396  -0.05562  0  3.884381  0
C  C74  1  0.23233091  0.99794170  0.40931587  1  0  -0.144438  0  3.762185  0  0  -0.155521  0  4.012819  0  0  -0.164155  0  4.035225  0  0.017117  0  -0.094642  -0.149869  0  3.997591  0
C  C75  1  0.76763307  0.00205298  0.59067691  1  0  -0.14486  0  3.762694  0  0  -0.155876  0  4.013381  0  0  -0.164506  0  4.035785  0  0.016913  0  -0.094894  -0.150227  0  3.998163  0
C  C76  1  0.22753381  0.10151628  0.46179712  1  0  0.134898  0  3.735205  0  0  0.101917  0  3.989765  0  0  0.110494  0  4.008063  0  0.439261  0  0.049513  0.096492  0  3.97711  0
C  C77  1  0.77243324  0.89848002  0.53819832  1  0  0.135115  0  3.735159  0  0  0.102114  0  3.989733  0  0  0.110681  0  4.008016  0  0.439221  0  0.049623  0.096674  0  3.977079  0
C  C78  1  0.19533058  0.17742406  0.30916217  1  0  0.135251  0  3.741889  0  0  0.124028  0  3.986455  0  0  0.129058  0  4.008945  0  0.434297  0  0.12112  0.120647  0  3.971302  0
C  C79  1  0.80465580  0.82257224  0.69083309  1  0  0.135241  0  3.742156  0  0  0.123945  0  3.986828  0  0  0.128981  0  4.009302  0  0.434433  0  0.121152  0.120564  0  3.971674  0
C  C80  1  0.17666384  0.27121356  0.25686517  1  0  0.128782  0  3.752304  0  0  0.120455  0  3.99546  0  0  0.124028  0  4.017881  0  0.505807  0  0.117894  0.118018  0  3.980297  0
C  C81  1  0.82333116  0.72879163  0.74312790  1  0  0.128795  0  3.752312  0  0  0.12044  0  3.995514  0  0  0.124009  0  4.017937  0  0.505978  0  0.11793  0.118006  0  3.980352  0
S  S82  1  0.71049666  0.32285588  0.44044677  1  0  1.329216  0  5.579953  0  0  1.221238  0  6.098659  0  0  1.271103  0  6.075249  0  3.114101  0  0.530721  1.186568  0  6.113663  0
S  S83  1  0.28950612  0.67713233  0.55955549  1  0  1.329411  0  5.580206  0  0  1.221386  0  6.098952  0  0  1.271254  0  6.075532  0  3.113148  0  0.530822  1.186714  0  6.113963  0
S  S84  1  0.63713962  0.23639453  0.91054010  1  0  1.277717  0  5.712295  0  0  1.183987  0  6.243637  0  0  1.232378  0  6.218443  0  3.183057  0  0.491713  1.150568  0  6.259846  0
S  S85  1  0.36287011  0.76361551  0.08946888  1  0  1.277719  0  5.712313  0  0  1.183973  0  6.243675  0  0  1.232357  0  6.218486  0  3.182897  0  0.491761  1.150559  0  6.259884  0
N  N86  1  0.17460237  0.36890526  0.31320464  1  0  -0.370283  0  3.221759  0  0  -0.305135  0  3.477975  0  0  -0.323833  0  3.498892  0  -1.219745  0  -0.297871  -0.292152  0  3.463444  0
N  N87  1  0.82540536  0.63110155  0.68680232  1  0  -0.370188  0  3.222154  0  0  -0.304998  0  3.478387  0  0  -0.323692  0  3.499274  0  -1.219967  0  -0.297944  -0.292013  0  3.463851  0
N  N88  1  0.20962780  0.18819595  0.41348817  1  0  -0.37551  0  3.231347  0  0  -0.301665  0  3.488454  0  0  -0.322412  0  3.509894  0  -1.23105  0  -0.295522  -0.287337  0  3.473493  0
N  N89  1  0.79035738  0.81181571  0.58651478  1  0  -0.375594  0  3.231877  0  0  -0.301665  0  3.488947  0  0  -0.322423  0  3.510413  0  -1.231232  0  -0.295598  -0.287339  0  3.473994  0
O  O90  1  0.55166873  0.38698266  0.44523412  1  0  -0.724683  0  2.076926  0  0  -0.656191  0  2.346039  0  0  -0.682925  0  2.334626  0  -1.341415  0  -0.318164  -0.6367  0  2.353287  0
O  O91  1  0.44833082  0.61300312  0.55476537  1  0  -0.724804  0  2.07715  0  0  -0.656295  0  2.346293  0  0  -0.683029  0  2.334867  0  -1.340384  0  -0.318228  -0.636809  0  2.353555  0
O  O92  1  0.71093702  0.23975660  0.51100172  1  0  -0.690122  0  2.017006  0  0  -0.622337  0  2.255111  0  0  -0.644507  0  2.23961  0  -1.335301  0  -0.323507  -0.606754  0  2.265392  0
O  O93  1  0.28907099  0.76023727  0.48900379  1  0  -0.690077  0  2.016729  0  0  -0.622326  0  2.254869  0  0  -0.644485  0  2.239349  0  -1.335179  0  -0.323495  -0.606745  0  2.265152  0
O  O94  1  0.88415805  0.39735996  0.45934408  1  0  -0.720161  0  2.058018  0  0  -0.649093  0  2.324869  0  0  -0.676757  0  2.314956  0  -1.338825  0  -0.315352  -0.628936  0  2.331075  0
O  O95  1  0.11584506  0.60263714  0.54066599  1  0  -0.720177  0  2.058457  0  0  -0.649068  0  2.325263  0  0  -0.676735  0  2.315356  0  -1.338951  0  -0.315361  -0.628912  0  2.33147  0
O  O96  1  0.48349061  0.14998008  0.89920911  1  0  -0.664763  0  1.915921  0  0  -0.623337  0  2.154854  0  0  -0.643874  0  2.141037  0  -1.334286  0  -0.356296  -0.608535  0  2.163678  0
O  O97  1  0.51650424  0.85003158  0.10078847  1  0  -0.664796  0  1.916068  0  0  -0.623375  0  2.155025  0  0  -0.643905  0  2.141204  0  -1.33438  0  -0.356288  -0.608578  0  2.163851  0
O  O98  1  0.60045561  0.31978813  0.84224494  1  0  -0.701154  0  1.992933  0  0  -0.644715  0  2.234479  0  0  -0.665887  0  2.218606  0  -1.338633  0  -0.351606  -0.629638  0  2.244915  0
O  O99  1  0.39957039  0.68022029  0.15775893  1  0  -0.701179  0  1.992839  0  0  -0.644749  0  2.234419  0  0  -0.665919  0  2.218549  0  -1.33832  0  -0.351655  -0.629668  0  2.244845  0
O  O100  1  0.82066808  0.19860155  0.90464425  1  0  -0.678343  0  1.911401  0  0  -0.638473  0  2.156552  0  0  -0.659207  0  2.142142  0  -1.334911  0  -0.359344  -0.623529  0  2.165805  0
O  O101  1  0.17933857  0.80139960  0.09535671  1  0  -0.678325  0  1.911435  0  0  -0.638483  0  2.156621  0  0  -0.659213  0  2.14221  0  -1.334955  0  -0.359396  -0.623544  0  2.165877  0
O  O102  1  0.44335495  0.26977752  0.64461867  1  0  -0.873238  0  1.792981  0  0  -0.812042  0  1.95712  0  0  -0.83428  0  1.926344  0  -1.290142  0  -0.585374  -0.796003  0  1.978384  0
O  O103  1  0.55666782  0.73022848  0.35538923  1  0  -0.873177  0  1.793141  0  0  -0.811961  0  1.95722  0  0  -0.834218  0  1.926429  0  -1.290264  0  -0.585295  -0.795905  0  1.978516  0
O  O104  1  0.02938789  0.29712124  0.65015257  1  0  -0.832339  0  1.798498  0  0  -0.775486  0  1.965373  0  0  -0.796398  0  1.938421  0  -1.263647  0  -0.562158  -0.760542  0  1.982793  0
O  O105  1  0.97062105  0.70287749  0.34984676  1  0  -0.832097  0  1.798622  0  0  -0.775278  0  1.965393  0  0  -0.796191  0  1.938608  0  -1.263629  0  -0.562072  -0.760337  0  1.982809  0
