# generated using pymatgen
data_ZnH16C18(N2O)4
_symmetry_space_group_name_H-M   'P 1'
_cell_length_a   8.56945722
_cell_length_b   8.56924957
_cell_length_c   16.06708917
_cell_angle_alpha   103.89322326
_cell_angle_beta   103.89352089
_cell_angle_gamma   95.43332699
_symmetry_Int_Tables_number   1
_chemical_formula_structural   ZnH16C18(N2O)4
_chemical_formula_sum   'Zn2 H32 C36 N16 O8'
_cell_volume   1097.21646713
_cell_formula_units_Z   2
loop_
 _symmetry_equiv_pos_site_id
 _symmetry_equiv_pos_as_xyz
  1  'x, y, z'
loop_
 _atom_site_type_symbol
 _atom_site_label
 _atom_site_symmetry_multiplicity
 _atom_site_fract_x
 _atom_site_fract_y
 _atom_site_fract_z
 _atom_site_occupancy
 _atom_site_hle17_bader_spin_density
 _atom_site_hle17_ddec_charge
 _atom_site_hle17_ddec_spin_density
 _atom_site_hle17_ddec_sum_bond_order
 _atom_site_hle17_magmom
 _atom_site_hse06_10hf_bader_spin_density
 _atom_site_hse06_10hf_ddec_charge
 _atom_site_hse06_10hf_ddec_spin_density
 _atom_site_hse06_10hf_ddec_sum_bond_order
 _atom_site_hse06_10hf_magmom
 _atom_site_hse06_bader_spin_density
 _atom_site_hse06_ddec_charge
 _atom_site_hse06_ddec_spin_density
 _atom_site_hse06_ddec_sum_bond_order
 _atom_site_hse06_magmom
 _atom_site_pbe_bader_spin_density
 _atom_site_pbe_cm5_charge
 _atom_site_pbe_ddec_charge
 _atom_site_pbe_ddec_spin_density
 _atom_site_pbe_ddec_sum_bond_order
 _atom_site_pbe_magmom
Zn  Zn0  1  0.29226599  0.79213099  0.50000559  1  0  0.933756  0  2.02102  0  0  0.758927  0  2.479723  0  0  0.802739  0  2.433187  0  0  0.675585  0.728728  0  2.511287  0
Zn  Zn1  1  0.04212201  0.04225395  0.00000402  1  0  0.933725  0  2.021025  0  0  0.758979  0  2.479662  0  0  0.802793  0  2.433132  0  0  0.675592  0.728781  0  2.511229  0
H  H2  1  0.45557069  0.77309407  0.66875990  1  0  0.301907  0  0.902276  0  0  0.299546  0  0.950294  0  0  0.306293  0  0.945066  0  0  0.300764  0.294831  0  0.954046  0
H  H3  1  0.10464559  0.78690547  0.33121446  1  0  0.302807  0  0.900362  0  0  0.29985  0  0.949234  0  0  0.306552  0  0.944086  0  0  0.300899  0.29514  0  0.952989  0
H  H4  1  0.02308324  0.20556531  0.16875654  1  0  0.301839  0  0.902372  0  0  0.299515  0  0.950351  0  0  0.306261  0  0.945124  0  0  0.300757  0.294797  0  0.954099  0
H  H5  1  0.03689300  0.85463960  0.83121057  1  0  0.302733  0  0.900468  0  0  0.299776  0  0.94934  0  0  0.306477  0  0.944195  0  0  0.300881  0.295068  0  0.953094  0
H  H6  1  0.73081286  0.40007111  0.37533484  1  0  0.113521  0  0.972754  0  0  0.116513  0  1.044774  0  0  0.119779  0  1.043338  0  0  0.106949  0.11409  0  1.046053  0
H  H7  1  0.02444218  0.35495757  0.62529982  1  0  0.113426  0  0.973735  0  0  0.116278  0  1.046073  0  0  0.119487  0  1.044728  0  0  0.10691  0.113929  0  1.047243  0
H  H8  1  0.65006765  0.48078889  0.87533597  1  0  0.11374  0  0.972591  0  0  0.116715  0  1.044591  0  0  0.119983  0  1.043153  0  0  0.107006  0.114292  0  1.045874  0
H  H9  1  0.60495774  0.77443568  0.12529646  1  0  0.11339  0  0.973514  0  0  0.116234  0  1.045892  0  0  0.119444  0  1.044544  0  0  0.106888  0.113882  0  1.047059  0
H  H10  1  0.52868392  0.33623278  0.43917457  1  0  0.110265  0  0.986137  0  0  0.112542  0  1.060344  0  0  0.116236  0  1.057658  0  0  0.10549  0.109848  0  1.06239  0
H  H11  1  0.89715934  0.08876638  0.56090415  1  0  0.11079  0  0.98456  0  0  0.112974  0  1.059487  0  0  0.116707  0  1.056764  0  0  0.1053  0.110238  0  1.061584  0
H  H12  1  0.58623166  0.27865675  0.93918347  1  0  0.110354  0  0.986012  0  0  0.112615  0  1.060196  0  0  0.116311  0  1.057508  0  0  0.105488  0.109917  0  1.062241  0
H  H13  1  0.33877312  0.64715473  0.06089974  1  0  0.110802  0  0.984617  0  0  0.113031  0  1.059453  0  0  0.116762  0  1.056728  0  0  0.105313  0.110295  0  1.061548  0
H  H14  1  0.94787828  0.61780689  0.38211672  1  0  0.072492  0  0.946289  0  0  0.082536  0  1.007981  0  0  0.085047  0  1.005958  0  0  0.111143  0.080662  0  1.009572  0
H  H15  1  0.23532237  0.56553604  0.61861705  1  0  0.072717  0  0.947201  0  0  0.082668  0  1.008933  0  0  0.08518  0  1.006918  0  0  0.111447  0.080802  0  1.01051  0
H  H16  1  0.86780221  0.69785642  0.88211424  1  0  0.072493  0  0.946388  0  0  0.082497  0  1.008118  0  0  0.085005  0  1.006095  0  0  0.111211  0.080626  0  1.009707  0
H  H17  1  0.81553369  0.98531661  0.11860972  1  0  0.072808  0  0.947209  0  0  0.082787  0  1.008905  0  0  0.0853  0  1.006889  0  0  0.111476  0.080917  0  1.010484  0
H  H18  1  0.31930882  0.11303551  0.44113298  1  0  0.070519  0  0.94676  0  0  0.078655  0  1.01278  0  0  0.081213  0  1.010666  0  0  0.109377  0.076799  0  1.014296  0
H  H19  1  0.67191398  0.87701261  0.55852724  1  0  0.072686  0  0.945764  0  0  0.080134  0  1.012271  0  0  0.082778  0  1.010051  0  0  0.110011  0.07822  0  1.013871  0
H  H20  1  0.36302724  0.06929313  0.94114054  1  0  0.070496  0  0.947073  0  0  0.078681  0  1.013024  0  0  0.081237  0  1.010913  0  0  0.109436  0.076824  0  1.014536  0
H  H21  1  0.12701336  0.42191637  0.05852357  1  0  0.072679  0  0.945842  0  0  0.080177  0  1.012271  0  0  0.082828  0  1.010043  0  0  0.110014  0.078257  0  1.013868  0
H  H22  1  0.45707160  0.80428216  0.81218536  1  0  0.098203  0  0.922147  0  0  0.117284  0  0.983325  0  0  0.118169  0  0.982051  0  0  0.107833  0.116595  0  0.984328  0
H  H23  1  0.99221426  0.64389559  0.18791061  1  0  0.098991  0  0.921538  0  0  0.11752  0  0.98336  0  0  0.118476  0  0.982007  0  0  0.107847  0.116792  0  0.984388  0
H  H24  1  0.05427845  0.20707032  0.31218417  1  0  0.098192  0  0.922143  0  0  0.117266  0  0.983343  0  0  0.118152  0  0.982061  0  0  0.10783  0.116574  0  0.984349  0
H  H25  1  0.89389225  0.74222249  0.68791027  1  0  0.098966  0  0.921597  0  0  0.117498  0  0.983419  0  0  0.118454  0  0.982064  0  0  0.107821  0.116774  0  0.984447  0
H  H26  1  0.59839625  0.97576276  0.88992000  1  0  0.120105  0  0.931497  0  0  0.137064  0  0.992177  0  0  0.137516  0  0.993281  0  0  0.1161  0.136636  0  0.99154  0
H  H27  1  0.08556384  0.70723757  0.10970169  1  0  0.12023  0  0.930989  0  0  0.137015  0  0.99184  0  0  0.137467  0  0.992943  0  0  0.115954  0.136588  0  0.991192  0
H  H28  1  0.22575260  0.34840689  0.38991773  1  0  0.120077  0  0.931463  0  0  0.137133  0  0.992033  0  0  0.137541  0  0.993187  0  0  0.116112  0.136726  0  0.991374  0
H  H29  1  0.95723927  0.83557127  0.60970356  1  0  0.120168  0  0.931058  0  0  0.136981  0  0.991871  0  0  0.137432  0  0.992975  0  0  0.115951  0.136553  0  0.991225  0
H  H30  1  0.63998099  0.87951597  0.78801433  1  0  0.085356  0  0.945857  0  0  0.102805  0  1.011263  0  0  0.10287  0  1.011513  0  0  0.101816  0.102623  0  1.011274  0
H  H31  1  0.09094082  0.85085784  0.21138784  1  0  0.086212  0  0.944953  0  0  0.10354  0  1.010235  0  0  0.103653  0  1.010444  0  0  0.102077  0.103348  0  1.010252  0
H  H32  1  0.12949634  0.38998804  0.28801184  1  0  0.085355  0  0.9459  0  0  0.102817  0  1.01129  0  0  0.102875  0  1.011545  0  0  0.101807  0.102655  0  1.011275  0
H  H33  1  0.10085703  0.84093744  0.71138975  1  0  0.086226  0  0.944847  0  0  0.103572  0  1.010114  0  0  0.103685  0  1.010322  0  0  0.102118  0.103374  0  1.010138  0
C  C34  1  0.73046437  0.23011381  0.50011789  1  0  0.111524  0  3.732773  0  0  0.127696  0  3.951955  0  0  0.130667  0  3.973244  0  0  0.020466  0.125916  0  3.937418  0
C  C35  1  0.48011676  0.48045476  0.00012009  1  0  0.111729  0  3.7326  0  0  0.127948  0  3.951677  0  0  0.130848  0  3.973057  0  0  0.020481  0.126233  0  3.937047  0
C  C36  1  0.85824010  0.35807413  0.50029786  1  0  0.108319  0  3.719112  0  0  0.121519  0  3.94028  0  0  0.125164  0  3.961575  0  0  0.01974  0.11907  0  3.925936  0
C  C37  1  0.60807635  0.60822241  0.00029768  1  0  0.108405  0  3.719236  0  0  0.121633  0  3.940316  0  0  0.125298  0  3.961625  0  0  0.019771  0.119167  0  3.925955  0
C  C38  1  0.83913577  0.43475206  0.43141346  1  0  -0.145809  0  3.708531  0  0  -0.166653  0  3.959425  0  0  -0.173029  0  3.979989  0  0  -0.076682  -0.162597  0  3.945835  0
C  C39  1  0.00332131  0.40756475  0.56924667  1  0  -0.145042  0  3.709134  0  0  -0.165997  0  3.960159  0  0  -0.172331  0  3.980681  0  0  -0.076481  -0.162009  0  3.946658  0
C  C40  1  0.68474792  0.58911107  0.93141420  1  0  -0.146372  0  3.708503  0  0  -0.167225  0  3.959431  0  0  -0.173604  0  3.979987  0  0  -0.076837  -0.163175  0  3.945863  0
C  C41  1  0.65756982  0.75330651  0.06924495  1  0  -0.144921  0  3.708816  0  0  -0.165886  0  3.959803  0  0  -0.172219  0  3.980321  0  0  -0.076403  -0.161888  0  3.946286  0
C  C42  1  0.56534169  0.23570041  0.46555888  1  0  -0.140185  0  3.682796  0  0  -0.159393  0  3.929972  0  0  -0.165548  0  3.949999  0  0  -0.079123  -0.155412  0  3.916581  0
C  C43  1  0.77039519  0.09910868  0.53443578  1  0  -0.140586  0  3.684572  0  0  -0.159864  0  3.930864  0  0  -0.166058  0  3.95094  0  0  -0.078829  -0.155798  0  3.917323  0
C  C44  1  0.48569948  0.31532065  0.96556383  1  0  -0.140463  0  3.682608  0  0  -0.15966  0  3.929846  0  0  -0.165791  0  3.949883  0  0  -0.079165  -0.155708  0  3.916469  0
C  C45  1  0.34910501  0.52038858  0.03443390  1  0  -0.140736  0  3.684706  0  0  -0.160056  0  3.930993  0  0  -0.166237  0  3.951112  0  0  -0.078877  -0.156007  0  3.917434  0
C  C46  1  0.96195254  0.55568681  0.43457561  1  0  0.116689  0  3.725001  0  0  0.088302  0  3.976915  0  0  0.09367  0  3.995407  0  0  0.039121  0.084787  0  3.964491  0
C  C47  1  0.12106056  0.52737065  0.56612620  1  0  0.117208  0  3.722248  0  0  0.088852  0  3.974019  0  0  0.094208  0  3.992479  0  0  0.039193  0.085331  0  3.961647  0
C  C48  1  0.80568255  0.71193358  0.93457396  1  0  0.116926  0  3.724838  0  0  0.088583  0  3.97675  0  0  0.093959  0  3.995232  0  0  0.039118  0.08506  0  3.964337  0
C  C49  1  0.77737247  0.87104542  0.06612215  1  0  0.116907  0  3.722293  0  0  0.088528  0  3.974073  0  0  0.093881  0  3.992537  0  0  0.039055  0.085007  0  3.961694  0
C  C50  1  0.38860063  0.98664416  0.69323087  1  0  0.494022  0  3.809562  0  0  0.447194  0  4.096166  0  0  0.4758  0  4.0981  0  0  0.23615  0.427837  0  4.094595  0
C  C51  1  0.29357195  0.69521079  0.30656369  1  0  0.495902  0  3.81108  0  0  0.44817  0  4.098993  0  0  0.476788  0  4.100843  0  0  0.235448  0.428824  0  4.097444  0
C  C52  1  0.23663822  0.13861455  0.19323396  1  0  0.493988  0  3.809663  0  0  0.447101  0  4.096242  0  0  0.475707  0  4.098176  0  0  0.236104  0.427734  0  4.094666  0
C  C53  1  0.94521466  0.04357950  0.80656391  1  0  0.495784  0  3.810922  0  0  0.44814  0  4.098684  0  0  0.47676  0  4.100529  0  0  0.235485  0.428777  0  4.09714  0
C  C54  1  0.44914114  0.11263403  0.46689640  1  0  0.126472  0  3.72215  0  0  0.094909  0  3.978877  0  0  0.100531  0  3.998349  0  0  0.038067  0.091271  0  3.965691  0
C  C55  1  0.64596240  0.98134496  0.53286702  1  0  0.1249  0  3.72215  0  0  0.094023  0  3.978313  0  0  0.099579  0  3.997736  0  0  0.03836  0.090432  0  3.965167  0
C  C56  1  0.36262423  0.19912476  0.96689955  1  0  0.126577  0  3.72241  0  0  0.094964  0  3.979195  0  0  0.100592  0  3.998655  0  0  0.038016  0.09133  0  3.966003  0
C  C57  1  0.23134491  0.39595464  0.03286667  1  0  0.12496  0  3.722173  0  0  0.094077  0  3.978364  0  0  0.09963  0  3.997778  0  0  0.038409  0.090491  0  3.965215  0
C  C58  1  0.30097941  0.11284381  0.66571751  1  0  -0.077163  0  3.801494  0  0  -0.07766  0  4.071928  0  0  -0.08852  0  4.087738  0  0  0.082063  -0.070885  0  4.061556  0
C  C59  1  0.44722230  0.63508691  0.33405286  1  0  -0.077204  0  3.797268  0  0  -0.078491  0  4.069866  0  0  -0.089207  0  4.085462  0  0  0.082272  -0.071679  0  4.059469  0
C  C60  1  0.36282994  0.05099002  0.16571173  1  0  -0.077053  0  3.801485  0  0  -0.077606  0  4.071972  0  0  -0.088458  0  4.087777  0  0  0.082114  -0.070766  0  4.061522  0
C  C61  1  0.88510316  0.19724540  0.83405669  1  0  -0.07731  0  3.797801  0  0  -0.078545  0  4.070244  0  0  -0.089263  0  4.08584  0  0  0.082243  -0.071733  0  4.059848  0
C  C62  1  0.32814442  0.27150794  0.72586886  1  0  0.271246  0  3.785753  0  0  0.248563  0  4.074307  0  0  0.260617  0  4.09337  0  0  0.176881  0.240334  0  4.061677  0
C  C63  1  0.54586951  0.60200019  0.27382638  1  0  0.272649  0  3.781763  0  0  0.250259  0  4.070701  0  0  0.262285  0  4.089696  0  0  0.176791  0.242012  0  4.058084  0
C  C64  1  0.52149369  0.07816378  0.22586392  1  0  0.271311  0  3.785442  0  0  0.248634  0  4.074017  0  0  0.260687  0  4.093074  0  0  0.176979  0.240384  0  4.061374  0
C  C65  1  0.85204042  0.29589533  0.77383638  1  0  0.27285  0  3.781325  0  0  0.250445  0  4.07026  0  0  0.262476  0  4.089259  0  0  0.176787  0.242196  0  4.057644  0
C  C66  1  0.54296910  0.91376924  0.81943393  1  0  -0.085058  0  3.60214  0  0  -0.185749  0  3.869079  0  0  -0.178627  0  3.873627  0  0  -0.137157  -0.190463  0  3.866005  0
C  C67  1  0.09412822  0.72250443  0.18028213  1  0  -0.08641  0  3.598822  0  0  -0.186609  0  3.865254  0  0  -0.179573  0  3.869728  0  0  -0.137535  -0.191254  0  3.862262  0
C  C68  1  0.16375662  0.29297656  0.31942967  1  0  -0.084983  0  3.602169  0  0  -0.185873  0  3.869037  0  0  -0.178707  0  3.873613  0  0  -0.137164  -0.190618  0  3.865956  0
C  C69  1  0.97249857  0.84413351  0.68028152  1  0  -0.086335  0  3.598907  0  0  -0.186548  0  3.865364  0  0  -0.179512  0  3.869838  0  0  -0.13751  -0.191207  0  3.862367  0
N  N70  1  0.10191889  0.60193944  0.50035260  1  0  -0.330226  0  3.290807  0  0  -0.258464  0  3.557394  0  0  -0.27391  0  3.573996  0  0  -0.327422  -0.248077  0  3.546123  0
N  N71  1  0.85193746  0.85190176  0.00034808  1  0  -0.330106  0  3.290831  0  0  -0.258351  0  3.557409  0  0  -0.273795  0  3.574008  0  0  -0.327355  -0.247963  0  3.54614  0
N  N72  1  0.48756037  0.98697043  0.49984356  1  0  -0.336209  0  3.287476  0  0  -0.264728  0  3.549118  0  0  -0.283076  0  3.571787  0  0  -0.326113  -0.252327  0  3.533714  0
N  N73  1  0.23697024  0.23754941  0.99984439  1  0  -0.336202  0  3.287597  0  0  -0.264776  0  3.549346  0  0  -0.283124  0  3.572014  0  0  -0.326116  -0.252373  0  3.533941  0
N  N74  1  0.39096902  0.84879753  0.63905790  1  0  -0.672733  0  3.020351  0  0  -0.633807  0  3.303379  0  0  -0.656182  0  3.29952  0  0  -0.512434  -0.618646  0  3.305913  0
N  N75  1  0.21008854  0.75211537  0.36087721  1  0  -0.674388  0  3.018733  0  0  -0.634506  0  3.302596  0  0  -0.656863  0  3.298689  0  0  -0.51225  -0.619351  0  3.305149  0
N  N76  1  0.09877853  0.14097142  0.13905490  1  0  -0.67265  0  3.019972  0  0  -0.633839  0  3.303065  0  0  -0.65622  0  3.299221  0  0  -0.512434  -0.618673  0  3.30559  0
N  N77  1  0.00211240  0.96008098  0.86087767  1  0  -0.674285  0  3.018699  0  0  -0.634439  0  3.302528  0  0  -0.656791  0  3.298616  0  0  -0.512253  -0.619286  0  3.305089  0
N  N78  1  0.18481859  0.10066990  0.59064537  1  0  -0.000725  0  3.104175  0  0  0.006199  0  3.398969  0  0  0.020942  0  3.404231  0  0  -0.166039  -0.002556  0  3.39452  0
N  N79  1  0.50993733  0.59390210  0.40920059  1  0  -0.001026  0  3.099127  0  0  0.005601  0  3.394824  0  0  0.020283  0  3.400022  0  0  -0.16616  -0.003155  0  3.390386  0
N  N80  1  0.35065746  0.93481712  0.09064541  1  0  -0.000842  0  3.103767  0  0  0.006083  0  3.398583  0  0  0.020824  0  3.403841  0  0  -0.166126  -0.002692  0  3.394123  0
N  N81  1  0.84392391  0.25994953  0.90920218  1  0  -0.000885  0  3.09921  0  0  0.005799  0  3.394826  0  0  0.020487  0  3.40003  0  0  -0.166051  -0.002957  0  3.390381  0
N  N82  1  0.34497880  0.40524145  0.77024948  1  0  -0.407294  0  2.555398  0  0  -0.390796  0  2.774402  0  0  -0.402003  0  2.787518  0  0  -0.323948  -0.383137  0  2.765651  0
N  N83  1  0.63536174  0.57415803  0.22944584  1  0  -0.40825  0  2.553661  0  0  -0.391628  0  2.77268  0  0  -0.402848  0  2.785822  0  0  -0.323551  -0.38397  0  2.763919  0
N  N84  1  0.65522522  0.09500641  0.27024258  1  0  -0.407364  0  2.555139  0  0  -0.390872  0  2.774147  0  0  -0.40208  0  2.787258  0  0  -0.32405  -0.383215  0  2.765401  0
N  N85  1  0.82421717  0.38541718  0.72946053  1  0  -0.408333  0  2.552928  0  0  -0.391756  0  2.772006  0  0  -0.402978  0  2.78515  0  0  -0.323491  -0.384094  0  2.763248  0
O  O86  1  0.46044433  0.03068776  0.78223160  1  0  -0.269914  0  2.33306  0  0  -0.190633  0  2.577179  0  0  -0.211632  0  2.578806  0  0  -0.166198  -0.17602  0  2.575614  0
O  O87  1  0.24841410  0.67753808  0.21747111  1  0  -0.272014  0  2.333414  0  0  -0.191755  0  2.577224  0  0  -0.212791  0  2.578882  0  0  -0.165978  -0.177241  0  2.575716  0
O  O88  1  0.28067813  0.21045934  0.28222747  1  0  -0.269939  0  2.333429  0  0  -0.190365  0  2.577347  0  0  -0.211361  0  2.578956  0  0  -0.166128  -0.175787  0  2.575824  0
O  O89  1  0.92754737  0.99842456  0.71747191  1  0  -0.271972  0  2.333607  0  0  -0.19177  0  2.577428  0  0  -0.212807  0  2.579086  0  0  -0.166033  -0.177217  0  2.575904  0
O  O90  1  0.14334524  0.96831788  0.52600004  1  0  -0.426342  0  2.014192  0  0  -0.370639  0  2.288032  0  0  -0.394679  0  2.283253  0  0  -0.202218  -0.353987  0  2.29049  0
O  O91  1  0.44205345  0.61696977  0.47391411  1  0  -0.426364  0  2.012571  0  0  -0.369837  0  2.285749  0  0  -0.393884  0  2.280979  0  0  -0.201971  -0.353185  0  2.288223  0
O  O92  1  0.21830276  0.89333404  0.02600190  1  0  -0.426284  0  2.013786  0  0  -0.370574  0  2.287617  0  0  -0.394613  0  2.282835  0  0  -0.20217  -0.353926  0  2.290086  0
O  O93  1  0.86697109  0.19204857  0.97391297  1  0  -0.426418  0  2.012314  0  0  -0.369997  0  2.285541  0  0  -0.394065  0  2.280786  0  0  -0.202068  -0.35334  0  2.288007  0
