# generated using pymatgen
data_HgH18C27Br2N2O
_symmetry_space_group_name_H-M   'P 1'
_cell_length_a   7.17276859
_cell_length_b   13.08717276
_cell_length_c   14.37120000
_cell_angle_alpha   104.71742162
_cell_angle_beta   105.18662968
_cell_angle_gamma   89.80667021
_symmetry_Int_Tables_number   1
_chemical_formula_structural   HgH18C27Br2N2O
_chemical_formula_sum   'Hg2 H36 C54 Br4 N4 O2'
_cell_volume   1256.32757958
_cell_formula_units_Z   2
loop_
 _symmetry_equiv_pos_site_id
 _symmetry_equiv_pos_as_xyz
  1  'x, y, z'
loop_
 _atom_site_type_symbol
 _atom_site_label
 _atom_site_symmetry_multiplicity
 _atom_site_fract_x
 _atom_site_fract_y
 _atom_site_fract_z
 _atom_site_occupancy
 _atom_site_hle17_bader_spin_density
 _atom_site_hle17_ddec_charge
 _atom_site_hle17_ddec_spin_density
 _atom_site_hle17_ddec_sum_bond_order
 _atom_site_hle17_magmom
 _atom_site_hse06_10hf_bader_spin_density
 _atom_site_hse06_10hf_ddec_charge
 _atom_site_hse06_10hf_ddec_spin_density
 _atom_site_hse06_10hf_ddec_sum_bond_order
 _atom_site_hse06_10hf_magmom
 _atom_site_hse06_bader_spin_density
 _atom_site_hse06_ddec_charge
 _atom_site_hse06_ddec_spin_density
 _atom_site_hse06_ddec_sum_bond_order
 _atom_site_hse06_magmom
 _atom_site_pbe_bader_charge
 _atom_site_pbe_bader_spin_density
 _atom_site_pbe_cm5_charge
 _atom_site_pbe_ddec_charge
 _atom_site_pbe_ddec_spin_density
 _atom_site_pbe_ddec_sum_bond_order
 _atom_site_pbe_magmom
Hg  Hg0  1  0.15440921  0.99915890  0.99772340  1  0  0.621409  0  2.173924  0  0  0.46362  0  2.682108  0  0  0.512515  0  2.647343  0  0.675751  0  0.439688  0.430702  0  2.705049  0
Hg  Hg1  1  0.05121444  0.49936803  0.99939063  1  0  0.64216  0  2.116092  0  0  0.485449  0  2.617555  0  0  0.53224  0  2.585687  0  0.678327  0  0.448033  0.454022  0  2.638626  0
H  H2  1  0.28254247  0.00991863  0.36643405  1  0  0.090239  0  0.972507  0  0  0.100277  0  1.035591  0  0  0.103268  0  1.033835  0  0.085081  0  0.098883  0.09813  0  1.036907  0
H  H3  1  0.91735995  0.99005191  0.63488318  1  0  0.090525  0  0.97159  0  0  0.099167  0  1.036293  0  0  0.102171  0  1.034568  0  0.079399  0  0.098336  0.097043  0  1.037588  0
H  H4  1  0.18363448  0.83608274  0.24294892  1  0  0.07574  0  0.979374  0  0  0.085679  0  1.04728  0  0  0.08821  0  1.046061  0  0.052245  0  0.088276  0.083768  0  1.048324  0
H  H5  1  0.94062935  0.16343090  0.75847514  1  0  0.075708  0  0.983809  0  0  0.085064  0  1.052648  0  0  0.087714  0  1.051286  0  0.050793  0  0.087205  0.083087  0  1.053763  0
H  H6  1  0.08581067  0.68156324  0.29521167  1  0  0.084591  0  0.980664  0  0  0.092264  0  1.050547  0  0  0.095627  0  1.048246  0  0.100806  0  0.087736  0.089848  0  1.052247  0
H  H7  1  0.78917430  0.31810481  0.70505986  1  0  0.084637  0  0.981286  0  0  0.092531  0  1.050843  0  0  0.095896  0  1.048519  0  0.093704  0  0.08786  0.090094  0  1.052598  0
H  H8  1  0.07900525  0.70433665  0.47136190  1  0  0.092172  0  0.949  0  0  0.105214  0  1.005725  0  0  0.107569  0  1.005438  0  0.077382  0  0.103117  0.103566  0  1.005965  0
H  H9  1  0.60599215  0.29594191  0.52775259  1  0  0.091896  0  0.948455  0  0  0.104918  0  1.005153  0  0  0.107336  0  1.004753  0  0.079441  0  0.103132  0.10319  0  1.005515  0
H  H10  1  0.16681777  0.87848753  0.59367188  1  0  0.085768  0  0.96708  0  0  0.098562  0  1.02551  0  0  0.100768  0  1.025469  0  0.063145  0  0.09818  0.096974  0  1.025615  0
H  H11  1  0.57299120  0.12230573  0.40511853  1  0  0.086001  0  0.967226  0  0  0.098895  0  1.025507  0  0  0.101097  0  1.025412  0  0.059652  0  0.09822  0.097321  0  1.025614  0
H  H12  1  0.61092600  0.93646392  0.66494732  1  0  0.113119  0  0.979741  0  0  0.119475  0  1.045431  0  0  0.122787  0  1.043222  0  0.157922  0  0.107354  0.117068  0  1.047084  0
H  H13  1  0.94781735  0.06365470  0.33718033  1  0  0.111486  0  0.98807  0  0  0.118164  0  1.05322  0  0  0.12144  0  1.051178  0  0.144957  0  0.107174  0.115816  0  1.054705  0
H  H14  1  0.69102795  0.83030387  0.79060411  1  0  0.113935  0  0.933083  0  0  0.124942  0  0.986043  0  0  0.128599  0  0.984777  0  0.095967  0  0.111657  0.122344  0  0.987091  0
H  H15  1  0.90048151  0.16896985  0.21127713  1  0  0.11409  0  0.932087  0  0  0.126027  0  0.983582  0  0  0.129664  0  0.982315  0  0.117081  0  0.113135  0.123441  0  0.98463  0
H  H16  1  0.51202594  0.85756782  0.92303785  1  0  0.077768  0  0.944378  0  0  0.084817  0  1.012289  0  0  0.086867  0  1.011156  0  0.116738  0  0.11081  0.083312  0  1.013156  0
H  H17  1  0.58584665  0.14099165  0.07608218  1  0  0.07879  0  0.944981  0  0  0.085554  0  1.012904  0  0  0.087609  0  1.011814  0  0.096596  0  0.111078  0.08404  0  1.013741  0
H  H18  1  0.20110371  0.09100259  0.81905149  1  0  0.070732  0  0.986559  0  0  0.075468  0  1.061814  0  0  0.077932  0  1.059839  0  0.109767  0  0.100092  0.073653  0  1.063313  0
H  H19  1  0.37972894  0.90882383  0.17895804  1  0  0.070696  0  0.984315  0  0  0.075214  0  1.059835  0  0  0.077744  0  1.057716  0  0.102501  0  0.100009  0.07336  0  1.061395  0
H  H20  1  0.67089020  0.19682531  0.85089601  1  0  0.097613  0  0.961045  0  0  0.106788  0  1.0262  0  0  0.109365  0  1.02495  0  0.10542  0  0.097516  0.104851  0  1.027211  0
H  H21  1  0.82089391  0.80339782  0.15151629  1  0  0.097813  0  0.958924  0  0  0.106552  0  1.024709  0  0  0.109057  0  1.023594  0  0.091225  0  0.098697  0.104726  0  1.025478  0
H  H22  1  0.73323898  0.29481908  0.03004916  1  0  0.100934  0  0.984658  0  0  0.1073  0  1.051496  0  0  0.110764  0  1.05013  0  0.112415  0  0.090713  0.104857  0  1.05262  0
H  H23  1  0.70146279  0.70491390  0.97216429  1  0  0.101233  0  0.982261  0  0  0.107193  0  1.049909  0  0  0.110655  0  1.048506  0  0.097758  0  0.090685  0.104761  0  1.051036  0
H  H24  1  0.47986577  0.41055964  0.08471243  1  0  0.082017  0  0.933503  0  0  0.087915  0  1.001392  0  0  0.090328  0  0.999707  0  0.107119  0  0.111989  0.0862  0  1.002577  0
H  H25  1  0.39220397  0.58869982  0.91525389  1  0  0.083178  0  0.934921  0  0  0.088917  0  1.002665  0  0  0.091444  0  1.000896  0  0.105516  0  0.112231  0.087103  0  1.003922  0
H  H26  1  0.13146920  0.34940004  0.79465910  1  0  0.078804  0  0.966794  0  0  0.083128  0  1.040911  0  0  0.085619  0  1.03921  0  0.097312  0  0.10539  0.081348  0  1.042137  0
H  H27  1  0.33738515  0.65085239  0.20350966  1  0  0.079418  0  0.963139  0  0  0.083514  0  1.037508  0  0  0.086008  0  1.035791  0  0.104328  0  0.10575  0.081738  0  1.038741  0
H  H28  1  0.52355377  0.42120518  0.73804372  1  0  0.083472  0  0.998699  0  0  0.090745  0  1.06958  0  0  0.093443  0  1.068683  0  0.078395  0  0.083983  0.088829  0  1.070248  0
H  H29  1  0.78546474  0.57835914  0.26373062  1  0  0.084558  0  0.994873  0  0  0.091305  0  1.066118  0  0  0.093993  0  1.065243  0  0.065065  0  0.084996  0.089376  0  1.066827  0
H  H30  1  0.48985723  0.60860439  0.74152729  1  0  0.08439  0  0.957418  0  0  0.095101  0  1.016829  0  0  0.09771  0  1.016019  0  0.080996  0  0.091683  0.09321  0  1.017498  0
H  H31  1  0.74748853  0.39108980  0.26027336  1  0  0.083599  0  0.956692  0  0  0.094627  0  1.015353  0  0  0.097255  0  1.014576  0  0.05898  0  0.092463  0.092774  0  1.015941  0
H  H32  1  0.19911753  0.66387029  0.63022813  1  0  0.082458  0  0.950324  0  0  0.096175  0  1.005509  0  0  0.09885  0  1.004504  0  0.060098  0  0.097578  0.094254  0  1.006261  0
H  H33  1  0.56898806  0.33659277  0.36972027  1  0  0.082653  0  0.948858  0  0  0.096053  0  1.004466  0  0  0.098685  0  1.003483  0  0.06444  0  0.097939  0.09417  0  1.005193  0
H  H34  1  0.94908467  0.52602464  0.51088396  1  0  0.087075  0  0.977601  0  0  0.09621  0  1.04093  0  0  0.097744  0  1.042467  0  0.08766  0  0.095474  0.095036  0  1.040003  0
H  H35  1  0.44027892  0.47509328  0.48757016  1  0  0.088028  0  0.971658  0  0  0.097589  0  1.034106  0  0  0.099217  0  1.035468  0  0.076026  0  0.096211  0.09638  0  1.033248  0
H  H36  1  0.98558122  0.33694751  0.50576186  1  0  0.093344  0  0.964418  0  0  0.101309  0  1.030058  0  0  0.104096  0  1.029094  0  0.049126  0  0.096948  0.099312  0  1.030783  0
H  H37  1  0.48258312  0.66394948  0.49271540  1  0  0.093667  0  0.963735  0  0  0.102015  0  1.028431  0  0  0.104862  0  1.02737  0  0.066059  0  0.09728  0.100004  0  1.029216  0
C  C38  1  0.23212205  0.16431223  0.52925699  1  0  0.416964  0  3.691861  0  0  0.392273  0  3.963425  0  0  0.412784  0  3.967407  0  0.967748  0  0.175643  0.377992  0  3.960979  0
C  C39  1  0.70321688  0.83622765  0.47063143  1  0  0.416733  0  3.691363  0  0  0.393066  0  3.962822  0  0  0.413472  0  3.966815  0  0.96886  0  0.175754  0.378826  0  3.96043  0
C  C40  1  0.28069647  0.06239804  0.56045028  1  0  -0.120993  0  3.687968  0  0  -0.118284  0  3.93397  0  0  -0.122794  0  3.955483  0  0.08527  0  -0.015666  -0.115122  0  3.919422  0
C  C41  1  0.72094724  0.93806027  0.43972523  1  0  -0.119554  0  3.688173  0  0  -0.117479  0  3.935088  0  0  -0.121877  0  3.956482  0  0.094389  0  -0.015487  -0.114438  0  3.920665  0
C  C42  1  0.34613527  0.09164319  0.66238574  1  0  0.013444  0  3.679147  0  0  0.014619  0  3.920749  0  0  0.015899  0  3.943421  0  -0.142586  0  0.009447  0.013736  0  3.905502  0
C  C43  1  0.68464765  0.90866309  0.33798790  1  0  0.012437  0  3.679062  0  0  0.01288  0  3.921361  0  0  0.014137  0  3.944006  0  -0.1467  0  0.007841  0.012036  0  3.906117  0
C  C44  1  0.34199293  0.20973631  0.70049079  1  0  0.014692  0  3.698414  0  0  0.015154  0  3.938008  0  0  0.016166  0  3.961208  0  0.001793  0  0.009434  0.01451  0  3.922347  0
C  C45  1  0.64292422  0.79055175  0.29980543  1  0  0.01441  0  3.700151  0  0  0.015479  0  3.939398  0  0  0.016531  0  3.962555  0  -0.014409  0  0.009541  0.014758  0  3.923839  0
C  C46  1  0.27417140  0.25383406  0.62263300  1  0  -0.12321  0  3.713362  0  0  -0.118231  0  3.954032  0  0  -0.12323  0  3.975967  0  -0.040002  0  -0.016347  -0.114788  0  3.939237  0
C  C47  1  0.65275767  0.74647776  0.37735628  1  0  -0.122583  0  3.710218  0  0  -0.118758  0  3.953049  0  0  -0.12365  0  3.974826  0  -0.015941  0  -0.016144  -0.115391  0  3.93838  0
C  C48  1  0.23478684  0.95795217  0.49000066  1  0  0.076158  0  3.790327  0  0  0.089656  0  4.02877  0  0  0.089372  0  4.053487  0  0.054761  0  -0.01112  0.089901  0  4.011884  0
C  C49  1  0.74527378  0.04245468  0.51011042  1  0  0.07539  0  3.790191  0  0  0.0895  0  4.027938  0  0  0.089257  0  4.052474  0  -0.041357  0  -0.010591  0.089699  0  4.011226  0
C  C50  1  0.23774616  0.94333316  0.38973033  1  0  -0.109796  0  3.725993  0  0  -0.133369  0  3.977891  0  0  -0.135883  0  3.999995  0  -0.10383  0  -0.092167  -0.131542  0  3.962803  0
C  C51  1  0.84866062  0.05674428  0.61110999  1  0  -0.109917  0  3.724123  0  0  -0.13253  0  3.976232  0  0  -0.135098  0  3.998303  0  -0.053483  0  -0.092557  -0.130709  0  3.961174  0
C  C52  1  0.18298471  0.84513113  0.32048896  1  0  -0.079105  0  3.785498  0  0  -0.090935  0  4.038155  0  0  -0.094901  0  4.063043  0  -0.072705  0  -0.098931  -0.088048  0  4.021126  0
C  C53  1  0.86252653  0.15465411  0.68039627  1  0  -0.080646  0  3.789235  0  0  -0.092069  0  4.041198  0  0  -0.096143  0  4.066117  0  -0.074823  0  -0.099158  -0.089132  0  4.024164  0
C  C54  1  0.12750598  0.75849002  0.34933893  1  0  -0.059449  0  3.747713  0  0  -0.075519  0  3.998819  0  0  -0.077454  0  4.021258  0  -0.058946  0  -0.092124  -0.073978  0  3.983413  0
C  C55  1  0.77729837  0.24136253  0.65091689  1  0  -0.05897  0  3.748494  0  0  -0.075243  0  3.999533  0  0  -0.077176  0  4.02201  0  -0.048026  0  -0.091883  -0.073718  0  3.984129  0
C  C56  1  0.12503153  0.77124899  0.44853746  1  0  -0.069696  0  3.77618  0  0  -0.082974  0  4.028503  0  0  -0.08528  0  4.050385  0  -0.055677  0  -0.091862  -0.081354  0  4.013398  0
C  C57  1  0.67564723  0.22898127  0.55103109  1  0  -0.068509  0  3.775132  0  0  -0.081708  0  4.027595  0  0  -0.084017  0  4.04942  0  -0.045213  0  -0.092149  -0.080053  0  4.012557  0
C  C58  1  0.17613410  0.86946527  0.51761268  1  0  -0.1054  0  3.714724  0  0  -0.127299  0  3.96515  0  0  -0.130016  0  3.987097  0  -0.061812  0  -0.088338  -0.125162  0  3.949948  0
C  C59  1  0.65848897  0.13103580  0.48180641  1  0  -0.106277  0  3.717158  0  0  -0.128476  0  3.967685  0  0  -0.131048  0  3.989436  0  -0.025353  0  -0.08868  -0.126447  0  3.95263  0
C  C60  1  0.39894869  0.02360564  0.73098154  1  0  0.013385  0  3.777575  0  0  0.034064  0  4.011028  0  0  0.029391  0  4.033836  0  0.021496  0  -0.00175  0.036865  0  3.995695  0
C  C61  1  0.66794568  0.97640132  0.26927439  1  0  0.012401  0  3.782018  0  0  0.034213  0  4.014527  0  0  0.029523  0  4.037349  0  -0.033718  0  -0.001353  0.03701  0  3.999207  0
C  C62  1  0.53737577  0.94789655  0.72386517  1  0  -0.039375  0  3.653356  0  0  -0.065971  0  3.898132  0  0  -0.06272  0  3.915577  0  -0.091198  0  -0.060328  -0.067661  0  3.886098  0
C  C63  1  0.81396646  0.05193225  0.27734109  1  0  -0.038759  0  3.660868  0  0  -0.0661  0  3.905563  0  0  -0.062869  0  3.922995  0  0.006349  0  -0.061222  -0.067826  0  3.893584  0
C  C64  1  0.58104087  0.88786929  0.79324539  1  0  -0.115468  0  3.734427  0  0  -0.12352  0  3.980012  0  0  -0.131194  0  4.00121  0  0.014924  0  -0.079451  -0.118667  0  3.965698  0
C  C65  1  0.78735652  0.11150499  0.20764395  1  0  -0.114588  0  3.738437  0  0  -0.12334  0  3.984129  0  0  -0.130908  0  4.005173  0  -0.023976  0  -0.0795  -0.118556  0  3.969924  0
C  C66  1  0.48295624  0.90271714  0.86711081  1  0  0.121263  0  3.709267  0  0  0.09022  0  3.959048  0  0  0.097638  0  3.978278  0  0.476115  0  0.045793  0.085445  0  3.94582  0
C  C67  1  0.61395756  0.09626597  0.13234997  1  0  0.119073  0  3.715181  0  0  0.088173  0  3.964372  0  0  0.095567  0  3.98366  0  0.435454  0  0.045623  0.083414  0  3.951144  0
C  C68  1  0.30921478  0.03346488  0.80848235  1  0  0.07484  0  3.687599  0  0  0.040833  0  3.930543  0  0  0.047411  0  3.948665  0  0.447624  0  0.042423  0.036646  0  3.918167  0
C  C69  1  0.49915563  0.96616279  0.19040283  1  0  0.074831  0  3.690435  0  0  0.040172  0  3.933166  0  0  0.046807  0  3.951249  0  0.477979  0  0.04218  0.035997  0  3.920768  0
C  C70  1  0.39447043  0.26449465  0.80688882  1  0  0.010194  0  3.789786  0  0  0.031573  0  4.020764  0  0  0.026457  0  4.044408  0  -0.008228  0  -0.002941  0.034732  0  4.004807  0
C  C71  1  0.58859075  0.73569127  0.19341665  1  0  0.006894  0  3.790399  0  0  0.029248  0  4.020064  0  0  0.024013  0  4.0438  0  -0.041027  0  -0.004082  0.032454  0  4.004141  0
C  C72  1  0.56455414  0.24903708  0.87553547  1  0  -0.048195  0  3.683415  0  0  -0.073022  0  3.924934  0  0  -0.070698  0  3.944751  0  -0.086089  0  -0.069174  -0.074066  0  3.911306  0
C  C73  1  0.68943274  0.75100077  0.12589648  1  0  -0.046863  0  3.68116  0  0  -0.071855  0  3.922733  0  0  -0.069424  0  3.942536  0  -0.08705  0  -0.068206  -0.072977  0  3.909172  0
C  C74  1  0.59913418  0.30290697  0.97612651  1  0  -0.129814  0  3.769325  0  0  -0.138535  0  4.020036  0  0  -0.146706  0  4.042495  0  -0.002282  0  -0.092235  -0.133331  0  4.004909  0
C  C75  1  0.62197153  0.69677772  0.02522277  1  0  -0.129692  0  3.766027  0  0  -0.1378  0  4.016593  0  0  -0.146028  0  4.039132  0  0.050627  0  -0.091811  -0.132581  0  4.001452  0
C  C76  1  0.46100439  0.36822057  0.00656095  1  0  0.129222  0  3.700612  0  0  0.095804  0  3.955983  0  0  0.103498  0  3.973854  0  0.470712  0  0.043606  0.090873  0  3.943728  0
C  C77  1  0.45276889  0.63122972  0.99353311  1  0  0.12832  0  3.699397  0  0  0.095173  0  3.954246  0  0  0.102807  0  3.972126  0  0.460011  0  0.044572  0.090298  0  3.941975  0
C  C78  1  0.26547921  0.33370650  0.84454550  1  0  0.087849  0  3.678428  0  0  0.051848  0  3.927212  0  0  0.058419  0  3.945276  0  0.540004  0  0.049263  0.047656  0  3.914904  0
C  C79  1  0.42121053  0.66632105  0.15453943  1  0  0.087725  0  3.674284  0  0  0.051734  0  3.923396  0  0  0.058318  0  3.941458  0  0.56127  0  0.048916  0.047539  0  3.911079  0
C  C80  1  0.25498649  0.36503024  0.62286047  1  0  0.069411  0  3.812064  0  0  0.085297  0  4.045152  0  0  0.084752  0  4.070145  0  -0.038025  0  -0.012591  0.085669  0  4.028156  0
C  C81  1  0.63326810  0.63531009  0.37715562  1  0  0.070594  0  3.803616  0  0  0.085311  0  4.039383  0  0  0.084765  0  4.064222  0  -0.037885  0  -0.012153  0.085681  0  4.022502  0
C  C82  1  0.39591821  0.44353516  0.68886446  1  0  -0.120067  0  3.74358  0  0  -0.140414  0  3.988886  0  0  -0.143333  0  4.011387  0  -0.062854  0  -0.097173  -0.138331  0  3.973608  0
C  C83  1  0.70739563  0.55640845  0.31216328  1  0  -0.120687  0  3.739594  0  0  -0.140003  0  3.985869  0  0  -0.142829  0  4.008209  0  -0.025382  0  -0.096841  -0.138012  0  3.970765  0
C  C84  1  0.37658124  0.54988446  0.69085861  1  0  -0.075425  0  3.798263  0  0  -0.085429  0  4.045736  0  0  -0.088151  0  4.068482  0  -0.050179  0  -0.097873  -0.083487  0  4.030194  0
C  C85  1  0.68561570  0.45014943  0.31016504  1  0  -0.074562  0  3.798655  0  0  -0.084801  0  4.046314  0  0  -0.087543  0  4.068918  0  -0.026476  0  -0.097183  -0.082912  0  4.030908  0
C  C86  1  0.21519643  0.58032450  0.62755037  1  0  -0.065406  0  3.774083  0  0  -0.082257  0  4.02326  0  0  -0.083987  0  4.044578  0  -0.057374  0  -0.091439  -0.080918  0  4.008529  0
C  C87  1  0.58799401  0.42007680  0.37246269  1  0  -0.065132  0  3.771182  0  0  -0.08189  0  4.020974  0  0  -0.083493  0  4.042166  0  -0.053956  0  -0.090922  -0.080676  0  4.006396  0
C  C88  1  0.07545923  0.50331220  0.56072439  1  0  -0.072065  0  3.778288  0  0  -0.082337  0  4.024677  0  0  -0.08431  0  4.046789  0  -0.060552  0  -0.093721  -0.080883  0  4.009555  0
C  C89  1  0.51618392  0.49745177  0.43838387  1  0  -0.071851  0  3.774372  0  0  -0.082196  0  4.021025  0  0  -0.084127  0  4.042828  0  -0.044455  0  -0.093297  -0.080803  0  4.0061  0
C  C90  1  0.09552181  0.39648779  0.55759838  1  0  -0.099987  0  3.710616  0  0  -0.122875  0  3.957988  0  0  -0.124661  0  3.977926  0  0.000313  0  -0.087917  -0.12152  0  3.944359  0
C  C91  1  0.53980967  0.60419778  0.44153702  1  0  -0.09983  0  3.704403  0  0  -0.122434  0  3.952661  0  0  -0.124182  0  3.972481  0  -0.073356  0  -0.08768  -0.12117  0  3.939141  0
Br  Br92  1  0.05129336  0.18072714  0.98802580  1  0  -0.425087  0  1.074344  0  0  -0.373401  0  1.382428  0  0  -0.391467  0  1.362147  0  -0.432117  0  -0.231383  -0.36121  0  1.396176  0
Br  Br93  1  0.05748185  0.81920064  0.00871924  1  0  -0.425181  0  1.070498  0  0  -0.373472  0  1.377906  0  0  -0.391517  0  1.357647  0  -0.430675  0  -0.232225  -0.361321  0  1.391634  0
Br  Br94  1  0.88931175  0.52830673  0.83131119  1  0  -0.403185  0  1.015419  0  0  -0.342704  0  1.299716  0  0  -0.361065  0  1.281688  0  -0.418484  0  -0.21442  -0.330226  0  1.311929  0
Br  Br95  1  0.05747437  0.47236221  0.16722650  1  0  -0.403805  0  1.007396  0  0  -0.343245  0  1.290378  0  0  -0.361639  0  1.272512  0  -0.419161  0  -0.215852  -0.330735  0  1.302501  0
N  N96  1  0.34802113  0.97373202  0.87338293  1  0  -0.288119  0  3.270853  0  0  -0.212196  0  3.532211  0  0  -0.232294  0  3.553441  0  -1.227694  0  -0.314827  -0.198521  0  3.517344  0
N  N97  1  0.47246489  0.02533265  0.12512535  1  0  -0.285803  0  3.279788  0  0  -0.208811  0  3.540062  0  0  -0.22899  0  3.561509  0  -1.198341  0  -0.31466  -0.19511  0  3.525066  0
N  N98  1  0.29719081  0.38248008  0.94125836  1  0  -0.289721  0  3.291443  0  0  -0.214699  0  3.55346  0  0  -0.234075  0  3.574477  0  -1.239876  0  -0.316278  -0.201466  0  3.538767  0
N  N99  1  0.35503399  0.61709690  0.05780097  1  0  -0.287731  0  3.289362  0  0  -0.21318  0  3.552045  0  0  -0.23254  0  3.573099  0  -1.245044  0  -0.316291  -0.199957  0  3.537318  0
O  O100  1  0.16806927  0.17272635  0.44377699  1  0  -0.41518  0  1.94743  0  0  -0.364914  0  2.144558  0  0  -0.381525  0  2.141858  0  -1.085663  0  -0.228621  -0.353878  0  2.146529  0
O  O101  1  0.72348860  0.82816985  0.55588735  1  0  -0.416264  0  1.944132  0  0  -0.365753  0  2.140244  0  0  -0.382288  0  2.137492  0  -1.078906  0  -0.228931  -0.354756  0  2.142273  0
