# generated using pymatgen
data_CdH28C32S4(NO2)2
_symmetry_space_group_name_H-M   'P 1'
_cell_length_a   8.08899279
_cell_length_b   12.82607845
_cell_length_c   15.78602722
_cell_angle_alpha   113.98791763
_cell_angle_beta   91.57761190
_cell_angle_gamma   90.00023512
_symmetry_Int_Tables_number   1
_chemical_formula_structural   CdH28C32S4(NO2)2
_chemical_formula_sum   'Cd2 H56 C64 S8 N4 O8'
_cell_volume   1495.66669341
_cell_formula_units_Z   2
loop_
 _symmetry_equiv_pos_site_id
 _symmetry_equiv_pos_as_xyz
  1  'x, y, z'
loop_
 _atom_site_type_symbol
 _atom_site_label
 _atom_site_symmetry_multiplicity
 _atom_site_fract_x
 _atom_site_fract_y
 _atom_site_fract_z
 _atom_site_occupancy
 _atom_site_hle17_bader_spin_density
 _atom_site_hle17_ddec_charge
 _atom_site_hle17_ddec_spin_density
 _atom_site_hle17_ddec_sum_bond_order
 _atom_site_hle17_magmom
 _atom_site_hse06_10hf_bader_spin_density
 _atom_site_hse06_10hf_ddec_charge
 _atom_site_hse06_10hf_ddec_spin_density
 _atom_site_hse06_10hf_ddec_sum_bond_order
 _atom_site_hse06_10hf_magmom
 _atom_site_hse06_bader_spin_density
 _atom_site_hse06_ddec_charge
 _atom_site_hse06_ddec_spin_density
 _atom_site_hse06_ddec_sum_bond_order
 _atom_site_hse06_magmom
 _atom_site_pbe_bader_spin_density
 _atom_site_pbe_cm5_charge
 _atom_site_pbe_ddec_charge
 _atom_site_pbe_ddec_spin_density
 _atom_site_pbe_ddec_sum_bond_order
 _atom_site_pbe_magmom
Cd  Cd0  1  0.74990295  0.51470243  0.99992992  1  0  0.650968  0  2.239387  0  0  0.521079  0  2.684433  0  0  0.556667  0  2.664035  0  0  0.476614  0.496577  0  2.697713  0
Cd  Cd1  1  0.25009297  0.48529867  0.00006595  1  0  0.650992  0  2.239351  0  0  0.521095  0  2.684399  0  0  0.556691  0  2.663988  0  0  0.476633  0.496543  0  2.697785  0
H  H2  1  0.27210954  0.75292121  0.11792698  1  0  0.07908  0  0.992078  0  0  0.092168  0  1.06326  0  0  0.093382  0  1.062197  0  0  0.091692  0.091168  0  1.064171  0
H  H3  1  0.22771323  0.63528367  0.88211558  1  0  0.079135  0  0.991388  0  0  0.092554  0  1.062138  0  0  0.093766  0  1.06109  0  0  0.091802  0.091533  0  1.063093  0
H  H4  1  0.72789014  0.24708413  0.88207227  1  0  0.079067  0  0.992053  0  0  0.092172  0  1.063228  0  0  0.093385  0  1.062165  0  0  0.091698  0.091169  0  1.064142  0
H  H5  1  0.77227864  0.36470892  0.11787931  1  0  0.079203  0  0.991424  0  0  0.092577  0  1.062219  0  0  0.093791  0  1.061171  0  0  0.091837  0.091555  0  1.063178  0
H  H6  1  0.33075283  0.80158513  0.23754341  1  0  0.078637  0  0.925208  0  0  0.092872  0  0.991195  0  0  0.094151  0  0.990044  0  0  0.104989  0.091916  0  0.992057  0
H  H7  1  0.16909389  0.56440623  0.76250847  1  0  0.078266  0  0.925464  0  0  0.092714  0  0.991082  0  0  0.093944  0  0.989996  0  0  0.105159  0.091782  0  0.991936  0
H  H8  1  0.66924058  0.19842027  0.76245824  1  0  0.078572  0  0.925216  0  0  0.092844  0  0.991168  0  0  0.094123  0  0.990015  0  0  0.104948  0.091885  0  0.992028  0
H  H9  1  0.83090324  0.43559315  0.23748623  1  0  0.078354  0  0.925458  0  0  0.092769  0  0.991084  0  0  0.094004  0  0.989993  0  0  0.105194  0.091837  0  0.99194  0
H  H10  1  0.40615634  0.99083992  0.31991478  1  0  0.084787  0  0.965334  0  0  0.09607  0  1.029729  0  0  0.099027  0  1.027776  0  0  0.093822  0.093961  0  1.031169  0
H  H11  1  0.09353532  0.67147001  0.68038361  1  0  0.084656  0  0.965289  0  0  0.096091  0  1.029513  0  0  0.099085  0  1.02754  0  0  0.09384  0.093926  0  1.031028  0
H  H12  1  0.59383433  0.00915867  0.68008584  1  0  0.084832  0  0.965272  0  0  0.096115  0  1.029654  0  0  0.099073  0  1.027704  0  0  0.093829  0.094005  0  1.031099  0
H  H13  1  0.90647389  0.32852504  0.31961377  1  0  0.084612  0  0.965194  0  0  0.096  0  1.029463  0  0  0.098967  0  1.02752  0  0  0.093837  0.093837  0  1.030975  0
H  H14  1  0.42606232  0.19401934  0.33732122  1  0  0.108227  0  0.957824  0  0  0.120651  0  1.016421  0  0  0.123401  0  1.015445  0  0  0.103367  0.118672  0  1.017253  0
H  H15  1  0.07364421  0.85728018  0.66312202  1  0  0.108416  0  0.958199  0  0  0.120844  0  1.016538  0  0  0.123592  0  1.015582  0  0  0.10323  0.118869  0  1.017355  0
H  H16  1  0.57393939  0.80598263  0.66268584  1  0  0.108111  0  0.957753  0  0  0.120537  0  1.016381  0  0  0.123286  0  1.015405  0  0  0.103342  0.118559  0  1.017209  0
H  H17  1  0.92634634  0.14271843  0.33688178  1  0  0.108446  0  0.958058  0  0  0.120907  0  1.016365  0  0  0.123655  0  1.015407  0  0  0.103253  0.11893  0  1.017184  0
H  H18  1  0.07080509  0.30111953  0.13709138  1  0  0.052543  0  0.936923  0  0  0.062672  0  1.005101  0  0  0.062018  0  1.005065  0  0  0.105521  0.063024  0  1.005349  0
H  H19  1  0.42960499  0.16437066  0.86316839  1  0  0.052127  0  0.937155  0  0  0.062238  0  1.005301  0  0  0.061584  0  1.005269  0  0  0.105171  0.062588  0  1.005539  0
H  H20  1  0.92920085  0.69889091  0.86291158  1  0  0.052547  0  0.936955  0  0  0.062647  0  1.005121  0  0  0.061994  0  1.005087  0  0  0.105514  0.062995  0  1.005372  0
H  H21  1  0.57037944  0.83562627  0.13683153  1  0  0.05208  0  0.937265  0  0  0.062198  0  1.005404  0  0  0.061545  0  1.005373  0  0  0.105171  0.062547  0  1.005639  0
H  H22  1  0.26171342  0.25382790  0.07577225  1  0  0.038547  0  0.954097  0  0  0.042088  0  1.034939  0  0  0.042222  0  1.033585  0  0  0.096136  0.041895  0  1.036038  0
H  H23  1  0.23893402  0.17865696  0.92475127  1  0  0.038909  0  0.953825  0  0  0.042014  0  1.03523  0  0  0.042167  0  1.033851  0  0  0.095845  0.041773  0  1.036413  0
H  H24  1  0.73829354  0.74618085  0.92423463  1  0  0.038568  0  0.954053  0  0  0.042062  0  1.034926  0  0  0.042198  0  1.03357  0  0  0.096125  0.041869  0  1.036019  0
H  H25  1  0.76105174  0.82134509  0.07525227  1  0  0.038936  0  0.953805  0  0  0.042057  0  1.035183  0  0  0.04221  0  1.033804  0  0  0.095822  0.041814  0  1.036365  0
H  H26  1  0.09960291  0.90068415  0.07043114  1  0  0.12907  0  0.944523  0  0  0.13553  0  1.012287  0  0  0.139789  0  1.009032  0  0  0.10277  0.132423  0  1.014773  0
H  H27  1  0.40065757  0.83059587  0.92968297  1  0  0.128239  0  0.945364  0  0  0.135029  0  1.012799  0  0  0.139332  0  1.009522  0  0  0.102796  0.131869  0  1.015344  0
H  H28  1  0.90039696  0.09932631  0.92956915  1  0  0.129032  0  0.944412  0  0  0.135485  0  1.012189  0  0  0.13974  0  1.00894  0  0  0.102754  0.132378  0  1.014675  0
H  H29  1  0.59931819  0.16940369  0.07032014  1  0  0.128297  0  0.945116  0  0  0.135101  0  1.012549  0  0  0.139403  0  1.009277  0  0  0.102802  0.131942  0  1.015096  0
H  H30  1  0.89507910  0.82567689  0.30590368  1  0  0.087448  0  0.96497  0  0  0.099637  0  1.033947  0  0  0.101478  0  1.032064  0  0  0.104453  0.098254  0  1.035362  0
H  H31  1  0.60471961  0.52007705  0.69411906  1  0  0.087232  0  0.96549  0  0  0.099494  0  1.034567  0  0  0.101355  0  1.032675  0  0  0.104472  0.098064  0  1.036024  0
H  H32  1  0.10492391  0.17432335  0.69409968  1  0  0.087547  0  0.965012  0  0  0.099681  0  1.034004  0  0  0.101528  0  1.032118  0  0  0.104466  0.0983  0  1.035419  0
H  H33  1  0.39527593  0.47991810  0.30587992  1  0  0.087177  0  0.965426  0  0  0.099418  0  1.034524  0  0  0.101306  0  1.032612  0  0  0.104426  0.097988  0  1.035983  0
H  H34  1  0.04459747  0.93364973  0.32086147  1  0  0.079714  0  0.929256  0  0  0.094321  0  0.994814  0  0  0.095376  0  0.993908  0  0  0.108428  0.093491  0  0.995563  0
H  H35  1  0.45518432  0.61310302  0.67920707  1  0  0.079134  0  0.928662  0  0  0.094231  0  0.993797  0  0  0.095261  0  0.992942  0  0  0.108298  0.093407  0  0.994529  0
H  H36  1  0.95540341  0.06634961  0.67913204  1  0  0.079762  0  0.929303  0  0  0.094398  0  0.994778  0  0  0.095458  0  0.993871  0  0  0.108422  0.093568  0  0.995531  0
H  H37  1  0.54481003  0.38688956  0.32078788  1  0  0.079051  0  0.928673  0  0  0.09415  0  0.99381  0  0  0.095186  0  0.992961  0  0  0.108242  0.093328  0  0.994541  0
H  H38  1  0.21506499  0.98288534  0.45237772  1  0  0.082918  0  0.974253  0  0  0.093773  0  1.039312  0  0  0.096222  0  1.038611  0  0  0.094795  0.092033  0  1.039841  0
H  H39  1  0.28445697  0.53082584  0.54777607  1  0  0.083395  0  0.974919  0  0  0.094021  0  1.040048  0  0  0.096518  0  1.039307  0  0  0.095021  0.092241  0  1.040625  0
H  H40  1  0.78494985  0.01712159  0.54761544  1  0  0.083079  0  0.974223  0  0  0.093913  0  1.039265  0  0  0.09636  0  1.038567  0  0  0.094846  0.092173  0  1.039797  0
H  H41  1  0.71555573  0.46915636  0.45221276  1  0  0.083377  0  0.97502  0  0  0.093978  0  1.040179  0  0  0.096475  0  1.039438  0  0  0.095016  0.092196  0  1.040757  0
H  H42  1  0.36675951  0.93401149  0.57080623  1  0  0.0845  0  0.95295  0  0  0.09802  0  1.009061  0  0  0.100845  0  1.007679  0  0  0.096928  0.09597  0  1.010144  0
H  H43  1  0.13291317  0.36350384  0.42924933  1  0  0.083744  0  0.953157  0  0  0.097605  0  1.009076  0  0  0.10053  0  1.007573  0  0  0.096972  0.095452  0  1.010275  0
H  H44  1  0.63324413  0.06599722  0.42919042  1  0  0.084498  0  0.952807  0  0  0.098017  0  1.008935  0  0  0.100844  0  1.007552  0  0  0.096935  0.095965  0  1.010017  0
H  H45  1  0.86711279  0.63646890  0.57073799  1  0  0.083799  0  0.953121  0  0  0.097649  0  1.009036  0  0  0.100574  0  1.007536  0  0  0.096983  0.095497  0  1.010233  0
H  H46  1  0.36429120  0.73373220  0.55697370  1  0  0.077772  0  0.964128  0  0  0.089818  0  1.026405  0  0  0.092254  0  1.025602  0  0  0.095007  0.088031  0  1.02709  0
H  H47  1  0.13553351  0.17688655  0.44285100  1  0  0.078242  0  0.964157  0  0  0.089929  0  1.026743  0  0  0.09234  0  1.025985  0  0  0.094929  0.088186  0  1.027377  0
H  H48  1  0.63572115  0.26627817  0.44302369  1  0  0.077731  0  0.964026  0  0  0.089718  0  1.026372  0  0  0.09215  0  1.025576  0  0  0.095016  0.087946  0  1.027039  0
H  H49  1  0.86448745  0.82309480  0.55714726  1  0  0.078142  0  0.964448  0  0  0.089941  0  1.026907  0  0  0.092351  0  1.026151  0  0  0.094963  0.0882  0  1.027541  0
H  H50  1  0.20431023  0.58406015  0.42739404  1  0  0.080136  0  0.953393  0  0  0.095883  0  1.006679  0  0  0.098152  0  1.00604  0  0  0.097766  0.094221  0  1.00726  0
H  H51  1  0.29526689  0.15687022  0.57251014  1  0  0.080128  0  0.952948  0  0  0.096042  0  1.006144  0  0  0.098325  0  1.005467  0  0  0.097724  0.094384  0  1.00674  0
H  H52  1  0.79570311  0.41594853  0.57260790  1  0  0.080144  0  0.953417  0  0  0.095833  0  1.006791  0  0  0.098103  0  1.006151  0  0  0.097718  0.094169  0  1.007376  0
H  H53  1  0.70473810  0.84312236  0.42749773  1  0  0.079975  0  0.95302  0  0  0.095874  0  1.006249  0  0  0.098157  0  1.005572  0  0  0.097686  0.094214  0  1.006852  0
H  H54  1  0.04926386  0.63437813  0.31158861  1  0  0.090652  0  0.965957  0  0  0.100218  0  1.031839  0  0  0.103306  0  1.029992  0  0  0.090754  0.097995  0  1.033225  0
H  H55  1  0.45038108  0.32295913  0.68831194  1  0  0.090972  0  0.966473  0  0  0.100433  0  1.03221  0  0  0.103544  0  1.030323  0  0  0.090942  0.098141  0  1.033694  0
H  H56  1  0.95074077  0.36562890  0.68841257  1  0  0.090814  0  0.965826  0  0  0.100399  0  1.031658  0  0  0.10345  0  1.02983  0  0  0.090806  0.09815  0  1.03307  0
H  H57  1  0.54961805  0.67703944  0.31169395  1  0  0.091069  0  0.966482  0  0  0.100496  0  1.032234  0  0  0.103594  0  1.03036  0  0  0.090943  0.098207  0  1.033716  0
C  C58  1  0.98174275  0.70088322  0.14334854  1  0  0.255848  0  3.740793  0  0  0.225695  0  4.042547  0  0  0.25108  0  4.050977  0  0  0.12855  0.208793  0  4.036067  0
C  C59  1  0.51803532  0.55773186  0.85662245  1  0  0.256244  0  3.74013  0  0  0.22557  0  4.04249  0  0  0.250904  0  4.050883  0  0  0.128435  0.208677  0  4.036041  0
C  C60  1  0.01825799  0.29911700  0.85664970  1  0  0.255862  0  3.740862  0  0  0.225697  0  4.042663  0  0  0.251083  0  4.05109  0  0  0.128542  0.20879  0  4.036177  0
C  C61  1  0.48195686  0.44227097  0.14337579  1  0  0.256167  0  3.740207  0  0  0.225533  0  4.042524  0  0  0.250866  0  4.050918  0  0  0.128401  0.20864  0  4.036076  0
C  C62  1  0.24237168  0.81357310  0.18802957  1  0  -0.049594  0  3.668401  0  0  -0.117533  0  3.918698  0  0  -0.1128  0  3.928856  0  0  -0.064774  -0.120517  0  3.911752  0
C  C63  1  0.25750856  0.62589041  0.81204471  1  0  -0.050329  0  3.668806  0  0  -0.11866  0  3.919203  0  0  -0.113932  0  3.929291  0  0  -0.06537  -0.121677  0  3.912331  0
C  C64  1  0.75762426  0.18642884  0.81196658  1  0  -0.049601  0  3.668275  0  0  -0.117537  0  3.918576  0  0  -0.112804  0  3.928737  0  0  -0.064794  -0.120512  0  3.911614  0
C  C65  1  0.74248589  0.37410472  0.18795043  1  0  -0.050458  0  3.668821  0  0  -0.118693  0  3.919141  0  0  -0.113976  0  3.929235  0  0  -0.065349  -0.12171  0  3.91228  0
C  C66  1  0.25186052  0.93441514  0.19601569  1  0  0.060455  0  3.775642  0  0  0.077542  0  4.028958  0  0  0.077297  0  4.052356  0  0  -0.028259  0.077672  0  4.013113  0
C  C67  1  0.24808621  0.73883293  0.80420847  1  0  0.059481  0  3.774952  0  0  0.076514  0  4.028578  0  0  0.076265  0  4.051942  0  0  -0.029112  0.076656  0  4.012737  0
C  C68  1  0.74813423  0.06559366  0.80398710  1  0  0.060704  0  3.775443  0  0  0.0777  0  4.028914  0  0  0.077456  0  4.052309  0  0  -0.028155  0.077825  0  4.013078  0
C  C69  1  0.75191407  0.26116050  0.19579387  1  0  0.059622  0  3.775282  0  0  0.076623  0  4.028891  0  0  0.076386  0  4.052247  0  0  -0.029138  0.07676  0  4.013058  0
C  C70  1  0.34285008  0.01627984  0.26950775  1  0  -0.137319  0  3.792178  0  0  -0.16633  0  4.060855  0  0  -0.168022  0  4.081015  0  0  -0.108944  -0.16513  0  4.047157  0
C  C71  1  0.15702019  0.74726464  0.73076713  1  0  -0.136818  0  3.791584  0  0  -0.166013  0  4.060259  0  0  -0.167765  0  4.080462  0  0  -0.108752  -0.164759  0  4.046547  0
C  C72  1  0.65713939  0.98371962  0.73049312  1  0  -0.137415  0  3.791982  0  0  -0.166394  0  4.060698  0  0  -0.168089  0  4.080857  0  0  -0.108962  -0.165195  0  4.04701  0
C  C73  1  0.84297544  0.25272877  0.26922749  1  0  -0.13685  0  3.791886  0  0  -0.165975  0  4.060581  0  0  -0.16771  0  4.080793  0  0  -0.108758  -0.164724  0  4.046871  0
C  C74  1  0.35610274  0.13020706  0.27981311  1  0  -0.162992  0  3.799276  0  0  -0.187458  0  4.061783  0  0  -0.190171  0  4.081918  0  0  -0.108176  -0.185557  0  4.048199  0
C  C75  1  0.14384776  0.85091951  0.72052896  1  0  -0.163992  0  3.799292  0  0  -0.188203  0  4.061948  0  0  -0.190899  0  4.082023  0  0  -0.108034  -0.186317  0  4.0484  0
C  C76  1  0.64389287  0.86980093  0.72019831  1  0  -0.163012  0  3.799252  0  0  -0.187516  0  4.061768  0  0  -0.190227  0  4.0819  0  0  -0.108259  -0.185615  0  4.048185  0
C  C77  1  0.85614911  0.14907819  0.27947025  1  0  -0.16402  0  3.799371  0  0  -0.188273  0  4.062029  0  0  -0.190966  0  4.082099  0  0  -0.108125  -0.186385  0  4.048476  0
C  C78  1  0.27360744  0.15729060  0.21398715  1  0  0.163759  0  3.846107  0  0  0.153566  0  4.104497  0  0  0.160039  0  4.121087  0  0  0.068201  0.148957  0  4.09335  0
C  C79  1  0.22650559  0.94380430  0.78634870  1  0  0.164755  0  3.844992  0  0  0.154332  0  4.103687  0  0  0.160804  0  4.120273  0  0  0.06823  0.149736  0  4.092531  0
C  C80  1  0.72638065  0.84271232  0.78602116  1  0  0.164075  0  3.845822  0  0  0.153847  0  4.104136  0  0  0.160328  0  4.120732  0  0  0.068365  0.14924  0  4.092985  0
C  C81  1  0.77348391  0.05620029  0.21365702  1  0  0.164804  0  3.844828  0  0  0.154375  0  4.103503  0  0  0.160835  0  4.120101  0  0  0.068337  0.149781  0  4.092341  0
C  C82  1  0.17479172  0.24234295  0.12390128  1  0  0.266978  0  3.539083  0  0  0.18652  0  3.826647  0  0  0.201342  0  3.82646  0  0  0.02852  0.176348  0  3.826684  0
C  C83  1  0.32559959  0.11891633  0.87649308  1  0  0.266959  0  3.539844  0  0  0.186727  0  3.826998  0  0  0.201567  0  3.826848  0  0  0.029381  0.176585  0  3.826979  0
C  C84  1  0.82521529  0.75766836  0.87610706  1  0  0.266873  0  3.539362  0  0  0.186442  0  3.826743  0  0  0.201257  0  3.826562  0  0  0.02848  0.176274  0  3.826776  0
C  C85  1  0.67438608  0.88108058  0.12350687  1  0  0.26698  0  3.539995  0  0  0.186736  0  3.827126  0  0  0.201566  0  3.82698  0  0  0.029401  0.176597  0  3.827098  0
C  C86  1  0.18359316  0.07579265  0.13961726  1  0  0.185214  0  3.833084  0  0  0.176714  0  4.090886  0  0  0.184477  0  4.10595  0  0  0.075329  0.171205  0  4.080853  0
C  C87  1  0.31668989  0.93660277  0.86060927  1  0  0.185276  0  3.832742  0  0  0.17637  0  4.091343  0  0  0.184176  0  4.106403  0  0  0.07544  0.170867  0  4.081298  0
C  C88  1  0.81640402  0.92422044  0.86039143  1  0  0.185186  0  3.832726  0  0  0.176695  0  4.090495  0  0  0.184434  0  4.105581  0  0  0.07531  0.171201  0  4.080447  0
C  C89  1  0.68330199  0.06339497  0.13939110  1  0  0.185251  0  3.832708  0  0  0.176389  0  4.091259  0  0  0.184194  0  4.106323  0  0  0.075413  0.170887  0  4.081211  0
C  C90  1  0.16988334  0.96373879  0.12855409  1  0  -0.189767  0  3.68023  0  0  -0.224262  0  3.939486  0  0  -0.226182  0  3.954922  0  0  -0.10213  -0.223001  0  3.929322  0
C  C91  1  0.33031035  0.83558383  0.87163249  1  0  -0.188501  0  3.679996  0  0  -0.223216  0  3.93959  0  0  -0.225211  0  3.955064  0  0  -0.102091  -0.221876  0  3.929372  0
C  C92  1  0.83010679  0.03627428  0.87144492  1  0  -0.189923  0  3.680009  0  0  -0.22442  0  3.939358  0  0  -0.226333  0  3.954803  0  0  -0.102226  -0.223162  0  3.929195  0
C  C93  1  0.66968997  0.16441302  0.12837287  1  0  -0.188583  0  3.680128  0  0  -0.22333  0  3.939756  0  0  -0.225308  0  3.955192  0  0  -0.102044  -0.221989  0  3.929544  0
C  C94  1  0.02777576  0.84227293  0.30442895  1  0  -0.047412  0  3.659723  0  0  -0.115714  0  3.90813  0  0  -0.110631  0  3.917765  0  0  -0.058421  -0.118987  0  3.901597  0
C  C95  1  0.47200665  0.53813755  0.69561819  1  0  -0.045306  0  3.657669  0  0  -0.114591  0  3.907219  0  0  -0.109591  0  3.916884  0  0  -0.057898  -0.1178  0  3.900672  0
C  C96  1  0.97222886  0.15772638  0.69556401  1  0  -0.047827  0  3.660168  0  0  -0.115987  0  3.908364  0  0  -0.110925  0  3.918035  0  0  -0.058513  -0.119264  0  3.901831  0
C  C97  1  0.52798898  0.46185758  0.30437826  1  0  -0.045187  0  3.657625  0  0  -0.114428  0  3.907165  0  0  -0.109476  0  3.91687  0  0  -0.057858  -0.117639  0  3.900618  0
C  C98  1  0.12394751  0.81139617  0.37390425  1  0  0.061902  0  3.756048  0  0  0.085239  0  3.990582  0  0  0.083428  0  4.015923  0  0  -0.018179  0.086396  0  3.973413  0
C  C99  1  0.37582536  0.43776639  0.62610576  1  0  0.062119  0  3.755346  0  0  0.085682  0  3.989818  0  0  0.083878  0  4.015176  0  0  -0.018124  0.086843  0  3.972609  0
C  C100  1  0.87606087  0.18860740  0.62609210  1  0  0.061957  0  3.755934  0  0  0.085224  0  3.990483  0  0  0.083421  0  4.015816  0  0  -0.018223  0.086379  0  3.973312  0
C  C101  1  0.62417124  0.56222449  0.37389312  1  0  0.062023  0  3.75526  0  0  0.085567  0  3.989734  0  0  0.083774  0  4.015092  0  0  -0.018073  0.086729  0  3.972533  0
C  C102  1  0.21322546  0.89539033  0.44729692  1  0  -0.135793  0  3.773832  0  0  -0.153438  0  4.015109  0  0  -0.156353  0  4.038098  0  0  -0.09915  -0.151335  0  3.999438  0
C  C103  1  0.28648538  0.44836023  0.55273755  1  0  -0.137067  0  3.774758  0  0  -0.154575  0  4.016068  0  0  -0.157545  0  4.039069  0  0  -0.099324  -0.152425  0  4.000373  0
C  C104  1  0.78678681  0.10461748  0.55269963  1  0  -0.136021  0  3.773959  0  0  -0.153646  0  4.015262  0  0  -0.15656  0  4.038251  0  0  -0.099205  -0.151545  0  3.999595  0
C  C105  1  0.71352359  0.55162542  0.44725549  1  0  -0.136745  0  3.774811  0  0  -0.154232  0  4.016098  0  0  -0.157201  0  4.039096  0  0  -0.099259  -0.152083  0  4.000401  0
C  C106  1  0.29854560  0.86797158  0.51347137  1  0  -0.075185  0  3.79984  0  0  -0.087071  0  4.047359  0  0  -0.089604  0  4.070024  0  0  -0.097717  -0.085309  0  4.031893  0
C  C107  1  0.20121688  0.35473208  0.48650896  1  0  -0.074024  0  3.798469  0  0  -0.086193  0  4.04589  0  0  -0.088796  0  4.068536  0  0  -0.098505  -0.084356  0  4.030446  0
C  C108  1  0.70146804  0.13204048  0.48652661  1  0  -0.075104  0  3.799983  0  0  -0.086979  0  4.047488  0  0  -0.089513  0  4.070157  0  0  -0.097682  -0.085214  0  4.032019  0
C  C109  1  0.79879809  0.64524757  0.51348226  1  0  -0.074298  0  3.798762  0  0  -0.086465  0  4.046225  0  0  -0.089068  0  4.068873  0  0  -0.098532  -0.084628  0  4.030784  0
C  C110  1  0.29656148  0.75566631  0.50596552  1  0  -0.070326  0  3.793295  0  0  -0.086215  0  4.044267  0  0  -0.088268  0  4.067826  0  0  -0.093427  -0.084666  0  4.028185  0
C  C111  1  0.20328997  0.24983203  0.49386769  1  0  -0.070434  0  3.792715  0  0  -0.085988  0  4.043745  0  0  -0.088044  0  4.067355  0  0  -0.092587  -0.084461  0  4.027612  0
C  C112  1  0.70344575  0.24434240  0.49403438  1  0  -0.070256  0  3.793512  0  0  -0.08609  0  4.044487  0  0  -0.088144  0  4.068051  0  0  -0.093428  -0.084549  0  4.028393  0
C  C113  1  0.79672353  0.75015280  0.50613532  1  0  -0.070387  0  3.792713  0  0  -0.086036  0  4.043771  0  0  -0.08809  0  4.067377  0  0  -0.092659  -0.084512  0  4.027647  0
C  C114  1  0.20745019  0.67171628  0.43317865  1  0  -0.071212  0  3.787463  0  0  -0.083616  0  4.037391  0  0  -0.086151  0  4.059732  0  0  -0.093735  -0.081851  0  4.022166  0
C  C115  1  0.29224739  0.23873577  0.56670569  1  0  -0.071234  0  3.787888  0  0  -0.083935  0  4.037808  0  0  -0.086477  0  4.060178  0  0  -0.093564  -0.082178  0  4.022572  0
C  C116  1  0.79255467  0.32829415  0.56682048  1  0  -0.071128  0  3.787659  0  0  -0.083511  0  4.037568  0  0  -0.086043  0  4.059897  0  0  -0.09373  -0.081745  0  4.022334  0
C  C117  1  0.70776019  0.76125849  0.43330090  1  0  -0.070909  0  3.78745  0  0  -0.083605  0  4.037387  0  0  -0.086146  0  4.059749  0  0  -0.093518  -0.081845  0  4.022152  0
C  C118  1  0.12119152  0.69934982  0.36763967  1  0  -0.097777  0  3.740543  0  0  -0.119371  0  3.987453  0  0  -0.120888  0  4.00843  0  0  -0.092107  -0.118251  0  3.973271  0
C  C119  1  0.37849174  0.33192483  0.63229799  1  0  -0.098449  0  3.741087  0  0  -0.119709  0  3.987649  0  0  -0.121238  0  4.00863  0  0  -0.092479  -0.118552  0  3.973495  0
C  C120  1  0.87882191  0.30065885  0.63235973  1  0  -0.097991  0  3.740423  0  0  -0.119564  0  3.987298  0  0  -0.121038  0  4.008291  0  0  -0.092075  -0.118426  0  3.973128  0
C  C121  1  0.62150111  0.66806951  0.36770573  1  0  -0.098694  0  3.741114  0  0  -0.119902  0  3.98765  0  0  -0.121425  0  4.00864  0  0  -0.092499  -0.118728  0  3.973446  0
S  S122  1  0.81105097  0.64697321  0.17428431  1  0  -0.344545  0  2.104757  0  0  -0.318814  0  2.45288  0  0  -0.337586  0  2.450781  0  0  -0.16665  -0.30596  0  2.453955  0
S  S123  1  0.68868369  0.47287630  0.82563705  1  0  -0.344562  0  2.10468  0  0  -0.318776  0  2.453151  0  0  -0.337494  0  2.450971  0  0  -0.16635  -0.305913  0  2.454201  0
S  S124  1  0.18895557  0.35301675  0.82571261  1  0  -0.344615  0  2.10481  0  0  -0.318863  0  2.452931  0  0  -0.337636  0  2.450823  0  0  -0.166668  -0.305993  0  2.45401  0
S  S125  1  0.31131326  0.52712138  0.17436026  1  0  -0.344558  0  2.104811  0  0  -0.318775  0  2.453257  0  0  -0.337494  0  2.451085  0  0  -0.166374  -0.305912  0  2.454334  0
S  S126  1  0.02563323  0.65481977  0.02647074  1  0  -0.410796  0  2.236988  0  0  -0.368137  0  2.603039  0  0  -0.385999  0  2.595251  0  0  -0.187288  -0.355619  0  2.607919  0
S  S127  1  0.47420143  0.62844757  0.97352812  1  0  -0.410655  0  2.236331  0  0  -0.367973  0  2.602865  0  0  -0.385838  0  2.595083  0  0  -0.187342  -0.355465  0  2.60776  0
S  S128  1  0.97436431  0.34518897  0.97352387  1  0  -0.410712  0  2.237023  0  0  -0.368056  0  2.603115  0  0  -0.385914  0  2.595314  0  0  -0.187265  -0.355541  0  2.608008  0
S  S129  1  0.52579300  0.37155013  0.02647041  1  0  -0.410613  0  2.23636  0  0  -0.367961  0  2.602912  0  0  -0.385826  0  2.595131  0  0  -0.18728  -0.355453  0  2.607816  0
N  N130  1  0.07844588  0.78045397  0.20812494  1  0  -0.108438  0  3.398458  0  0  -0.009312  0  3.61863  0  0  -0.028047  0  3.641885  0  0  -0.252689  0.003047  0  3.602777  0
N  N131  1  0.42138331  0.57263774  0.79191316  1  0  -0.109366  0  3.399401  0  0  -0.009769  0  3.619574  0  0  -0.028342  0  3.642622  0  0  -0.252936  0.002555  0  3.603775  0
N  N132  1  0.92155872  0.21954878  0.79187232  1  0  -0.108248  0  3.398215  0  0  -0.009197  0  3.618417  0  0  -0.02793  0  3.641678  0  0  -0.25259  0.003179  0  3.602543  0
N  N133  1  0.57861115  0.42736168  0.20808656  1  0  -0.109362  0  3.399259  0  0  -0.009785  0  3.619379  0  0  -0.028348  0  3.642441  0  0  -0.252951  0.00254  0  3.603582  0
O  O134  1  0.26165988  0.26233099  0.21041485  1  0  -0.29329  0  2.220337  0  0  -0.227715  0  2.453624  0  0  -0.245526  0  2.455796  0  0  -0.179699  -0.214992  0  2.451648  0
O  O135  1  0.23836618  0.05246531  0.79004178  1  0  -0.292972  0  2.219939  0  0  -0.227134  0  2.453  0  0  -0.2449  0  2.45515  0  0  -0.179854  -0.214442  0  2.451023  0
O  O136  1  0.73834082  0.73767695  0.78959287  1  0  -0.293327  0  2.2206  0  0  -0.227626  0  2.453756  0  0  -0.245432  0  2.455925  0  0  -0.179704  -0.214917  0  2.451788  0
O  O137  1  0.76161195  0.94752995  0.20995935  1  0  -0.293051  0  2.219874  0  0  -0.227202  0  2.45296  0  0  -0.244957  0  2.45511  0  0  -0.179906  -0.214512  0  2.450981  0
O  O138  1  0.11312602  0.12626708  0.08575892  1  0  -0.279091  0  2.194595  0  0  -0.214371  0  2.423041  0  0  -0.231213  0  2.423818  0  0  -0.173866  -0.202366  0  2.42208  0
O  O139  1  0.38727358  0.04090824  0.91450129  1  0  -0.279344  0  2.195805  0  0  -0.214419  0  2.424345  0  0  -0.231393  0  2.425237  0  0  -0.1738  -0.202407  0  2.423345  0
O  O140  1  0.88687493  0.87374254  0.91424429  1  0  -0.279071  0  2.194903  0  0  -0.214346  0  2.423308  0  0  -0.23118  0  2.424096  0  0  -0.173805  -0.202337  0  2.422321  0
O  O141  1  0.61270833  0.95908699  0.08549802  1  0  -0.279349  0  2.195575  0  0  -0.214459  0  2.424109  0  0  -0.23142  0  2.424989  0  0  -0.173865  -0.202468  0  2.42315  0
