# generated using pymatgen
data_AgH32C32(NO)5
_symmetry_space_group_name_H-M   'P 1'
_cell_length_a   10.67436905
_cell_length_b   12.97128782
_cell_length_c   23.36063139
_cell_angle_alpha   89.99998624
_cell_angle_beta   89.99999070
_cell_angle_gamma   90.00002036
_symmetry_Int_Tables_number   1
_chemical_formula_structural   AgH32C32(NO)5
_chemical_formula_sum   'Ag4 H128 C128 N20 O20'
_cell_volume   3234.52033692
_cell_formula_units_Z   4
loop_
 _symmetry_equiv_pos_site_id
 _symmetry_equiv_pos_as_xyz
  1  'x, y, z'
loop_
 _atom_site_type_symbol
 _atom_site_label
 _atom_site_symmetry_multiplicity
 _atom_site_fract_x
 _atom_site_fract_y
 _atom_site_fract_z
 _atom_site_occupancy
 _atom_site_pbe_bader_charge
 _atom_site_pbe_bader_spin_density
 _atom_site_pbe_cm5_charge
 _atom_site_pbe_ddec_charge
 _atom_site_pbe_ddec_spin_density
 _atom_site_pbe_ddec_sum_bond_order
 _atom_site_pbe_magmom
Ag  Ag0  1  0.47737996  0.71771658  0.96401326  1  0.579837  0  0.465744  0.311994  0  1.902309  0
Ag  Ag1  1  0.02262520  0.28228414  0.46401398  1  0.579852  0  0.46573  0.311982  0  1.90229  0
Ag  Ag2  1  0.52262569  0.21771620  0.53598591  1  0.579778  0  0.465742  0.312003  0  1.902291  0
Ag  Ag3  1  0.97737597  0.78228483  0.03598652  1  0.579839  0  0.46574  0.311973  0  1.90233  0
H  H4  1  0.27021644  0.70637459  0.87550367  1  0.118689  0  0.115685  0.095116  0  1.017073  0
H  H5  1  0.22978313  0.29362462  0.37550395  1  0.118696  0  0.11569  0.095127  0  1.017078  0
H  H6  1  0.72978358  0.20637424  0.62449635  1  0.118681  0  0.115684  0.095119  0  1.017069  0
H  H7  1  0.77021710  0.79362522  0.12449655  1  0.118688  0  0.115692  0.095119  0  1.017101  0
H  H8  1  0.54042168  0.92557722  0.91188623  1  0.119104  0  0.118457  0.091462  0  0.996602  0
H  H9  1  0.95957797  0.07442289  0.41188609  1  0.1191  0  0.11848  0.091451  0  0.996669  0
H  H10  1  0.45957844  0.42557604  0.58811505  1  0.11913  0  0.118472  0.091464  0  0.996599  0
H  H11  1  0.04042217  0.57442252  0.08811316  1  0.119092  0  0.118466  0.09144  0  0.996667  0
H  H12  1  0.49612942  0.02236006  0.82225173  1  0.153388  0  0.10145  0.115146  0  1.069882  0
H  H13  1  0.00386830  0.97763918  0.32225150  1  0.1533  0  0.101462  0.115187  0  1.069881  0
H  H14  1  0.50386771  0.52235979  0.67774875  1  0.153302  0  0.101457  0.115193  0  1.069882  0
H  H15  1  0.99613014  0.47763888  0.17774812  1  0.153324  0  0.10147  0.115181  0  1.069884  0
H  H16  1  0.33193164  0.95251287  0.75430316  1  0.095246  0  0.107235  0.108895  0  1.018245  0
H  H17  1  0.16806610  0.04748716  0.25430262  1  0.095104  0  0.107272  0.108944  0  1.018275  0
H  H18  1  0.66806756  0.45251245  0.74569768  1  0.095354  0  0.107303  0.108978  0  1.018243  0
H  H19  1  0.83193215  0.54748619  0.24569706  1  0.095104  0  0.107234  0.108897  0  1.018277  0
H  H20  1  0.14227353  0.71423580  0.79582946  1  0.070061  0  0.103127  0.078368  0  1.041136  0
H  H21  1  0.35772513  0.28576344  0.29582930  1  0.070158  0  0.103114  0.078345  0  1.041183  0
H  H22  1  0.85772462  0.21423622  0.70417099  1  0.070085  0  0.103115  0.07837  0  1.041133  0
H  H23  1  0.64227416  0.78576320  0.20417077  1  0.070084  0  0.103136  0.078387  0  1.041127  0
H  H24  1  0.11617553  0.83606488  0.76434957  1  0.098232  0  0.120154  0.120704  0  0.993478  0
H  H25  1  0.38382314  0.16393438  0.26434942  1  0.098253  0  0.120128  0.120658  0  0.993448  0
H  H26  1  0.88382361  0.33606530  0.73565044  1  0.098245  0  0.120134  0.120667  0  0.993446  0
H  H27  1  0.61617610  0.66393412  0.23565024  1  0.098254  0  0.120136  0.120661  0  0.993469  0
H  H28  1  0.22028567  0.73812476  0.62934680  1  0.089255  0  0.115417  0.071918  0  1.009323  0
H  H29  1  0.27971493  0.26187686  0.12934665  1  0.08924  0  0.115429  0.071954  0  1.009337  0
H  H30  1  0.77971343  0.23812509  0.87065365  1  0.089237  0  0.115466  0.072009  0  1.009224  0
H  H31  1  0.72028530  0.76187503  0.37065300  1  0.089264  0  0.115415  0.071928  0  1.009295  0
H  H32  1  0.15732929  0.94084401  0.68947316  1  0.066506  0  0.089367  0.092901  0  1.038972  0
H  H33  1  0.34267035  0.05915759  0.18947260  1  0.066528  0  0.089336  0.092827  0  1.038951  0
H  H34  1  0.84266896  0.44084361  0.81052683  1  0.066513  0  0.089344  0.092873  0  1.038994  0
H  H35  1  0.65732885  0.55915577  0.31052665  1  0.066498  0  0.089358  0.092883  0  1.038985  0
H  H36  1  0.29859946  0.90769929  0.65348997  1  0.056146  0  0.089635  0.089567  0  1.012532  0
H  H37  1  0.20140019  0.09230232  0.15349027  1  0.056142  0  0.089639  0.089578  0  1.012572  0
H  H38  1  0.70139877  0.40770039  0.84650960  1  0.056143  0  0.089656  0.0896  0  1.012568  0
H  H39  1  0.79859903  0.59229975  0.34650983  1  0.056175  0  0.089625  0.089561  0  1.012544  0
H  H40  1  0.18227410  0.88894480  0.56163544  1  -0.009534  0  0.083123  0.072793  0  0.988596  0
H  H41  1  0.31772465  0.11105608  0.06163530  1  -0.009479  0  0.083126  0.072775  0  0.98865  0
H  H42  1  0.81772507  0.38894434  0.93836456  1  -0.009545  0  0.083148  0.072815  0  0.98861  0
H  H43  1  0.68227457  0.61105499  0.43836437  1  -0.009523  0  0.083123  0.0728  0  0.988612  0
H  H44  1  0.15266466  0.01208428  0.59098488  1  0.028736  0  0.089045  0.085246  0  1.00863  0
H  H45  1  0.34733501  0.98791659  0.09098505  1  0.028752  0  0.089024  0.085203  0  1.008683  0
H  H46  1  0.84733434  0.51208324  0.90901518  1  0.028746  0  0.089023  0.085213  0  1.008659  0
H  H47  1  0.65266437  0.48791533  0.40901543  1  0.02873  0  0.089034  0.08522  0  1.008664  0
H  H48  1  0.95173691  0.95076913  0.63224565  1  0.023097  0  0.088332  0.083552  0  0.99512  0
H  H49  1  0.54826190  0.04923186  0.13224597  1  0.023121  0  0.088336  0.083533  0  0.995135  0
H  H50  1  0.04826228  0.45076926  0.86775434  1  0.023113  0  0.088326  0.083525  0  0.995141  0
H  H51  1  0.45173636  0.54923073  0.36775413  1  0.023083  0  0.088329  0.083528  0  0.995139  0
H  H52  1  0.95279178  0.93214186  0.55789407  1  0.085498  0  0.089937  0.096678  0  1.000335  0
H  H53  1  0.54720799  0.06785917  0.05789439  1  0.085514  0  0.089954  0.0967  0  1.000319  0
H  H54  1  0.04720740  0.43214195  0.94210550  1  0.085515  0  0.089947  0.096682  0  1.000352  0
H  H55  1  0.45279121  0.56785878  0.44210572  1  0.085501  0  0.089946  0.096679  0  1.000327  0
H  H56  1  0.01027420  0.74656569  0.57142628  1  0.013596  0  0.092137  0.091847  0  0.978534  0
H  H57  1  0.48972548  0.25343519  0.07142654  1  0.013581  0  0.092144  0.091833  0  0.97855  0
H  H58  1  0.98972396  0.24656606  0.92857374  1  0.013579  0  0.092149  0.091829  0  0.978518  0
H  H59  1  0.51027474  0.75343404  0.42857311  1  0.013603  0  0.092155  0.091872  0  0.978535  0
H  H60  1  0.87097426  0.77598617  0.60884219  1  -0.003277  0  0.089058  0.081204  0  1.003828  0
H  H61  1  0.62902550  0.22401406  0.10884205  1  -0.003275  0  0.089064  0.081203  0  1.003829  0
H  H62  1  0.12902392  0.27598631  0.89115782  1  -0.003248  0  0.089071  0.081219  0  1.003813  0
H  H63  1  0.37097471  0.72401367  0.39115760  1  -0.003271  0  0.089069  0.081226  0  1.003819  0
H  H64  1  0.98805095  0.79688772  0.69904694  1  0.07501  0  0.114296  0.071549  0  1.016066  0
H  H65  1  0.51194877  0.20311325  0.19904681  1  0.075017  0  0.114307  0.071577  0  1.016074  0
H  H66  1  0.01194817  0.29688709  0.80095307  1  0.075025  0  0.114298  0.071589  0  1.016078  0
H  H67  1  0.48805049  0.70311292  0.30095242  1  0.074996  0  0.114305  0.071543  0  1.016093  0
H  H68  1  0.10627794  0.50682696  0.66195382  1  0.102083  0  0.115588  0.106462  0  0.994969  0
H  H69  1  0.39372265  0.49317465  0.16195319  1  0.102109  0  0.115593  0.106486  0  0.99494  0
H  H70  1  0.89371919  0.00682657  0.83804581  1  0.10206  0  0.115567  0.106427  0  0.994982  0
H  H71  1  0.60627861  0.99317280  0.33804599  1  0.10208  0  0.11558  0.106433  0  0.994989  0
H  H72  1  0.14203933  0.60553807  0.61263322  1  0.079603  0  0.118076  0.105201  0  0.98938  0
H  H73  1  0.35796689  0.39446356  0.11263133  1  0.079633  0  0.118061  0.105188  0  0.989332  0
H  H74  1  0.85795784  0.10553919  0.88736639  1  0.079573  0  0.118068  0.105161  0  0.989409  0
H  H75  1  0.64203995  0.89446093  0.38736658  1  0.079593  0  0.118086  0.105229  0  0.989336  0
H  H76  1  0.80746133  0.60219232  0.62103023  1  0.068795  0  0.106406  0.10259  0  1.011866  0
H  H77  1  0.69254311  0.39780637  0.12102878  1  0.068785  0  0.106394  0.102621  0  1.011813  0
H  H78  1  0.19253584  0.10219325  0.87896895  1  0.068789  0  0.106417  0.102582  0  1.011869  0
H  H79  1  0.30746092  0.89780673  0.37896999  1  0.068789  0  0.106406  0.102587  0  1.011877  0
H  H80  1  0.67237418  0.51712443  0.54657078  1  0.069271  0  0.1127  0.119495  0  0.99102  0
H  H81  1  0.82763122  0.48287429  0.04656974  1  0.069191  0  0.112688  0.119487  0  0.990849  0
H  H82  1  0.32762388  0.01712537  0.95342841  1  0.069296  0  0.11271  0.119491  0  0.991046  0
H  H83  1  0.17237566  0.98287535  0.45342988  1  0.06928  0  0.112699  0.119477  0  0.991002  0
H  H84  1  0.76765193  0.38224733  0.48347960  1  0.083902  0  0.118034  0.092813  0  1.009851  0
H  H85  1  0.73235519  0.61775429  0.98347977  1  0.08434  0  0.11802  0.092783  0  1.009861  0
H  H86  1  0.23234929  0.88224859  0.01652003  1  0.084015  0  0.118029  0.09283  0  1.009849  0
H  H87  1  0.26765229  0.11775231  0.51652112  1  0.083982  0  0.118021  0.092821  0  1.00982  0
H  H88  1  0.11900843  0.42702073  0.55399869  1  0.13373  0  0.114527  0.094986  0  1.033425  0
H  H89  1  0.38100062  0.57298556  0.05400148  1  0.133638  0  0.114482  0.094935  0  1.033638  0
H  H90  1  0.88099168  0.92702045  0.94600130  1  0.133734  0  0.114526  0.094977  0  1.033411  0
H  H91  1  0.61900795  0.07297887  0.44600119  1  0.133739  0  0.114538  0.094992  0  1.033408  0
H  H92  1  0.55299289  0.68355503  0.75872728  1  0.069316  0  0.098162  0.098242  0  1.027833  0
H  H93  1  0.94700588  0.31644361  0.25872711  1  0.069292  0  0.098166  0.098225  0  1.027844  0
H  H94  1  0.44700713  0.18355532  0.74127274  1  0.069323  0  0.098168  0.098259  0  1.027824  0
H  H95  1  0.05299437  0.81644395  0.24127253  1  0.069281  0  0.098162  0.098197  0  1.027871  0
H  H96  1  0.63404214  0.59331263  0.84449723  1  0.095622  0  0.100138  0.099912  0  1.021916  0
H  H97  1  0.86595753  0.40668674  0.34449705  1  0.095607  0  0.100125  0.099898  0  1.021931  0
H  H98  1  0.36595783  0.09331293  0.65550281  1  0.095619  0  0.100137  0.099905  0  1.021917  0
H  H99  1  0.13404369  0.90668637  0.15550258  1  0.095581  0  0.100121  0.099867  0  1.021969  0
H  H100  1  0.49636183  0.46983219  0.89755488  1  0.077835  0  0.103595  0.104251  0  0.988232  0
H  H101  1  0.00363679  0.53016856  0.39755471  1  0.07783  0  0.103568  0.104216  0  0.988255  0
H  H102  1  0.50363737  0.96983118  0.60244510  1  0.077828  0  0.103561  0.10422  0  0.988268  0
H  H103  1  0.99636333  0.03016752  0.10244539  1  0.077845  0  0.103592  0.104235  0  0.988257  0
H  H104  1  0.27885952  0.43894394  0.86406522  1  0.038967  0  0.103422  0.10401  0  1.003675  0
H  H105  1  0.22114006  0.56105682  0.36406417  1  0.038986  0  0.103413  0.103989  0  1.003705  0
H  H106  1  0.72114061  0.93894298  0.63593563  1  0.039001  0  0.10342  0.104009  0  1.003673  0
H  H107  1  0.77886008  0.06105416  0.13593551  1  0.039007  0  0.103422  0.104039  0  1.003732  0
H  H108  1  0.19674978  0.53058018  0.77859021  1  0.095016  0  0.100312  0.10237  0  1.023489  0
H  H109  1  0.30324889  0.46941907  0.27859046  1  0.095008  0  0.100314  0.10236  0  1.023472  0
H  H110  1  0.80324923  0.03057981  0.72140984  1  0.095033  0  0.10031  0.102346  0  1.023479  0
H  H111  1  0.69675142  0.96941729  0.22141002  1  0.095042  0  0.100308  0.10238  0  1.023458  0
H  H112  1  0.98569759  0.60797353  0.83737070  1  0.063413  0  0.106053  0.104977  0  1.018513  0
H  H113  1  0.51430302  0.39202353  0.33737183  1  0.06345  0  0.106054  0.104986  0  1.018508  0
H  H114  1  0.01430145  0.10797372  0.66263020  1  0.063474  0  0.106061  0.104983  0  1.01849  0
H  H115  1  0.48569913  0.89202558  0.16262780  1  0.063419  0  0.106036  0.104967  0  1.018499  0
H  H116  1  0.88166522  0.72038408  0.90872964  1  0.1039  0  0.102443  0.107639  0  1.022973  0
H  H117  1  0.61833443  0.27961449  0.40873120  1  0.103854  0  0.102413  0.107577  0  1.022998  0
H  H118  1  0.11833293  0.22038433  0.59126996  1  0.103894  0  0.102437  0.107614  0  1.023029  0
H  H119  1  0.38166393  0.77961499  0.09126887  1  0.103853  0  0.102418  0.107601  0  1.02299  0
H  H120  1  0.72179632  0.84705537  0.87755154  1  0.102681  0  0.099035  0.097532  0  1.050474  0
H  H121  1  0.77820615  0.15294398  0.37755183  1  0.102638  0  0.09906  0.097583  0  1.050457  0
H  H122  1  0.27820283  0.34705643  0.62244804  1  0.102668  0  0.099028  0.09751  0  1.050504  0
H  H123  1  0.22179215  0.65294443  0.12244869  1  0.102655  0  0.099063  0.097581  0  1.050445  0
H  H124  1  0.67005371  0.86518080  0.77355392  1  0.056981  0  0.097168  0.093286  0  1.029596  0
H  H125  1  0.82994224  0.13481937  0.27355335  1  0.057029  0  0.097183  0.09333  0  1.02958  0
H  H126  1  0.32994451  0.36518183  0.72644651  1  0.056988  0  0.097164  0.093289  0  1.0296  0
H  H127  1  0.17005699  0.63481975  0.22644674  1  0.057026  0  0.097186  0.093348  0  1.029581  0
H  H128  1  0.77798513  0.75614540  0.70192401  1  0.053489  0  0.101145  0.095675  0  1.016997  0
H  H129  1  0.72201178  0.24385557  0.20192472  1  0.053525  0  0.10116  0.095722  0  1.016984  0
H  H130  1  0.22201397  0.25614560  0.79807558  1  0.0535  0  0.101149  0.095681  0  1.016994  0
H  H131  1  0.27798844  0.74385519  0.29807536  1  0.053517  0  0.101158  0.095717  0  1.016958  0
C  C132  1  0.31737522  0.77678627  0.86171294  1  0.510411  0  0.044812  0.030595  0  3.906798  0
C  C133  1  0.18262717  0.22321372  0.36171238  1  0.510189  0  0.044764  0.030529  0  3.906804  0
C  C134  1  0.68262577  0.27678513  0.63828835  1  0.510389  0  0.044787  0.030528  0  3.906808  0
C  C135  1  0.81737397  0.72321433  0.13828771  1  0.510202  0  0.044758  0.03053  0  3.906856  0
C  C136  1  0.46915002  0.89908949  0.88186221  1  0.393097  0  0.043747  0.075055  0  3.942064  0
C  C137  1  0.03085049  0.10090972  0.38186253  1  0.393107  0  0.043817  0.075273  0  3.942051  0
C  C138  1  0.53085290  0.39909062  0.61813735  1  0.393136  0  0.043809  0.075198  0  3.94199  0
C  C139  1  0.96915060  0.60091038  0.11813757  1  0.3931  0  0.043834  0.075252  0  3.94212  0
C  C140  1  0.44363003  0.95212972  0.83142479  1  -0.012245  0  -0.08666  -0.124063  0  3.969888  0
C  C141  1  0.05636769  0.04787028  0.33142468  1  -0.012091  0  -0.086762  -0.124277  0  3.970016  0
C  C142  1  0.55636729  0.45212930  0.66857648  1  -0.012108  0  -0.086706  -0.124222  0  3.969938  0
C  C143  1  0.94363151  0.54787014  0.16857499  1  -0.012107  0  -0.086715  -0.124165  0  3.969959  0
C  C144  1  0.35243681  0.91342037  0.79456278  1  -0.01032  0  -0.065769  -0.074548  0  3.908066  0
C  C145  1  0.14756091  0.08657964  0.29456223  1  -0.010272  0  -0.065787  -0.074599  0  3.908104  0
C  C146  1  0.64756142  0.41341996  0.70543850  1  -0.010551  0  -0.065841  -0.074661  0  3.908031  0
C  C147  1  0.85243830  0.58657946  0.20543744  1  -0.010257  0  -0.065733  -0.074533  0  3.907992  0
C  C148  1  0.28759080  0.82388646  0.80978498  1  -0.045025  0  -0.004691  0.059285  0  3.963077  0
C  C149  1  0.21240879  0.17611278  0.30978527  1  -0.04503  0  -0.00465  0.059412  0  3.962989  0
C  C150  1  0.71240927  0.32388607  0.69021546  1  -0.045035  0  -0.004668  0.059387  0  3.96304  0
C  C151  1  0.78759046  0.67611336  0.19021482  1  -0.045022  0  -0.004677  0.05935  0  3.963046  0
C  C152  1  0.18782846  0.77709387  0.77238018  1  0.282008  0  -0.056015  -0.113859  0  3.919502  0
C  C153  1  0.31217114  0.22290692  0.27238045  1  0.281918  0  -0.055963  -0.113804  0  3.919456  0
C  C154  1  0.81217065  0.27709273  0.72762027  1  0.281972  0  -0.055986  -0.113858  0  3.919451  0
C  C155  1  0.68782906  0.72290591  0.22762006  1  0.281977  0  -0.056012  -0.113837  0  3.919561  0
C  C156  1  0.17355785  0.78001958  0.66420673  1  0.303006  0  0.008269  0.054106  0  3.828937  0
C  C157  1  0.32644180  0.21998203  0.16420658  1  0.303011  0  0.00826  0.054032  0  3.828944  0
C  C158  1  0.82644033  0.28001917  0.83579328  1  0.302994  0  0.008216  0.05404  0  3.828796  0
C  C159  1  0.67355747  0.71998020  0.33579308  1  0.303003  0  0.008279  0.05414  0  3.82892  0
C  C160  1  0.19681640  0.89500046  0.65408756  1  -0.090231  0  -0.170636  -0.210862  0  3.917321  0
C  C161  1  0.30318232  0.10500115  0.15408743  1  -0.090219  0  -0.17063  -0.210813  0  3.91727  0
C  C162  1  0.80318183  0.39500004  0.84591201  1  -0.090254  0  -0.17064  -0.210893  0  3.917268  0
C  C163  1  0.69681690  0.60499933  0.34591224  1  -0.090263  0  -0.170618  -0.210821  0  3.917272  0
C  C164  1  0.13700585  0.92928850  0.59775689  1  -0.00436  0  -0.167458  -0.135091  0  3.942503  0
C  C165  1  0.36299382  0.07071236  0.09775676  1  -0.004428  0  -0.167433  -0.135005  0  3.942577  0
C  C166  1  0.86299333  0.42928808  0.90224310  1  -0.004354  0  -0.167465  -0.135032  0  3.942486  0
C  C167  1  0.63700539  0.57071127  0.40224292  1  -0.004359  0  -0.167469  -0.13513  0  3.942616  0
C  C168  1  0.99679999  0.90604653  0.59776756  1  -0.031447  0  -0.169374  -0.146803  0  3.941729  0
C  C169  1  0.50319883  0.09395449  0.09776788  1  -0.031448  0  -0.169407  -0.146833  0  3.941845  0
C  C170  1  0.00319918  0.40604585  0.90223201  1  -0.031441  0  -0.16942  -0.146855  0  3.94187  0
C  C171  1  0.49680038  0.59395335  0.40223222  1  -0.031434  0  -0.169341  -0.146688  0  3.94172  0
C  C172  1  0.97230297  0.79138790  0.60761962  1  -0.016304  0  -0.1632  -0.193375  0  3.934172  0
C  C173  1  0.52769679  0.20861311  0.10761992  1  -0.01629  0  -0.163182  -0.193331  0  3.934192  0
C  C174  1  0.02769522  0.29138646  0.89238040  1  -0.016307  0  -0.163172  -0.193297  0  3.934231  0
C  C175  1  0.47230341  0.70861274  0.39237974  1  -0.016287  0  -0.163206  -0.193425  0  3.934187  0
C  C176  1  0.03194760  0.75448702  0.66371232  1  0.29233  0  0.010723  0.046417  0  3.828984  0
C  C177  1  0.46805205  0.24551536  0.16371258  1  0.292337  0  0.010713  0.046429  0  3.828952  0
C  C178  1  0.96804963  0.25448665  0.83628770  1  0.292328  0  0.010711  0.046325  0  3.829069  0
C  C179  1  0.53194817  0.74551349  0.33628707  1  0.292311  0  0.010691  0.046382  0  3.82903  0
C  C180  1  0.06491158  0.56887246  0.63605426  1  0.291548  0  -0.054492  -0.108834  0  3.931107  0
C  C181  1  0.43509370  0.43112916  0.13605364  1  0.291554  0  -0.054508  -0.108953  0  3.931213  0
C  C182  1  0.93508651  0.06887284  0.86394536  1  0.29156  0  -0.054464  -0.108758  0  3.93117  0
C  C183  1  0.56491128  0.93112729  0.36394556  1  0.291564  0  -0.054492  -0.108872  0  3.931163  0
C  C184  1  0.97415220  0.52164213  0.59388841  1  0.035096  0  -0.001463  0.065972  0  3.944232  0
C  C185  1  0.52585318  0.47835888  0.09388739  1  0.035183  0  -0.001468  0.066053  0  3.944224  0
C  C186  1  0.02584587  0.02164223  0.90611164  1  0.035129  0  -0.001471  0.065971  0  3.944144  0
C  C187  1  0.47415276  0.97835697  0.40611180  1  0.035099  0  -0.001465  0.066008  0  3.94413  0
C  C188  1  0.84700558  0.54634822  0.59119970  1  -0.053972  0  -0.071965  -0.091988  0  3.956242  0
C  C189  1  0.65299887  0.45365202  0.09119911  1  -0.053994  0  -0.071977  -0.092113  0  3.956197  0
C  C190  1  0.15299156  0.04634912  0.90879991  1  -0.053994  0  -0.071942  -0.091965  0  3.956168  0
C  C191  1  0.34700613  0.95365084  0.40880052  1  -0.053999  0  -0.071974  -0.092033  0  3.956231  0
C  C192  1  0.77152945  0.49881400  0.55024919  1  -0.047347  0  -0.08382  -0.118899  0  4.006946  0
C  C193  1  0.72847688  0.50118703  0.05024944  1  -0.047356  0  -0.083801  -0.118832  0  4.006686  0
C  C194  1  0.22846976  0.99881508  0.94975036  1  -0.047334  0  -0.083872  -0.118892  0  4.006944  0
C  C195  1  0.27152979  0.00118487  0.44975110  1  -0.047298  0  -0.083826  -0.11885  0  4.006934  0
C  C196  1  0.82372550  0.42497940  0.51436147  1  0.530926  0  0.040439  0.067975  0  3.939367  0
C  C197  1  0.67628459  0.57502318  0.01436213  1  0.530321  0  0.04051  0.06812  0  3.939064  0
C  C198  1  0.17627368  0.92498045  0.98563810  1  0.530845  0  0.040467  0.067942  0  3.939481  0
C  C199  1  0.32372586  0.07501948  0.48563883  1  0.530849  0  0.040434  0.067935  0  3.939399  0
C  C200  1  0.02014545  0.44891599  0.55508471  1  0.456896  0  0.044548  0.030445  0  3.880701  0
C  C201  1  0.47986267  0.55108952  0.05508578  1  0.457108  0  0.044545  0.030478  0  3.880831  0
C  C202  1  0.97985468  0.94891729  0.94491614  1  0.456843  0  0.044537  0.030454  0  3.880614  0
C  C203  1  0.52014496  0.05108281  0.44491518  1  0.456871  0  0.044563  0.030483  0  3.880569  0
C  C204  1  0.32422527  0.66747487  0.71061044  1  1.367337  0  0.238091  0.422281  0  4.112679  0
C  C205  1  0.17577249  0.33252518  0.21061072  1  1.367339  0  0.238112  0.422274  0  4.112616  0
C  C206  1  0.67577192  0.16747444  0.78938916  1  1.367339  0  0.238094  0.422315  0  4.112654  0
C  C207  1  0.82422777  0.83252341  0.28938935  1  1.367346  0  0.238077  0.422181  0  4.112717  0
C  C208  1  0.36964995  0.61406460  0.76358804  1  -0.140486  0  -0.016131  -0.018549  0  4.009197  0
C  C209  1  0.13034685  0.38593620  0.26358788  1  -0.140513  0  -0.016117  -0.018523  0  4.009273  0
C  C210  1  0.63034816  0.11406263  0.73641200  1  -0.140515  0  -0.016098  -0.018559  0  4.009232  0
C  C211  1  0.86965155  0.88593447  0.23641175  1  -0.140492  0  -0.016081  -0.01841  0  4.009139  0
C  C212  1  0.49329754  0.62943086  0.78168472  1  0.052158  0  -0.08956  -0.11034  0  3.977182  0
C  C213  1  0.00670113  0.37056839  0.28168500  1  0.052146  0  -0.089558  -0.110288  0  3.97725  0
C  C214  1  0.50670245  0.12943040  0.71831489  1  0.052164  0  -0.089564  -0.110353  0  3.977263  0
C  C215  1  0.99329914  0.87056670  0.21831506  1  0.052132  0  -0.089573  -0.110271  0  3.977261  0
C  C216  1  0.53888616  0.57804583  0.82979900  1  -0.096603  0  -0.092944  -0.094102  0  4.034632  0
C  C217  1  0.96111258  0.42195355  0.32979924  1  -0.09662  0  -0.09296  -0.09413  0  4.034686  0
C  C218  1  0.46111287  0.07804461  0.67020104  1  -0.098321  0  -0.09299  -0.094104  0  4.034688  0
C  C219  1  0.03888865  0.92195238  0.17020124  1  -0.096626  0  -0.092922  -0.094069  0  4.034613  0
C  C220  1  0.46189892  0.50891697  0.85932775  1  -0.038527  0  -0.088558  -0.086032  0  4.009429  0
C  C221  1  0.03809972  0.49108378  0.35932715  1  -0.038526  0  -0.088498  -0.085993  0  4.009495  0
C  C222  1  0.53810008  0.00891579  0.64067273  1  -0.036831  0  -0.088522  -0.086078  0  4.009535  0
C  C223  1  0.96190154  0.99108289  0.14067332  1  -0.038497  0  -0.088555  -0.086027  0  4.009518  0
C  C224  1  0.33957038  0.49130807  0.84044085  1  -0.032301  0  -0.086578  -0.061355  0  3.995292  0
C  C225  1  0.16042827  0.50869193  0.34044067  1  -0.032306  0  -0.086553  -0.061305  0  3.995328  0
C  C226  1  0.66042883  0.99130631  0.65955956  1  -0.032338  0  -0.086548  -0.061308  0  3.995248  0
C  C227  1  0.83957185  0.00869082  0.15955944  1  -0.0323  0  -0.086594  -0.061414  0  3.995454  0
C  C228  1  0.29280698  0.54415942  0.79292715  1  -0.052409  0  -0.091578  -0.130596  0  3.98123  0
C  C229  1  0.20719075  0.45583983  0.29292655  1  -0.05233  0  -0.09162  -0.130622  0  3.981231  0
C  C230  1  0.70719110  0.04415825  0.70707333  1  -0.052406  0  -0.091597  -0.130535  0  3.981192  0
C  C231  1  0.79280769  0.95583809  0.20707265  1  -0.052386  0  -0.091604  -0.130667  0  3.981161  0
C  C232  1  0.95632538  0.60508177  0.72375091  1  1.336015  0  0.235113  0.40792  0  4.12585  0
C  C233  1  0.54367246  0.39491919  0.22375204  1  1.33603  0  0.235119  0.407858  0  4.125924  0
C  C234  1  0.04367460  0.10508270  0.77624870  1  1.336012  0  0.235127  0.407935  0  4.125702  0
C  C235  1  0.45632782  0.89491886  0.27624759  1  1.336032  0  0.235137  0.407911  0  4.12591  0
C  C236  1  0.89137635  0.67604387  0.76471598  1  -0.079209  0  -0.017191  -0.028944  0  4.01148  0
C  C237  1  0.60862241  0.32395553  0.26471669  1  -0.079204  0  -0.017189  -0.028918  0  4.011409  0
C  C238  1  0.10862366  0.17604406  0.73528405  1  -0.079231  0  -0.017172  -0.028902  0  4.011471  0
C  C239  1  0.39137690  0.82395598  0.23528252  1  -0.079213  0  -0.017193  -0.028912  0  4.011451  0
C  C240  1  0.91751090  0.66520685  0.82331500  1  0.009519  0  -0.082894  -0.101527  0  3.965921  0
C  C241  1  0.58249159  0.33479176  0.32331613  1  0.009522  0  -0.082864  -0.101496  0  3.965842  0
C  C242  1  0.08248910  0.16520783  0.67668503  1  0.009477  0  -0.082895  -0.101528  0  3.965908  0
C  C243  1  0.41750867  0.83479300  0.17668351  1  0.009496  0  -0.082857  -0.101493  0  3.965862  0
C  C244  1  0.85826900  0.72786214  0.86347829  1  -0.058937  0  -0.087482  -0.077949  0  3.97512  0
C  C245  1  0.64173254  0.27213722  0.36347943  1  -0.058945  0  -0.087434  -0.077851  0  3.975072  0
C  C246  1  0.14172916  0.22786315  0.63652173  1  -0.059095  0  -0.087472  -0.077928  0  3.975143  0
C  C247  1  0.35826769  0.77213770  0.13652064  1  -0.058949  0  -0.087459  -0.077932  0  3.975084  0
C  C248  1  0.76929702  0.80011479  0.84560249  1  -0.037505  0  -0.086674  -0.074228  0  3.978393  0
C  C249  1  0.73070359  0.19988304  0.34560278  1  -0.037526  0  -0.086675  -0.074276  0  3.978378  0
C  C250  1  0.23070117  0.30011659  0.65439795  1  -0.037335  0  -0.086632  -0.07417  0  3.978316  0
C  C251  1  0.26929567  0.69988425  0.15439731  1  -0.037523  0  -0.086695  -0.074227  0  3.978303  0
C  C252  1  0.74045317  0.80977305  0.78756724  1  -0.062701  0  -0.091819  -0.078995  0  4.005608  0
C  C253  1  0.75954278  0.19022557  0.28756796  1  -0.062725  0  -0.091877  -0.079041  0  4.00556  0
C  C254  1  0.25954315  0.30977561  0.71243277  1  -0.062709  0  -0.091896  -0.07907  0  4.005523  0
C  C255  1  0.24045648  0.69022598  0.21243213  1  -0.062747  0  -0.091906  -0.079156  0  4.005537  0
C  C256  1  0.80160807  0.74842526  0.74719462  1  -0.061761  0  -0.089505  -0.11748  0  3.987856  0
C  C257  1  0.69839070  0.25157569  0.24719490  1  -0.061759  0  -0.089553  -0.117607  0  3.987857  0
C  C258  1  0.19839010  0.24842548  0.75280583  1  -0.06177  0  -0.089482  -0.117475  0  3.98782  0
C  C259  1  0.30160951  0.75157687  0.25280475  1  -0.061707  0  -0.089488  -0.117494  0  3.987731  0
N  N260  1  0.40752200  0.81250748  0.89672655  1  -1.217123  0  -0.355165  -0.184709  0  3.671816  0
N  N261  1  0.09247944  0.18749172  0.39672727  1  -1.216894  0  -0.355194  -0.18483  0  3.671785  0
N  N262  1  0.59247807  0.31250710  0.60327432  1  -1.216996  0  -0.355184  -0.184739  0  3.671808  0
N  N263  1  0.90752262  0.68749237  0.10327324  1  -1.216907  0  -0.35521  -0.184818  0  3.67187  0
N  N264  1  0.23312388  0.74078524  0.71636671  1  -1.136619  0  -0.273359  -0.14389  0  3.583849  0
N  N265  1  0.26687481  0.25921481  0.21636656  1  -1.136598  0  -0.273353  -0.143875  0  3.583825  0
N  N266  1  0.76687428  0.24078560  0.78363331  1  -1.136603  0  -0.273366  -0.143915  0  3.583857  0
N  N267  1  0.73312541  0.75921302  0.28363309  1  -1.136626  0  -0.273357  -0.143949  0  3.583903  0
N  N268  1  0.00925865  0.64423273  0.67482761  1  -1.144274  0  -0.275002  -0.151583  0  3.606576  0
N  N269  1  0.49074287  0.35576887  0.17482785  1  -1.144319  0  -0.274997  -0.151486  0  3.606777  0
N  N270  1  0.99073854  0.14423237  0.82517200  1  -1.144266  0  -0.274972  -0.151545  0  3.606595  0
N  N271  1  0.50925927  0.85576777  0.32517136  1  -1.144263  0  -0.274998  -0.151511  0  3.606649  0
N  N272  1  0.94647936  0.40084072  0.51680874  1  -1.191099  0  -0.349535  -0.167958  0  3.652663  0
N  N273  1  0.55353074  0.59916572  0.01681027  1  -1.191027  0  -0.34954  -0.168122  0  3.652366  0
N  N274  1  0.05352075  0.90084097  0.98319168  1  -1.191076  0  -0.349561  -0.167988  0  3.652671  0
N  N275  1  0.44647972  0.09915897  0.48319154  1  -1.191104  0  -0.349537  -0.167983  0  3.652657  0
N  N276  1  0.67192936  0.87719364  0.01700074  1  0.817506  0  0.08615  0.71817  0  4.42634  0
N  N277  1  0.82806855  0.12280663  0.51700054  1  0.817508  0  0.086154  0.718198  0  4.42637  0
N  N278  1  0.32806904  0.37719303  0.48299932  1  0.817505  0  0.086227  0.718377  0  4.426516  0
N  N279  1  0.17193143  0.62280691  0.98299949  1  0.817505  0  0.086169  0.71821  0  4.426414  0
O  O280  1  0.36886304  0.64282275  0.66317423  1  -1.145139  0  -0.309126  -0.488635  0  2.100307  0
O  O281  1  0.13113567  0.35717732  0.16317407  1  -1.145158  0  -0.309161  -0.488658  0  2.100323  0
O  O282  1  0.63113602  0.14282228  0.83682581  1  -1.145153  0  -0.309141  -0.488666  0  2.100342  0
O  O283  1  0.86886366  0.85717632  0.33682599  1  -1.145142  0  -0.309144  -0.488616  0  2.100329  0
O  O284  1  0.96083523  0.51080817  0.73442229  1  -1.130316  0  -0.301289  -0.49062  0  2.14958  0
O  O285  1  0.53915418  0.48919124  0.23442469  1  -1.130359  0  -0.301272  -0.490614  0  2.14977  0
O  O286  1  0.03916003  0.01080756  0.76557648  1  -1.130316  0  -0.301318  -0.490675  0  2.149551  0
O  O287  1  0.46084614  0.98919092  0.26557578  1  -1.130347  0  -0.301287  -0.490648  0  2.149729  0
O  O288  1  0.74654081  0.93206792  0.04565193  1  -0.545164  0  -0.20655  -0.471222  0  1.95874  0
O  O289  1  0.75345803  0.06793311  0.54565217  1  -0.545177  0  -0.20658  -0.471265  0  1.958758  0
O  O290  1  0.25345855  0.43206653  0.45434770  1  -0.545158  0  -0.20661  -0.471319  0  1.958888  0
O  O291  1  0.24654193  0.56793265  0.95434787  1  -0.545184  0  -0.206581  -0.47126  0  1.958726  0
O  O292  1  0.55509342  0.87724451  0.02812758  1  -0.561178  0  -0.21734  -0.467204  0  1.958899  0
O  O293  1  0.94490637  0.12275576  0.52812781  1  -0.561157  0  -0.217357  -0.467233  0  1.958822  0
O  O294  1  0.44490686  0.37724393  0.47187205  1  -0.561178  0  -0.217371  -0.467291  0  1.958833  0
O  O295  1  0.05509455  0.62275601  0.97187223  1  -0.561141  0  -0.21736  -0.467235  0  1.958914  0
O  O296  1  0.71353539  0.82066707  0.97628218  1  -0.589465  0  -0.217057  -0.5023  0  2.017533  0
O  O297  1  0.78646424  0.17933379  0.47628246  1  -0.589469  0  -0.217013  -0.502266  0  2.017631  0
O  O298  1  0.28646562  0.32066586  0.52371740  1  -0.589457  0  -0.21704  -0.502361  0  2.017747  0
O  O299  1  0.21353595  0.67933350  0.02371763  1  -0.589477  0  -0.217025  -0.502289  0  2.017639  0
