# generated using pymatgen
data_H2PbC2Br2N
_symmetry_space_group_name_H-M   'P 1'
_cell_length_a   7.45491600
_cell_length_b   7.88436561
_cell_length_c   11.36890380
_cell_angle_alpha   110.24811323
_cell_angle_beta   109.11605589
_cell_angle_gamma   89.98228765
_symmetry_Int_Tables_number   1
_chemical_formula_structural   H2PbC2Br2N
_chemical_formula_sum   'H8 Pb4 C8 Br8 N4'
_cell_volume   587.53228333
_cell_formula_units_Z   4
loop_
 _symmetry_equiv_pos_site_id
 _symmetry_equiv_pos_as_xyz
  1  'x, y, z'
loop_
 _atom_site_type_symbol
 _atom_site_label
 _atom_site_symmetry_multiplicity
 _atom_site_fract_x
 _atom_site_fract_y
 _atom_site_fract_z
 _atom_site_occupancy
 _atom_site_hle17_bader_spin_density
 _atom_site_hle17_ddec_charge
 _atom_site_hle17_ddec_spin_density
 _atom_site_hle17_ddec_sum_bond_order
 _atom_site_hle17_magmom
 _atom_site_hse06_10hf_bader_spin_density
 _atom_site_hse06_10hf_ddec_charge
 _atom_site_hse06_10hf_ddec_spin_density
 _atom_site_hse06_10hf_ddec_sum_bond_order
 _atom_site_hse06_10hf_magmom
 _atom_site_hse06_bader_spin_density
 _atom_site_hse06_ddec_charge
 _atom_site_hse06_ddec_spin_density
 _atom_site_hse06_ddec_sum_bond_order
 _atom_site_hse06_magmom
 _atom_site_pbe_bader_spin_density
 _atom_site_pbe_cm5_charge
 _atom_site_pbe_ddec_charge
 _atom_site_pbe_ddec_spin_density
 _atom_site_pbe_ddec_sum_bond_order
 _atom_site_pbe_magmom
H  H0  1  0.67611737  0.00136262  0.00372307  1  0  0.091736  0  0.97098  0  0  0.094443  0  1.045843  0  0  0.098009  0  1.041918  0  0  0.09727  0.091543  0  1.049192  0
H  H1  1  0.32379237  0.99853491  0.99625583  1  0  0.091973  0  0.971549  0  0  0.094466  0  1.046492  0  0  0.098091  0  1.042498  0  0  0.09744  0.091562  0  1.049848  0
H  H2  1  0.32741379  0.50160600  0.00338705  1  0  0.092228  0  0.970011  0  0  0.094231  0  1.045591  0  0  0.097837  0  1.041622  0  0  0.097286  0.091664  0  1.048696  0
H  H3  1  0.67269607  0.49844955  0.99667263  1  0  0.092014  0  0.970564  0  0  0.09418  0  1.045971  0  0  0.097776  0  1.042004  0  0  0.097376  0.09162  0  1.049074  0
H  H4  1  0.04033090  0.89190897  0.78328241  1  0  0.088114  0  0.958907  0  0  0.089693  0  1.036861  0  0  0.092779  0  1.033864  0  0  0.102159  0.087147  0  1.039568  0
H  H5  1  0.95960821  0.10797349  0.21675279  1  0  0.088184  0  0.958239  0  0  0.089903  0  1.036074  0  0  0.092996  0  1.03308  0  0  0.102159  0.087345  0  1.038792  0
H  H6  1  0.74299271  0.39197721  0.78345690  1  0  0.087702  0  0.95962  0  0  0.089118  0  1.03777  0  0  0.092279  0  1.034622  0  0  0.101909  0.087406  0  1.038727  0
H  H7  1  0.25708085  0.60802924  0.21662015  1  0  0.087693  0  0.959178  0  0  0.089305  0  1.037124  0  0  0.092489  0  1.033981  0  0  0.101865  0.087586  0  1.038084  0
Pb  Pb8  1  0.52547246  0.82609189  0.65232628  1  0  1.073653  0  1.710397  0  0  0.889883  0  2.169015  0  0  0.952662  0  2.123877  0  0  0.384603  0.845482  0  2.199656  0
Pb  Pb9  1  0.47452568  0.17393652  0.34764142  1  0  1.073511  0  1.71099  0  0  0.889714  0  2.169732  0  0  0.952498  0  2.124565  0  0  0.384474  0.845324  0  2.200369  0
Pb  Pb10  1  0.12738808  0.32636948  0.65273584  1  0  1.072699  0  1.708307  0  0  0.888705  0  2.166827  0  0  0.951526  0  2.121517  0  0  0.385152  0.844647  0  2.197012  0
Pb  Pb11  1  0.87255723  0.67373123  0.34720896  1  0  1.072808  0  1.70806  0  0  0.888829  0  2.166531  0  0  0.951635  0  2.121237  0  0  0.385297  0.844767  0  2.196721  0
C  C12  1  0.82085130  0.00042603  0.00126699  1  0  0.08415  0  3.668446  0  0  0.05513  0  3.920284  0  0  0.058253  0  3.938061  0  0  0.044492  0.052741  0  3.908878  0
C  C13  1  0.17915758  0.99954513  0.99868395  1  0  0.083945  0  3.670488  0  0  0.055131  0  3.922135  0  0  0.058208  0  3.93985  0  0  0.044418  0.05272  0  3.910803  0
C  C14  1  0.18034582  0.50057569  0.00111889  1  0  0.084078  0  3.669925  0  0  0.055198  0  3.921867  0  0  0.058348  0  3.939614  0  0  0.04504  0.05289  0  3.910539  0
C  C15  1  0.81964534  0.49946360  0.99887370  1  0  0.084184  0  3.671859  0  0  0.055184  0  3.923704  0  0  0.058347  0  3.941419  0  0  0.044972  0.05287  0  3.91239  0
C  C16  1  0.02124156  0.94013923  0.87997575  1  0  0.089814  0  3.662844  0  0  0.061385  0  3.917407  0  0  0.064432  0  3.935234  0  0  0.048439  0.058909  0  3.906251  0
C  C17  1  0.97881452  0.05988639  0.12004061  1  0  0.08973  0  3.660529  0  0  0.061165  0  3.915351  0  0  0.064203  0  3.933187  0  0  0.048606  0.058691  0  3.904189  0
C  C18  1  0.85874451  0.44015544  0.88007133  1  0  0.089375  0  3.666059  0  0  0.061057  0  3.920554  0  0  0.064179  0  3.938268  0  0  0.048683  0.058634  0  3.90898  0
C  C19  1  0.14123119  0.55993697  0.11996944  1  0  0.089014  0  3.664022  0  0  0.060654  0  3.918309  0  0  0.063738  0  3.936075  0  0  0.048498  0.058233  0  3.906723  0
Br  Br20  1  0.78612520  0.53652369  0.57252482  1  0  -0.616732  0  1.108378  0  0  -0.525955  0  1.422249  0  0  -0.558907  0  1.404018  0  0  -0.200742  -0.50211  0  1.433777  0
Br  Br21  1  0.21401166  0.96319053  0.42742718  1  0  -0.617305  0  1.107727  0  0  -0.526616  0  1.421253  0  0  -0.559551  0  1.403048  0  0  -0.200882  -0.502131  0  1.432968  0
Br  Br22  1  0.21398024  0.46352101  0.42748643  1  0  -0.616753  0  1.108205  0  0  -0.525972  0  1.422056  0  0  -0.558905  0  1.403791  0  0  -0.200798  -0.502122  0  1.433577  0
Br  Br23  1  0.78601303  0.03685558  0.57256278  1  0  -0.617272  0  1.10763  0  0  -0.5266  0  1.421152  0  0  -0.559524  0  1.402933  0  0  -0.200922  -0.502119  0  1.432868  0
Br  Br24  1  0.40677084  0.65609128  0.81296531  1  0  -0.530733  0  1.074046  0  0  -0.457084  0  1.389751  0  0  -0.483059  0  1.370126  0  0  -0.192984  -0.438316  0  1.402961  0
Br  Br25  1  0.59288254  0.84371980  0.18703867  1  0  -0.530377  0  1.074689  0  0  -0.456997  0  1.390976  0  0  -0.48302  0  1.371308  0  0  -0.192876  -0.438276  0  1.404032  0
Br  Br26  1  0.59326315  0.34392892  0.18702040  1  0  -0.530669  0  1.073943  0  0  -0.456992  0  1.389619  0  0  -0.482974  0  1.370015  0  0  -0.192974  -0.43822  0  1.402818  0
Br  Br27  1  0.40696393  0.15629767  0.81299076  1  0  -0.530548  0  1.073905  0  0  -0.457162  0  1.390015  0  0  -0.483197  0  1.370367  0  0  -0.193094  -0.438434  0  1.403057  0
N  N28  1  0.84186788  0.94050528  0.88128140  1  0  -0.279844  0  3.179403  0  0  -0.207068  0  3.427074  0  0  -0.223813  0  3.449573  0  0  -0.283749  -0.195556  0  3.412282  0
N  N29  1  0.15820913  0.05932816  0.11866503  1  0  -0.279749  0  3.179055  0  0  -0.206934  0  3.426658  0  0  -0.223684  0  3.449185  0  0  -0.283664  -0.195416  0  3.411857  0
N  N30  1  0.03933932  0.44062340  0.88123181  1  0  -0.278282  0  3.180627  0  0  -0.204944  0  3.427776  0  0  -0.221769  0  3.450389  0  0  -0.283668  -0.194493  0  3.413474  0
N  N31  1  0.96055264  0.55930002  0.11875656  1  0  -0.278337  0  3.180825  0  0  -0.20505  0  3.428083  0  0  -0.221882  0  3.45071  0  0  -0.283788  -0.194587  0  3.413779  0
