# generated using pymatgen
data_CuTeMo3H8C10(NO6)2
_symmetry_space_group_name_H-M   'P 1'
_cell_length_a   7.73434553
_cell_length_b   9.77500405
_cell_length_c   12.46691911
_cell_angle_alpha   99.20166097
_cell_angle_beta   107.20686646
_cell_angle_gamma   101.65963679
_symmetry_Int_Tables_number   1
_chemical_formula_structural   CuTeMo3H8C10(NO6)2
_chemical_formula_sum   'Cu2 Te2 Mo6 H16 C20 N4 O24'
_cell_volume   857.11750377
_cell_formula_units_Z   2
loop_
 _symmetry_equiv_pos_site_id
 _symmetry_equiv_pos_as_xyz
  1  'x, y, z'
loop_
 _atom_site_type_symbol
 _atom_site_label
 _atom_site_symmetry_multiplicity
 _atom_site_fract_x
 _atom_site_fract_y
 _atom_site_fract_z
 _atom_site_occupancy
 _atom_site_pbe_cm5_charge
 _atom_site_pbe_ddec_charge
 _atom_site_pbe_ddec_spin_density
 _atom_site_pbe_ddec_sum_bond_order
 _atom_site_pbe_magmom
Cu  Cu0  1  0.46910254  0.31433306  0.31246860  1  0.762344  0.905795  0.74152  2.347715  0.56
Cu  Cu1  1  0.53088742  0.68566340  0.68752911  1  0.762355  0.905932  -0.741504  2.347718  -0.56
Te  Te2  1  0.76522385  0.79142153  0.98580106  1  0.88124  1.463927  -0.020457  3.970577  -0.012
Te  Te3  1  0.23477108  0.20858138  0.01419996  1  0.881325  1.464028  0.020453  3.970794  0.012
Mo  Mo4  1  0.63240780  0.55192313  0.15056303  1  1.543612  2.208871  0.016206  4.555249  0.023
Mo  Mo5  1  0.36759131  0.44807231  0.84945549  1  1.543556  2.209086  -0.016209  4.554578  -0.023
Mo  Mo6  1  0.71149186  0.25039666  0.96857100  1  1.549678  2.245745  -0.000105  4.546376  0.0
Mo  Mo7  1  0.28850255  0.74960087  0.03143087  1  1.54963  2.245706  0.000106  4.546449  0.0
Mo  Mo8  1  0.64068568  0.05152223  0.15736592  1  1.504329  2.13708  -0.003291  4.632355  -0.004
Mo  Mo9  1  0.35930256  0.94847316  0.84263215  1  1.504327  2.137007  0.003291  4.632533  0.004
H  H10  1  0.16546605  0.03695288  0.24582603  1  0.122545  0.112526  0.001695  0.990845  0.003
H  H11  1  0.83453235  0.96305218  0.75417990  1  0.122526  0.112509  -0.001696  0.990757  -0.003
H  H12  1  0.04574458  0.86702101  0.35442950  1  0.110508  0.143612  0.000615  1.01358  0.001
H  H13  1  0.95425929  0.13297650  0.64557490  1  0.11049  0.143577  -0.000614  1.013733  -0.001
H  H14  1  0.19514854  0.92868161  0.57306085  1  0.109611  0.112518  9e-05  1.008823  0.0
H  H15  1  0.80486629  0.07132015  0.42694367  1  0.109628  0.11253  -9.1e-05  1.008791  0.0
H  H16  1  0.45647284  0.14978182  0.66941658  1  0.112954  0.133272  0.000891  1.024534  0.001
H  H17  1  0.54353658  0.85021995  0.33058616  1  0.112896  0.13324  -0.000891  1.024481  -0.001
H  H18  1  0.01819960  0.67762388  0.64029570  1  0.112087  0.135776  0.00064  1.003423  0.001
H  H19  1  0.98180075  0.32237139  0.35968853  1  0.112039  0.135706  -0.00064  1.003442  -0.001
H  H20  1  0.79993525  0.57573796  0.43353937  1  0.122587  0.103608  0.001625  1.001511  0.002
H  H21  1  0.20005258  0.42425631  0.56644886  1  0.122603  0.103692  -0.001624  1.001416  -0.002
H  H22  1  0.69899903  0.33092972  0.73431558  1  0.113421  0.131466  0.000827  1.022335  0.001
H  H23  1  0.30101901  0.66907736  0.26568136  1  0.113428  0.131497  -0.000827  1.0223  -0.001
H  H24  1  0.96250650  0.55140494  0.79159882  1  0.116852  0.130968  5.9e-05  0.995735  0.0
H  H25  1  0.03751520  0.44860102  0.20839223  1  0.116819  0.131006  -5.9e-05  0.99572  0.0
C  C26  1  0.22620434  0.05515113  0.33918344  1  0.060568  0.134853  0.000135  3.87241  -0.001
C  C27  1  0.77378759  0.94484321  0.66082160  1  0.060659  0.135003  -0.000133  3.87195  0.001
C  C28  1  0.45288113  0.20703821  0.50836567  1  0.115673  0.153578  0.00196  4.01856  0.002
C  C29  1  0.54712253  0.79296255  0.49164471  1  0.115672  0.153606  -0.00196  4.018358  -0.002
C  C30  1  0.16082817  0.96250603  0.40124365  1  -0.07541  -0.114552  0.005678  3.898198  0.007
C  C31  1  0.83917711  0.03750326  0.59875283  1  -0.075486  -0.114673  -0.00568  3.898082  -0.007
C  C32  1  0.24361316  0.99705734  0.52114130  1  -0.061409  -0.01526  -0.00261  3.929681  -0.002
C  C33  1  0.75639267  0.00293802  0.47886641  1  -0.06149  -0.015325  0.002606  3.930318  0.002
C  C34  1  0.39097314  0.12084165  0.57577067  1  -0.070937  -0.134917  0.003177  3.883811  0.003
C  C35  1  0.60904547  0.87917086  0.42423587  1  -0.070793  -0.134817  -0.003177  3.883526  -0.003
C  C36  1  0.61100326  0.33679875  0.55393276  1  0.116725  0.156014  0.001551  4.005988  0.001
C  C37  1  0.38899827  0.66319983  0.44606813  1  0.116845  0.156193  -0.001552  4.006362  -0.001
C  C38  1  0.90256921  0.58170287  0.61779728  1  -0.076154  -0.125424  0.005306  3.93113  0.006
C  C39  1  0.09744595  0.41829989  0.38219219  1  -0.076151  -0.125331  -0.005304  3.931399  -0.006
C  C40  1  0.78413571  0.52603634  0.50361274  1  0.048907  0.096161  0.000545  3.941703  -0.001
C  C41  1  0.21586270  0.47396110  0.49637461  1  0.048869  0.096016  -0.000544  3.941884  0.001
C  C42  1  0.72497041  0.38690428  0.66968168  1  -0.065589  -0.120061  0.003255  3.877603  0.003
C  C43  1  0.27504727  0.61310176  0.33032068  1  -0.065648  -0.120237  -0.003255  3.87766  -0.003
C  C44  1  0.87181138  0.51099053  0.70185914  1  -0.051754  0.005694  -0.002332  3.898866  -0.002
C  C45  1  0.12819724  0.48900903  0.29813034  1  -0.05166  0.005666  0.002332  3.898995  0.002
N  N46  1  0.36773528  0.17384279  0.39184590  1  -0.344209  -0.284495  0.070751  3.617285  0.09
N  N47  1  0.63226446  0.82616224  0.60815385  1  -0.344248  -0.284625  -0.070734  3.617901  -0.09
N  N48  1  0.64231818  0.40701306  0.47323005  1  -0.34847  -0.280929  0.069238  3.617929  0.088
N  N49  1  0.35768385  0.59299084  0.52676116  1  -0.348567  -0.28101  -0.069222  3.618452  -0.088
O  O50  1  0.79873650  0.14260460  0.07825242  1  -0.590239  -0.861687  0.00095  2.007387  0.001
O  O51  1  0.20125693  0.85739401  0.92174940  1  -0.590242  -0.861707  -0.00095  2.007421  -0.001
O  O52  1  0.72993885  0.40022064  0.09066473  1  -0.58331  -0.85701  0.000914  2.090973  0.001
O  O53  1  0.27005248  0.59977584  0.90933886  1  -0.58332  -0.857021  -0.000913  2.09106  -0.001
O  O54  1  0.55148434  0.87105319  0.98511678  1  -0.510952  -0.93585  -0.001365  2.274792  -0.002
O  O55  1  0.44850946  0.12894650  0.01488444  1  -0.510949  -0.935893  0.001366  2.274755  0.002
O  O56  1  0.46555833  0.67481772  0.13330008  1  -0.58977  -0.883512  0.001567  2.091834  0.002
O  O57  1  0.53443818  0.32518196  0.86670243  1  -0.589795  -0.883529  -0.001567  2.091869  -0.002
O  O58  1  0.63849907  0.60173038  0.98711977  1  -0.493525  -0.842199  0.002181  2.202675  0.002
O  O59  1  0.36149436  0.39826825  0.01288366  1  -0.493539  -0.842212  -0.002182  2.202928  -0.002
O  O60  1  0.56655616  0.47454390  0.25605395  1  -0.55657  -0.775572  0.039735  2.095117  0.053
O  O61  1  0.43343641  0.52546004  0.74393634  1  -0.55658  -0.77587  -0.039764  2.094693  -0.053
O  O62  1  0.67132603  0.19475257  0.26950540  1  -0.533305  -0.737462  -0.000363  1.871982  0.001
O  O63  1  0.32867259  0.80524927  0.73049937  1  -0.533286  -0.737434  0.000364  1.872172  -0.001
O  O64  1  0.79036918  0.95434175  0.21721379  1  -0.505774  -0.675824  -0.001099  1.791377  -0.001
O  O65  1  0.20962794  0.04565579  0.78279179  1  -0.505723  -0.675702  0.001099  1.791482  0.001
O  O66  1  0.59408966  0.06861529  0.85323642  1  -0.590277  -0.859426  0.000252  2.002252  0.0
O  O67  1  0.40590377  0.93138333  0.14676621  1  -0.590257  -0.859414  -0.000252  2.002395  0.0
O  O68  1  0.91235443  0.30739152  0.93775152  1  -0.493988  -0.64887  0.000235  1.707061  0.0
O  O69  1  0.08763997  0.69260603  0.06225196  1  -0.493925  -0.648829  -0.000235  1.707024  0.0
O  O70  1  0.74143579  0.76833677  0.83091914  1  -0.463067  -0.724626  -0.052577  2.083476  -0.069
O  O71  1  0.25855093  0.23165431  0.16907572  1  -0.463099  -0.724651  0.052567  2.083573  0.069
O  O72  1  0.84251745  0.67440113  0.22837298  1  -0.498936  -0.633721  -0.000499  1.692965  -0.001
O  O73  1  0.15746794  0.32559000  0.77162966  1  -0.498903  -0.633786  0.000498  1.692676  0.001
