# generated using pymatgen
data_Al2H12C22BrO10F
_symmetry_space_group_name_H-M   'P 1'
_cell_length_a   6.63986205
_cell_length_b   15.85711745
_cell_length_c   17.26724194
_cell_angle_alpha   78.52704531
_cell_angle_beta   86.69873007
_cell_angle_gamma   86.32836234
_symmetry_Int_Tables_number   1
_chemical_formula_structural   Al2H12C22BrO10F
_chemical_formula_sum   'Al4 H24 C44 Br2 O20 F2'
_cell_volume   1776.19724529
_cell_formula_units_Z   2
loop_
 _symmetry_equiv_pos_site_id
 _symmetry_equiv_pos_as_xyz
  1  'x, y, z'
loop_
 _atom_site_type_symbol
 _atom_site_label
 _atom_site_symmetry_multiplicity
 _atom_site_fract_x
 _atom_site_fract_y
 _atom_site_fract_z
 _atom_site_occupancy
 _atom_site_pbe_bader_charge
 _atom_site_pbe_bader_spin_density
 _atom_site_pbe_cm5_charge
 _atom_site_pbe_ddec_charge
 _atom_site_pbe_ddec_spin_density
 _atom_site_pbe_ddec_sum_bond_order
 _atom_site_pbe_magmom
Al  Al0  1  0.88960265  0.49950927  0.49806137  1  2.500013  0  0.395955  1.643972  0  2.571717  0
Al  Al1  1  0.38932782  0.49763729  0.49793806  1  2.501357  0  0.390475  1.648888  0  2.57629  0
Al  Al2  1  0.33716117  0.00334629  0.00046578  1  2.499774  0  0.397137  1.639822  0  2.580035  0
Al  Al3  1  0.83948248  0.99699011  0.99918948  1  2.498991  0  0.395782  1.640747  0  2.58076  0
H  H4  1  0.87645030  0.80108283  0.86720609  1  0.110471  0  0.112935  0.120343  0  0.991911  0
H  H5  1  0.43604801  0.91954935  0.78955072  1  0.10767  0  0.114184  0.123281  0  0.983736  0
H  H6  1  0.76340790  0.68780480  0.80362625  1  0.092016  0  0.106147  0.110674  0  0.988031  0
H  H7  1  0.48286695  0.83656357  0.68213839  1  0.086274  0  0.093778  0.097098  0  1.046784  0
H  H8  1  0.81638463  0.59776990  0.70044913  1  0.106326  0  0.107809  0.116547  0  0.99932  0
H  H9  1  0.94464242  0.79101111  0.36523933  1  0.053248  0  0.099925  0.086091  0  0.990623  0
H  H10  1  0.26919828  0.87641090  0.27246828  1  0.068879  0  0.100272  0.086369  0  0.992065  0
H  H11  1  0.47603313  0.71254118  0.27538176  1  0.051782  0  0.100424  0.090641  0  1.009077  0
H  H12  1  0.28937450  0.70406453  0.13255712  1  0.061644  0  0.098351  0.083206  0  0.993724  0
H  H13  1  0.96484859  0.61857574  0.22548881  1  0.086191  0  0.100883  0.087297  0  0.991656  0
H  H14  1  0.75772231  0.78219145  0.22302816  1  0.058334  0  0.097011  0.08343  0  1.016084  0
H  H15  1  0.26186608  0.22396995  0.79210950  1  0.102749  0  0.110705  0.117016  0  0.979295  0
H  H16  1  0.46235169  0.38053284  0.78089326  1  0.083839  0  0.106279  0.09725  0  0.978872  0
H  H17  1  0.79769562  0.28112000  0.85682660  1  0.102487  0  0.107755  0.098678  0  0.978959  0
H  H18  1  0.97327965  0.26804833  0.70393869  1  0.082119  0  0.103327  0.111129  0  1.009625  0
H  H19  1  0.25107561  0.11679785  0.19879521  1  0.117534  0  0.108841  0.117006  0  1.000301  0
H  H20  1  0.01278495  0.29409703  0.19754994  1  0.094765  0  0.100787  0.102531  0  1.02312  0
H  H21  1  0.22922959  0.20644878  0.30267908  1  0.087018  0  0.104374  0.110448  0  1.003395  0
H  H22  1  0.99230567  0.38480485  0.30079872  1  0.114825  0  0.111579  0.118974  0  0.991006  0
H  H23  1  0.38645371  0.31125409  0.36929862  1  0.124717  0  0.113482  0.12289  0  0.99653  0
H  H24  1  0.61600099  0.60110094  0.52048257  1  0.603243  0  0.328691  0.405423  0  0.910989  0
H  H25  1  0.14879586  0.38730821  0.53725362  1  0.59021  0  0.341717  0.417856  0  0.884409  0
H  H26  1  0.58850117  0.89239018  0.04378722  1  0.627846  0  0.349928  0.426784  0  0.863036  0
H  H27  1  0.05630433  0.09942715  0.02898690  1  0.618505  0  0.345089  0.425681  0  0.869177  0
C  C28  1  0.63416014  0.38285837  0.61377999  1  1.582544  0  0.263647  0.648221  0  4.110601  0
C  C29  1  0.67396199  0.40811642  0.40123864  1  1.565972  0  0.269304  0.636483  0  4.104493  0
C  C30  1  0.14678174  0.61234430  0.38332923  1  1.572928  0  0.269035  0.641191  0  4.113014  0
C  C31  1  0.10675344  0.59447473  0.59303423  1  1.573502  0  0.263193  0.649764  0  4.093567  0
C  C32  1  0.15196958  0.86510577  0.83464855  1  -0.000652  0  -0.010286  -0.032378  0  3.988586  0
C  C33  1  0.09310696  0.65377270  0.65097504  1  0.06132  0  -0.020046  -0.093047  0  3.961741  0
C  C34  1  0.89503868  0.69484116  0.76247397  1  -0.084598  0  -0.089566  -0.13486  0  4.010378  0
C  C35  1  0.92361413  0.64518033  0.70582929  1  -0.002416  0  -0.089039  -0.097287  0  4.027898  0
C  C36  1  0.23115367  0.71524718  0.65481204  1  -0.134227  0  -3.9e-05  0.055187  0  3.859922  0
C  C37  1  0.20974455  0.76708000  0.71398632  1  0.027296  0  -0.01027  0.02694  0  3.974303  0
C  C38  1  0.03630486  0.75639378  0.76840910  1  0.019078  0  -0.002537  0.089357  0  3.998892  0
C  C39  1  0.00985423  0.80767125  0.82697776  1  -0.054816  0  -0.071648  -0.131634  0  3.917903  0
C  C40  1  0.32499064  0.87441603  0.78217850  1  -0.031714  0  -0.078299  -0.083512  0  3.966104  0
C  C41  1  0.35104670  0.82782187  0.72278612  1  -0.070999  0  -0.09423  -0.128904  0  4.00221  0
C  C42  1  0.20220923  0.81823763  0.26294475  1  -0.024076  0  -0.069768  -0.059938  0  3.622304  0
C  C43  1  0.02067448  0.77267416  0.31266653  1  -0.015229  0  -0.070643  -0.05953  0  3.627404  0
C  C44  1  0.13793367  0.68301741  0.31306171  1  0.023828  0  -0.003811  -0.037245  0  3.65624  0
C  C45  1  0.31715647  0.72876366  0.26291453  1  -0.019421  0  -0.078639  -0.073525  0  3.648841  0
C  C46  1  0.21344710  0.72234010  0.18520188  1  -0.039871  0  -0.072905  -0.062539  0  3.632763  0
C  C47  1  0.03187564  0.67679214  0.23490216  1  -0.055571  0  -0.069374  -0.060423  0  3.619904  0
C  C48  1  0.91694613  0.76618321  0.23503304  1  -0.017899  0  -0.078952  -0.069785  0  3.652145  0
C  C49  1  0.09586085  0.81204364  0.18477034  1  -0.001823  0  -0.007671  -0.043739  0  3.660026  0
C  C50  1  0.51576873  0.22683915  0.68971155  1  -0.017303  0  -0.007929  0.031055  0  3.606557  0
C  C51  1  0.70368810  0.17407199  0.72980224  1  0.620845  0  0.110647  0.255905  0  3.721891  0
C  C52  1  0.60298458  0.18167873  0.81317576  1  0.003527  0  -0.006577  -0.098256  0  3.656308  0
C  C53  1  0.41892697  0.23528150  0.77261453  1  -0.027753  0  -0.076713  -0.090357  0  3.647819  0
C  C54  1  0.53111113  0.32024616  0.76762430  1  -0.031953  0  -0.066876  -0.050906  0  3.615741  0
C  C55  1  0.71781943  0.26711946  0.80760567  1  -0.044368  0  -0.065501  -0.045531  0  3.618382  0
C  C56  1  0.81625076  0.25846154  0.72460538  1  -0.031056  0  -0.081854  -0.144054  0  3.645389  0
C  C57  1  0.63160089  0.31197879  0.68431666  1  0.007347  0  -0.005283  -0.048795  0  3.654458  0
C  C58  1  0.55413527  0.14857830  0.15781719  1  -0.016043  0  -0.025367  -0.163379  0  3.985108  0
C  C59  1  0.68622253  0.35302584  0.34019107  1  -0.030912  0  -0.01119  -0.034457  0  3.981133  0
C  C60  1  0.87637892  0.29787614  0.23509067  1  -0.064414  0  -0.089138  -0.116462  0  4.001175  0
C  C61  1  0.86523945  0.34802195  0.29193557  1  0.007695  0  -0.083251  -0.098141  0  3.979025  0
C  C62  1  0.52228706  0.30650293  0.33145734  1  -0.040418  0  -0.070077  -0.130123  0  3.906951  0
C  C63  1  0.52992456  0.25301135  0.27475334  1  -0.008707  0  -0.00195  0.098577  0  4.014917  0
C  C64  1  0.71029399  0.24934097  0.22543743  1  -0.010398  0  -0.01384  -0.035118  0  4.016965  0
C  C65  1  0.71531378  0.19616076  0.16840994  1  0.461091  0  0.114068  0.237067  0  3.980762  0
C  C66  1  0.37722501  0.15393884  0.20769705  1  -0.005261  0  -0.084508  -0.078168  0  4.009702  0
C  C67  1  0.36551065  0.20363463  0.26468518  1  -0.045937  0  -0.092275  -0.14851  0  4.002712  0
C  C68  1  0.55863355  0.09298771  0.09730684  1  1.590501  0  0.264493  0.658335  0  4.104162  0
C  C69  1  0.59884158  0.11245022  0.88500541  1  1.601578  0  0.270871  0.656029  0  4.105902  0
C  C70  1  0.12801058  0.91561668  0.89903096  1  1.572866  0  0.271099  0.638436  0  4.104396  0
C  C71  1  0.08444487  0.88236626  0.11428374  1  1.56091  0  0.265367  0.645802  0  4.10516  0
Br  Br72  1  0.37401225  0.19844881  0.60553550  1  -0.082538  0  0.009276  -0.081593  0  1.29489  0
Br  Br73  1  0.45053142  0.73937133  0.57806014  1  -0.045527  0  0.064283  -0.032022  0  1.501915  0
O  O74  1  0.50099770  0.41982176  0.43428254  1  -1.259051  0  -0.232751  -0.594187  0  2.37901  0
O  O75  1  0.80485440  0.40343492  0.58027369  1  -1.263228  0  -0.23627  -0.591673  0  2.319413  0
O  O76  1  0.94108631  0.56540117  0.57852132  1  -1.252285  0  -0.239071  -0.594418  0  2.335733  0
O  O77  1  0.83687370  0.43837780  0.41640580  1  -1.245536  0  -0.229485  -0.575057  0  2.33083  0
O  O78  1  0.97720172  0.59205054  0.41832505  1  -1.267868  0  -0.237354  -0.593292  0  2.337098  0
O  O79  1  0.46097664  0.41573836  0.59288965  1  -1.251724  0  -0.239898  -0.598456  0  2.348286  0
O  O80  1  0.63116295  0.55058054  0.49625372  1  -1.413878  0  -0.451508  -0.989718  0  2.2145  0
O  O81  1  0.31864283  0.57781349  0.40406010  1  -1.256158  0  -0.232888  -0.57834  0  2.319392  0
O  O82  1  0.27989691  0.57630586  0.56375266  1  -1.256511  0  -0.237956  -0.605797  0  2.439161  0
O  O83  1  0.14535972  0.44503620  0.50520566  1  -1.396748  0  -0.450231  -0.992733  0  2.209357  0
O  O84  1  0.76878623  0.07500467  0.90427760  1  -1.252749  0  -0.230096  -0.573622  0  2.317911  0
O  O85  1  0.39041398  0.06547013  0.08338098  1  -1.256014  0  -0.239358  -0.595363  0  2.315486  0
O  O86  1  0.25320555  0.90553551  0.07967351  1  -1.269597  0  -0.242894  -0.614394  0  2.333449  0
O  O87  1  0.42968867  0.09814378  0.92217554  1  -1.255218  0  -0.23099  -0.580378  0  2.322425  0
O  O88  1  0.28504723  0.94979358  0.91461192  1  -1.254705  0  -0.228401  -0.576159  0  2.350927  0
O  O89  1  0.72873633  0.07722634  0.06398543  1  -1.25594  0  -0.239859  -0.611303  0  2.397098  0
O  O90  1  0.59240676  0.94671922  0.00629332  1  -1.433093  0  -0.449107  -0.989651  0  2.189932  0
O  O91  1  0.95540592  0.91987085  0.93476126  1  -1.255889  0  -0.234615  -0.590586  0  2.336335  0
O  O92  1  0.90983996  0.91385987  0.09315006  1  -1.25551  0  -0.240928  -0.600594  0  2.32057  0
O  O93  1  0.07778483  0.05364377  0.99903242  1  -1.419896  0  -0.449391  -0.991056  0  2.184854  0
F  F94  1  0.78778327  0.09988466  0.71041206  1  -0.628427  0  -0.12004  -0.169282  0  1.302614  0
F  F95  1  0.88948855  0.19547882  0.12276014  1  -0.629729  0  -0.08576  -0.12814  0  1.382275  0
