# generated using pymatgen
data_ZnSiH32(C10O)2
_symmetry_space_group_name_H-M   'P 1'
_cell_length_a   8.36850172
_cell_length_b   11.01512142
_cell_length_c   12.65100000
_cell_angle_alpha   83.98757662
_cell_angle_beta   76.35240646
_cell_angle_gamma   89.80845435
_symmetry_Int_Tables_number   1
_chemical_formula_structural   ZnSiH32(C10O)2
_chemical_formula_sum   'Zn2 Si2 H64 C40 O4'
_cell_volume   1126.73422220
_cell_formula_units_Z   2
loop_
 _symmetry_equiv_pos_site_id
 _symmetry_equiv_pos_as_xyz
  1  'x, y, z'
loop_
 _atom_site_type_symbol
 _atom_site_label
 _atom_site_symmetry_multiplicity
 _atom_site_fract_x
 _atom_site_fract_y
 _atom_site_fract_z
 _atom_site_occupancy
 _atom_site_hle17_bader_spin_density
 _atom_site_hle17_ddec_charge
 _atom_site_hle17_ddec_spin_density
 _atom_site_hle17_ddec_sum_bond_order
 _atom_site_hle17_magmom
 _atom_site_hse06_10hf_bader_spin_density
 _atom_site_hse06_10hf_ddec_charge
 _atom_site_hse06_10hf_ddec_spin_density
 _atom_site_hse06_10hf_ddec_sum_bond_order
 _atom_site_hse06_10hf_magmom
 _atom_site_hse06_bader_spin_density
 _atom_site_hse06_ddec_charge
 _atom_site_hse06_ddec_spin_density
 _atom_site_hse06_ddec_sum_bond_order
 _atom_site_hse06_magmom
 _atom_site_pbe_bader_charge
 _atom_site_pbe_bader_spin_density
 _atom_site_pbe_cm5_charge
 _atom_site_pbe_ddec_charge
 _atom_site_pbe_ddec_spin_density
 _atom_site_pbe_ddec_sum_bond_order
 _atom_site_pbe_magmom
Zn  Zn0  1  0.58919933  0.10905645  0.02467905  1  0  0.92742  0  1.797908  0  0  0.764211  0  2.220343  0  0  0.807742  0  2.174961  0  1.121094  0  0.604123  0.733872  0  2.25133  0
Zn  Zn1  1  0.41080145  0.89094348  0.97532068  1  0  0.927441  0  1.79785  0  0  0.764238  0  2.220282  0  0  0.807766  0  2.1749  0  1.12103  0  0.604151  0.7339  0  2.251268  0
Si  Si2  1  0.61030788  0.29675532  0.37943987  1  0  1.068507  0  3.46133  0  0  0.961238  0  3.849728  0  0  0.980653  0  3.84607  0  2.705482  0  0.111418  0.947661  0  3.852182  0
Si  Si3  1  0.38968918  0.70324370  0.62055894  1  0  1.068385  0  3.461497  0  0  0.961098  0  3.849932  0  0  0.980517  0  3.846275  0  2.705442  0  0.111374  0.947523  0  3.852384  0
H  H4  1  0.66907272  0.91719293  0.25025361  1  0  0.098846  0  0.961819  0  0  0.11973  0  1.027778  0  0  0.120718  0  1.028032  0  0.006927  0  0.083886  0.118946  0  1.027685  0
H  H5  1  0.33092931  0.08280792  0.74974505  1  0  0.098854  0  0.961825  0  0  0.119736  0  1.027782  0  0  0.120734  0  1.028027  0  0.006945  0  0.083881  0.118953  0  1.027688  0
H  H6  1  0.50104878  0.92855448  0.36527312  1  0  0.113485  0  0.95162  0  0  0.138528  0  1.00704  0  0  0.138893  0  1.008745  0  0.057085  0  0.09357  0.138224  0  1.005876  0
H  H7  1  0.49895326  0.07144637  0.63472632  1  0  0.113498  0  0.951571  0  0  0.138537  0  1.007003  0  0  0.138902  0  1.008711  0  0.057078  0  0.093577  0.138233  0  1.005839  0
H  H8  1  0.55900617  0.05577414  0.26342090  1  0  0.103261  0  0.993613  0  0  0.122804  0  1.06062  0  0  0.123265  0  1.062687  0  0.049894  0  0.086773  0.122388  0  1.059274  0
H  H9  1  0.44099589  0.94422763  0.73657767  1  0  0.103271  0  0.993613  0  0  0.122812  0  1.060624  0  0  0.123273  0  1.062694  0  0.049883  0  0.086776  0.122397  0  1.059276  0
H  H10  1  0.64333208  0.70022960  0.24341791  1  0  0.093161  0  0.953553  0  0  0.114457  0  1.017217  0  0  0.11564  0  1.016828  0  0.026467  0  0.085798  0.113568  0  1.017504  0
H  H11  1  0.35667110  0.29976851  0.75658635  1  0  0.093217  0  0.953586  0  0  0.114491  0  1.01726  0  0  0.115674  0  1.016874  0  0.02671  0  0.085819  0.113603  0  1.017548  0
H  H12  1  0.61009534  0.71468378  0.11010122  1  0  0.090857  0  0.978982  0  0  0.112118  0  1.044902  0  0  0.113262  0  1.04412  0  0.054997  0  0.084767  0.111234  0  1.045485  0
H  H13  1  0.38990907  0.28531434  0.88990127  1  0  0.090845  0  0.978964  0  0  0.112105  0  1.044874  0  0  0.113245  0  1.044097  0  0.054973  0  0.084767  0.11122  0  1.045459  0
H  H14  1  0.51217697  0.59388227  0.20647787  1  0  0.111011  0  0.965214  0  0  0.132198  0  1.025934  0  0  0.13309  0  1.027203  0  0.066981  0  0.091971  0.131448  0  1.025145  0
H  H15  1  0.48782498  0.40611584  0.79352500  1  0  0.111028  0  0.965186  0  0  0.1322  0  1.02592  0  0  0.133097  0  1.027184  0  0.066997  0  0.091964  0.13145  0  1.025132  0
H  H16  1  0.25991862  0.54611957  0.30219221  1  0  0.101312  0  0.978095  0  0  0.1218  0  1.041294  0  0  0.123471  0  1.040587  0  0.050777  0  0.089911  0.120548  0  1.04185  0
H  H17  1  0.74007843  0.45387945  0.69781608  1  0  0.101315  0  0.978053  0  0  0.12179  0  1.041269  0  0  0.123461  0  1.040564  0  0.050791  0  0.089901  0.120538  0  1.041825  0
H  H18  1  0.07217143  0.60353452  0.27697138  1  0  0.09842  0  0.942808  0  0  0.120315  0  1.002723  0  0  0.121489  0  1.002395  0  0.006466  0  0.089266  0.119463  0  1.002953  0
H  H19  1  0.92782817  0.39646724  0.72303705  1  0  0.098374  0  0.942813  0  0  0.12029  0  1.002701  0  0  0.121464  0  1.002373  0  0.006825  0  0.089254  0.119438  0  1.002931  0
H  H20  1  0.11214782  0.60818579  0.40705742  1  0  0.103188  0  0.944193  0  0  0.127292  0  1.000773  0  0  0.128394  0  1.000836  0  0.009367  0  0.092514  0.126467  0  1.000752  0
H  H21  1  0.88785558  0.39181962  0.59294851  1  0  0.103172  0  0.943971  0  0  0.127243  0  1.000606  0  0  0.128344  0  1.000669  0  0.009485  0  0.09251  0.126419  0  1.000585  0
H  H22  1  0.92650993  0.94520554  0.36352126  1  0  0.102253  0  0.968586  0  0  0.124131  0  1.030137  0  0  0.125459  0  1.030176  0  0.050693  0  0.089584  0.123132  0  1.030163  0
H  H23  1  0.07349459  0.05479622  0.63647772  1  0  0.102285  0  0.968595  0  0  0.124158  0  1.030142  0  0  0.125487  0  1.030181  0  0.050702  0  0.089587  0.123159  0  1.03017  0
H  H24  1  0.96443916  0.81603468  0.44897936  1  0  0.105904  0  0.942955  0  0  0.129902  0  1.000041  0  0  0.130918  0  1.000385  0  0.046163  0  0.093221  0.129124  0  0.999835  0
H  H25  1  0.03555924  0.18396799  0.55102128  1  0  0.105917  0  0.942953  0  0  0.129938  0  1.000008  0  0  0.13095  0  1.000356  0  0.046168  0  0.093243  0.129161  0  0.999801  0
H  H26  1  0.90205495  0.79484922  0.32887608  1  0  0.093575  0  0.956477  0  0  0.112783  0  1.024266  0  0  0.113937  0  1.024112  0  0.026756  0  0.08599  0.111909  0  1.024408  0
H  H27  1  0.09794588  0.20515254  0.67112505  1  0  0.093592  0  0.956451  0  0  0.11281  0  1.02422  0  0  0.113961  0  1.024068  0  0.026735  0  0.086005  0.111937  0  1.024361  0
H  H28  1  0.08612361  0.10252422  0.28072532  1  0  0.091529  0  0.97987  0  0  0.1125  0  1.044406  0  0  0.113716  0  1.043852  0  0.001664  0  0.085108  0.111575  0  1.04483  0
H  H29  1  0.91387460  0.89747206  0.71926961  1  0  0.091609  0  0.979786  0  0  0.112577  0  1.044315  0  0  0.113791  0  1.043762  0  0.001686  0  0.085182  0.111652  0  1.044738  0
H  H30  1  0.27742764  0.14048767  0.18535348  1  0  0.090332  0  0.986334  0  0  0.10649  0  1.061414  0  0  0.10751  0  1.061447  0  0.057283  0  0.08137  0.105663  0  1.061491  0
H  H31  1  0.72257062  0.85951044  0.81464364  1  0  0.090292  0  0.986419  0  0  0.106495  0  1.061459  0  0  0.107514  0  1.061494  0  0.056908  0  0.081368  0.105669  0  1.061535  0
H  H32  1  0.26731552  0.12589927  0.32575886  1  0  0.106482  0  0.952345  0  0  0.131539  0  1.009479  0  0  0.13207  0  1.010538  0  0.027237  0  0.092362  0.131091  0  1.008767  0
H  H33  1  0.73267913  0.87410158  0.67423858  1  0  0.106429  0  0.952343  0  0  0.131496  0  1.009478  0  0  0.132028  0  1.010536  0  0.027222  0  0.09231  0.131046  0  1.008769  0
H  H34  1  0.82658504  0.22729492  0.14717386  1  0  0.069948  0  0.994383  0  0  0.082942  0  1.058637  0  0  0.085412  0  1.057351  0  0.031968  0  0.083581  0.081164  0  1.059557  0
H  H35  1  0.17341207  0.77270593  0.85282636  1  0  0.069923  0  0.994356  0  0  0.082916  0  1.058605  0  0  0.085387  0  1.057322  0  0.031932  0  0.083569  0.081138  0  1.059527  0
H  H36  1  0.71899346  0.31192628  0.96645606  1  0  0.1014  0  0.977254  0  0  0.113587  0  1.031989  0  0  0.115548  0  1.034501  0  0.055924  0  0.091213  0.112174  0  1.030302  0
H  H37  1  0.28100611  0.68807457  0.03354377  1  0  0.101426  0  0.977209  0  0  0.113612  0  1.031944  0  0  0.115574  0  1.034455  0  0.055931  0  0.091231  0.112199  0  1.030259  0
H  H38  1  0.40257879  0.37407924  0.03032881  1  0  0.087323  0  0.986436  0  0  0.101359  0  1.042725  0  0  0.103828  0  1.042248  0  0.057074  0  0.089783  0.09961  0  1.043047  0
H  H39  1  0.59742586  0.62592709  0.96966814  1  0  0.087371  0  0.986332  0  0  0.101397  0  1.042647  0  0  0.103864  0  1.042168  0  0.057228  0  0.089803  0.099638  0  1.042983  0
H  H40  1  0.34094944  0.38066991  0.24531701  1  0  0.068147  0  0.990889  0  0  0.084205  0  1.047561  0  0  0.086544  0  1.046982  0  0.033227  0  0.08717  0.082513  0  1.048052  0
H  H41  1  0.65905532  0.61934007  0.75467801  1  0  0.068093  0  0.990819  0  0  0.084127  0  1.047542  0  0  0.086478  0  1.046948  0  0.033159  0  0.087124  0.082432  0  1.048039  0
H  H42  1  0.72029218  0.08588138  0.39825902  1  0  0.142355  0  0.993355  0  0  0.163176  0  1.050116  0  0  0.164957  0  1.05052  0  0.01711  0  0.087571  0.161886  0  1.049846  0
H  H43  1  0.27970354  0.91411400  0.60173796  1  0  0.142365  0  0.993325  0  0  0.163212  0  1.050065  0  0  0.164995  0  1.050467  0  0.017227  0  0.08758  0.161921  0  1.049795  0
H  H44  1  0.76477464  0.17451480  0.49764049  1  0  0.147859  0  0.992892  0  0  0.166013  0  1.05232  0  0  0.167283  0  1.054419  0  0.042181  0  0.089046  0.165077  0  1.050888  0
H  H45  1  0.23522231  0.82548057  0.50235709  1  0  0.147846  0  0.992919  0  0  0.166015  0  1.052327  0  0  0.167284  0  1.054426  0  0.042096  0  0.089039  0.165078  0  1.050895  0
H  H46  1  0.88253008  0.19756204  0.36039961  1  0  0.13785  0  0.990951  0  0  0.157548  0  1.047756  0  0  0.15925  0  1.04794  0  0.04239  0  0.086218  0.156307  0  1.047658  0
H  H47  1  0.11746687  0.80243333  0.63959718  1  0  0.137866  0  0.990944  0  0  0.157559  0  1.04774  0  0  0.159262  0  1.047923  0  0.04238  0  0.086205  0.156318  0  1.047642  0
H  H48  1  0.30877972  0.32464741  0.45468366  1  0  0.14181  0  0.976671  0  0  0.160356  0  1.03515  0  0  0.162132  0  1.035501  0  0.02498  0  0.087801  0.15907  0  1.034931  0
H  H49  1  0.69121873  0.67535709  0.54531048  1  0  0.141737  0  0.976802  0  0  0.160325  0  1.035228  0  0  0.162101  0  1.035578  0  0.025016  0  0.087806  0.15904  0  1.035008  0
H  H50  1  0.40687860  0.27103090  0.55974181  1  0  0.138336  0  0.995011  0  0  0.158039  0  1.054602  0  0  0.159423  0  1.056074  0  0.030431  0  0.087396  0.157019  0  1.053624  0
H  H51  1  0.59311734  0.72897177  0.44025447  1  0  0.138276  0  0.995111  0  0  0.157985  0  1.054699  0  0  0.15937  0  1.056171  0  0.030342  0  0.08738  0.156966  0  1.053719  0
H  H52  1  0.36049507  0.16836241  0.47145093  1  0  0.141077  0  0.982214  0  0  0.161258  0  1.038316  0  0  0.163115  0  1.038619  0  0.00792  0  0.088396  0.159924  0  1.038113  0
H  H53  1  0.63949838  0.83163935  0.52854424  1  0  0.141069  0  0.982216  0  0  0.16126  0  1.038307  0  0  0.163117  0  1.03861  0  0.007916  0  0.088396  0.159926  0  1.038104  0
H  H54  1  0.81339159  0.46861121  0.35146109  1  0  0.136905  0  0.982641  0  0  0.155679  0  1.04033  0  0  0.157382  0  1.040726  0  0.035783  0  0.085048  0.154457  0  1.040057  0
H  H55  1  0.18661145  0.53138234  0.64854282  1  0  0.136906  0  0.982654  0  0  0.155675  0  1.040338  0  0  0.157378  0  1.040734  0  0.03578  0  0.085041  0.154454  0  1.040063  0
H  H56  1  0.69262743  0.45234364  0.48865681  1  0  0.140053  0  0.990303  0  0  0.160905  0  1.046282  0  0  0.162128  0  1.047924  0  0.014491  0  0.087005  0.160004  0  1.045153  0
H  H57  1  0.30737185  0.54764717  0.51134636  1  0  0.140072  0  0.990311  0  0  0.160925  0  1.04628  0  0  0.162148  0  1.047921  0  0.014553  0  0.087017  0.160024  0  1.045153  0
H  H58  1  0.60970159  0.52325859  0.38147960  1  0  0.144187  0  0.990532  0  0  0.164949  0  1.046908  0  0  0.166351  0  1.048374  0  0.028432  0  0.089048  0.163921  0  1.04591  0
H  H59  1  0.39030410  0.47674134  0.61852410  1  0  0.144142  0  0.990627  0  0  0.164919  0  1.046978  0  0  0.166324  0  1.048441  0  0.028432  0  0.089048  0.163889  0  1.045982  0
H  H60  1  0.92453278  0.88366252  0.91371179  1  0  0.062407  0  0.93335  0  0  0.077161  0  0.997622  0  0  0.077891  0  0.996632  0  0.078551  0  0.104798  0.076539  0  0.998463  0
H  H61  1  0.07546537  0.11633194  0.08628964  1  0  0.062464  0  0.933306  0  0  0.077198  0  0.997591  0  0  0.077919  0  0.996595  0  0.078729  0  0.104812  0.07658  0  0.998435  0
H  H62  1  0.76356451  0.86459360  0.03702535  1  0  0.079544  0  0.956266  0  0  0.090699  0  1.024071  0  0  0.091965  0  1.022557  0  0.115854  0  0.110513  0.089638  0  1.025315  0
H  H63  1  0.23643249  0.13540360  0.96297600  1  0  0.079634  0  0.956125  0  0  0.090707  0  1.024014  0  0  0.091957  0  1.022498  0  0.11574  0  0.110518  0.089653  0  1.025253  0
H  H64  1  0.95552157  0.20818308  0.93502619  1  0  0.082283  0  0.912127  0  0  0.101383  0  0.965252  0  0  0.101248  0  0.965799  0  0.083125  0  0.117598  0.101356  0  0.965017  0
H  H65  1  0.04447543  0.79181412  0.06497911  1  0  0.082246  0  0.912098  0  0  0.101348  0  0.96522  0  0  0.101214  0  0.965765  0  0.083081  0  0.11753  0.101338  0  0.964964  0
H  H66  1  0.03755838  0.08909544  0.85307595  1  0  0.063265  0  0.938362  0  0  0.075852  0  1.008058  0  0  0.076305  0  1.007935  0  0.035767  0  0.104699  0.075407  0  1.008321  0
H  H67  1  0.96243999  0.91090632  0.14692399  1  0  0.063236  0  0.938397  0  0  0.07582  0  1.008101  0  0  0.076272  0  1.007977  0  0.035733  0  0.104701  0.075374  0  1.008366  0
C  C68  1  0.42836279  0.91076936  0.21326154  1  0  0.317892  0  3.663407  0  0  0.317772  0  3.893515  0  0  0.326008  0  3.908021  0  0.508685  0  0.06165  0.31198  0  3.883679  0
C  C69  1  0.57163793  0.08922875  0.78673836  1  0  0.317878  0  3.663522  0  0  0.317933  0  3.893421  0  0  0.326185  0  3.907886  0  0.508668  0  0.061672  0.312139  0  3.883587  0
C  C70  1  0.40764961  0.77163762  0.23144469  1  0  -0.040559  0  3.672205  0  0  -0.026779  0  3.924165  0  0  -0.029491  0  3.948772  0  -0.105508  0  -0.035851  -0.02505  0  3.907544  0
C  C71  1  0.59235603  0.22836049  0.76855445  1  0  -0.0406  0  3.672434  0  0  -0.026951  0  3.924489  0  0  -0.029666  0  3.949101  0  -0.105865  0  -0.035948  -0.025221  0  3.907868  0
C  C72  1  0.24926473  0.74249095  0.28305375  1  0  0.02248  0  3.759094  0  0  0.033453  0  4.010584  0  0  0.032276  0  4.036761  0  -0.020223  0  -0.028289  0.034231  0  3.992803  0
C  C73  1  0.75073107  0.25750716  0.71695324  1  0  0.022466  0  3.759341  0  0  0.033457  0  4.010844  0  0  0.032279  0  4.037029  0  -0.019528  0  -0.028237  0.034235  0  3.993064  0
C  C74  1  0.15492756  0.85609184  0.30196322  1  0  0.011421  0  3.770238  0  0  0.023297  0  4.022179  0  0  0.021932  0  4.047611  0  -0.091731  0  -0.032032  0.024185  0  4.004929  0
C  C75  1  0.84507824  0.14391175  0.69803697  1  0  0.011467  0  3.769941  0  0  0.023367  0  4.02191  0  0  0.021995  0  4.047351  0  -0.091758  0  -0.03205  0.024255  0  4.00466  0
C  C76  1  0.25499775  0.95451539  0.26023680  1  0  -0.025509  0  3.659343  0  0  -0.013886  0  3.910203  0  0  -0.015353  0  3.932952  0  0.017718  0  -0.034422  -0.013005  0  3.894865  0
C  C77  1  0.74500046  0.04548090  0.73976445  1  0  -0.025515  0  3.659207  0  0  -0.013975  0  3.910116  0  0  -0.01544  0  3.932868  0  0.017773  0  -0.034438  -0.013094  0  3.894777  0
C  C78  1  0.54661989  0.95565218  0.27722501  1  0  -0.370091  0  3.663305  0  0  -0.451208  0  3.894893  0  0  -0.454926  0  3.905347  0  -0.093177  0  -0.247168  -0.448379  0  3.887699  0
C  C79  1  0.45338089  0.04434776  0.72277471  1  0  -0.370114  0  3.663271  0  0  -0.45125  0  3.894804  0  0  -0.454976  0  3.90524  0  -0.093156  0  -0.247167  -0.448421  0  3.88761  0
C  C80  1  0.54872627  0.69071340  0.19682576  1  0  -0.299945  0  3.770989  0  0  -0.378724  0  4.007388  0  0  -0.380201  0  4.018263  0  -0.110523  0  -0.241755  -0.37734  0  3.999921  0
C  C81  1  0.45127448  0.30928563  0.80317722  1  0  -0.300038  0  3.770815  0  0  -0.378755  0  4.007262  0  0  -0.380226  0  4.01812  0  -0.110704  0  -0.241779  -0.377371  0  3.999797  0
C  C82  1  0.17068901  0.61879405  0.31891327  1  0  -0.312098  0  3.780007  0  0  -0.388478  0  4.016206  0  0  -0.390284  0  4.026199  0  -0.015394  0  -0.23876  -0.386956  0  4.009291  0
C  C83  1  0.82931305  0.38120772  0.68109320  1  0  -0.312014  0  3.779617  0  0  -0.388355  0  4.015801  0  0  -0.390161  0  4.025795  0  -0.016224  0  -0.238741  -0.386836  0  4.008887  0
C  C84  1  0.97879865  0.85378355  0.36301723  1  0  -0.31597  0  3.778163  0  0  -0.394141  0  4.019433  0  0  -0.396167  0  4.030204  0  -0.092117  0  -0.241665  -0.392444  0  4.011987  0
C  C85  1  0.02120216  0.14621730  0.63698320  1  0  -0.316068  0  3.778319  0  0  -0.394254  0  4.019556  0  0  -0.396274  0  4.030341  0  -0.09216  0  -0.241688  -0.392557  0  4.01211  0
C  C86  1  0.21878055  0.08628222  0.26289927  1  0  -0.304057  0  3.777883  0  0  -0.382491  0  4.016272  0  0  -0.384046  0  4.02733  0  -0.053648  0  -0.244443  -0.381069  0  4.008649  0
C  C87  1  0.78121777  0.91371772  0.73709768  1  0  -0.304022  0  3.777951  0  0  -0.382489  0  4.016338  0  0  -0.384045  0  4.027401  0  -0.053301  0  -0.244428  -0.381067  0  4.008714  0
C  C88  1  0.59216283  0.30125685  0.23497575  1  0  -0.367374  0  3.800249  0  0  -0.316128  0  4.045174  0  0  -0.326114  0  4.072769  0  -0.726939  0  -0.09964  -0.309301  0  4.026279  0
C  C89  1  0.40783683  0.69874674  0.76502224  1  0  -0.367361  0  3.800219  0  0  -0.316137  0  4.045216  0  0  -0.32613  0  4.072824  0  -0.727475  0  -0.09964  -0.309309  0  4.026316  0
C  C90  1  0.70700778  0.26565008  0.14537064  1  0  -0.098774  0  3.831446  0  0  -0.117607  0  4.069293  0  0  -0.116827  0  4.093806  0  -0.110793  0  -0.130044  -0.117858  0  4.052331  0
C  C91  1  0.29299182  0.73435168  0.85462753  1  0  -0.098733  0  3.831407  0  0  -0.117561  0  4.069226  0  0  -0.116783  0  4.093745  0  -0.110819  0  -0.130031  -0.117813  0  4.052267  0
C  C92  1  0.64053936  0.28374839  0.04786953  1  0  -0.336507  0  3.95333  0  0  -0.306106  0  4.208792  0  0  -0.322328  0  4.23524  0  -0.298402  0  -0.201217  -0.295018  0  4.190387  0
C  C93  1  0.35945772  0.71625155  0.95212919  1  0  -0.336534  0  3.95325  0  0  -0.306135  0  4.208719  0  0  -0.322358  0  4.235164  0  -0.298407  0  -0.201241  -0.29505  0  4.190316  0
C  C94  1  0.48161568  0.34095333  0.08357266  1  0  -0.132331  0  3.815437  0  0  -0.143771  0  4.05711  0  0  -0.145071  0  4.082428  0  -0.171776  0  -0.137151  -0.142718  0  4.039694  0
C  C95  1  0.51838282  0.65905299  0.91642209  1  0  -0.132455  0  3.81558  0  0  -0.143889  0  4.057255  0  0  -0.145185  0  4.082571  0  -0.171896  0  -0.137193  -0.142826  0  4.039845  0
C  C96  1  0.45348242  0.34831830  0.19454830  1  0  -0.103037  0  3.84509  0  0  -0.117499  0  4.086663  0  0  -0.121971  0  4.112934  0  -0.041265  0  -0.125628  -0.114334  0  4.068677  0
C  C97  1  0.54651485  0.65168803  0.80545297  1  0  -0.102878  0  3.845232  0  0  -0.117312  0  4.086752  0  0  -0.121793  0  4.113025  0  -0.040583  0  -0.12554  -0.114145  0  4.068761  0
C  C98  1  0.75805382  0.17730063  0.41164304  1  0  -0.697154  0  3.62017  0  0  -0.732788  0  3.837307  0  0  -0.741913  0  3.842688  0  -0.775892  0  -0.298297  -0.726245  0  3.833527  0
C  C99  1  0.24194192  0.82269566  0.58835385  1  0  -0.697153  0  3.620184  0  0  -0.732809  0  3.83729  0  0  -0.741938  0  3.842666  0  -0.775937  0  -0.298283  -0.726266  0  3.833511  0
C  C100  1  0.40235485  0.26203973  0.47484386  1  0  -0.697566  0  3.640007  0  0  -0.735459  0  3.864578  0  0  -0.744676  0  3.870408  0  -0.74025  0  -0.295683  -0.72885  0  3.860451  0
C  C101  1  0.59764109  0.73796295  0.52515242  1  0  -0.697394  0  3.640201  0  0  -0.735327  0  3.864743  0  0  -0.744544  0  3.870573  0  -0.740169  0  -0.295652  -0.728718  0  3.860614  0
C  C102  1  0.68856039  0.44943728  0.40279591  1  0  -0.695493  0  3.635761  0  0  -0.731708  0  3.853682  0  0  -0.741429  0  3.860825  0  -0.750883  0  -0.296512  -0.724726  0  3.848627  0
C  C103  1  0.31144151  0.55055900  0.59720634  1  0  -0.695458  0  3.635838  0  0  -0.731679  0  3.853777  0  0  -0.741404  0  3.860922  0  -0.750951  0  -0.29651  -0.724698  0  3.848721  0
C  C104  1  0.88059287  0.91173723  0.99655263  1  0  0.047622  0  3.616024  0  0  -0.016073  0  3.884508  0  0  -0.009074  0  3.888658  0  0.354493  0  -0.074436  -0.020793  0  3.881818  0
C  C105  1  0.11940536  0.08825997  0.00344853  1  0  0.047583  0  3.615843  0  0  -0.01604  0  3.884342  0  0  -0.008988  0  3.888422  0  0.354406  0  -0.074403  -0.020779  0  3.881679  0
C  C106  1  0.99151486  0.11226961  0.93739215  1  0  0.052741  0  3.619222  0  0  -0.012119  0  3.890778  0  0  -0.005476  0  3.896655  0  0.411385  0  -0.068708  -0.016565  0  3.886741  0
C  C107  1  0.00848463  0.88772850  0.06260953  1  0  0.052873  0  3.619167  0  0  -0.011981  0  3.890728  0  0  -0.00533  0  3.896624  0  0.411571  0  -0.068616  -0.016439  0  3.886682  0
O  O108  1  0.48969392  0.95117531  0.09887928  1  0  -0.71756  0  2.084126  0  0  -0.606909  0  2.378456  0  0  -0.636859  0  2.361395  0  -1.13719  0  -0.386232  -0.585674  0  2.38946  0
O  O109  1  0.51030691  0.04882645  0.90112028  1  0  -0.717533  0  2.084112  0  0  -0.606958  0  2.37845  0  0  -0.636919  0  2.361391  0  -1.137201  0  -0.386235  -0.585723  0  2.389453  0
O  O110  1  0.84477121  0.04002246  0.98777221  1  0  -0.32251  0  2.342275  0  0  -0.229858  0  2.605249  0  0  -0.249075  0  2.604749  0  -1.057047  0  -0.222269  -0.216509  0  2.605457  0
O  O111  1  0.15522702  0.95997474  0.01222737  1  0  -0.322505  0  2.342214  0  0  -0.229851  0  2.605168  0  0  -0.24908  0  2.604647  0  -1.057201  0  -0.222282  -0.216505  0  2.605392  0
