# generated using pymatgen
data_LiH4CN4O3
_symmetry_space_group_name_H-M   'P 1'
_cell_length_a   5.21337872
_cell_length_b   6.43861017
_cell_length_c   8.21316683
_cell_angle_alpha   106.04869582
_cell_angle_beta   99.03699544
_cell_angle_gamma   111.76834823
_symmetry_Int_Tables_number   1
_chemical_formula_structural   LiH4CN4O3
_chemical_formula_sum   'Li2 H8 C2 N8 O6'
_cell_volume   235.41473804
_cell_formula_units_Z   2
loop_
 _symmetry_equiv_pos_site_id
 _symmetry_equiv_pos_as_xyz
  1  'x, y, z'
loop_
 _atom_site_type_symbol
 _atom_site_label
 _atom_site_symmetry_multiplicity
 _atom_site_fract_x
 _atom_site_fract_y
 _atom_site_fract_z
 _atom_site_occupancy
 _atom_site_hle17_bader_spin_density
 _atom_site_hle17_ddec_charge
 _atom_site_hle17_ddec_spin_density
 _atom_site_hle17_ddec_sum_bond_order
 _atom_site_hle17_magmom
 _atom_site_hse06_10hf_bader_spin_density
 _atom_site_hse06_10hf_ddec_charge
 _atom_site_hse06_10hf_ddec_spin_density
 _atom_site_hse06_10hf_ddec_sum_bond_order
 _atom_site_hse06_10hf_magmom
 _atom_site_hse06_bader_spin_density
 _atom_site_hse06_ddec_charge
 _atom_site_hse06_ddec_spin_density
 _atom_site_hse06_ddec_sum_bond_order
 _atom_site_hse06_magmom
 _atom_site_pbe_bader_spin_density
 _atom_site_pbe_cm5_charge
 _atom_site_pbe_ddec_charge
 _atom_site_pbe_ddec_spin_density
 _atom_site_pbe_ddec_sum_bond_order
 _atom_site_pbe_magmom
Li  Li0  1  0.66382639  0.86369530  0.91020557  1  0  0.862958  0  0.358591  0  0  0.812247  0  0.478058  0  0  0.822312  0  0.461137  0  0  0.4466  0.805144  0  0.489918  0
Li  Li1  1  0.33617811  0.13630860  0.08979020  1  0  0.862932  0  0.358609  0  0  0.81229  0  0.477958  0  0  0.822349  0  0.461044  0  0  0.446613  0.805184  0  0.489821  0
H  H2  1  0.12381237  0.97125916  0.73695192  1  0  0.394373  0  0.918697  0  0  0.355772  0  0.997992  0  0  0.365648  0  0.9835  0  0  0.298223  0.34885  0  1.00812  0
H  H3  1  0.87618651  0.02873753  0.26304178  1  0  0.39435  0  0.918768  0  0  0.355748  0  0.998035  0  0  0.36562  0  0.983553  0  0  0.29825  0.348824  0  1.008153  0
H  H4  1  0.99423021  0.15106209  0.78667091  1  0  0.398866  0  0.903012  0  0  0.3619  0  0.984785  0  0  0.372029  0  0.96941  0  0  0.300474  0.354747  0  0.995642  0
H  H5  1  0.00576769  0.84893278  0.21331987  1  0  0.39884  0  0.903102  0  0  0.361865  0  0.984854  0  0  0.371992  0  0.969481  0  0  0.300465  0.354712  0  0.995707  0
H  H6  1  0.32421531  0.67183347  0.07297291  1  0  0.418848  0  0.886061  0  0  0.387127  0  0.951189  0  0  0.397689  0  0.935633  0  0  0.30293  0.379724  0  0.962087  0
H  H7  1  0.67578552  0.32816324  0.92702098  1  0  0.418874  0  0.886035  0  0  0.38707  0  0.95128  0  0  0.397632  0  0.935724  0  0  0.302924  0.379676  0  0.962166  0
H  H8  1  0.10965441  0.68666756  0.92687628  1  0  0.412563  0  0.896112  0  0  0.382557  0  0.958973  0  0  0.39255  0  0.944467  0  0  0.304595  0.375578  0  0.969104  0
H  H9  1  0.89034843  0.31332921  0.07312023  1  0  0.412455  0  0.896249  0  0  0.382542  0  0.95898  0  0  0.392535  0  0.944475  0  0  0.304604  0.375555  0  0.969123  0
C  C10  1  0.42899921  0.57513935  0.49658091  1  0  0.157612  0  3.778672  0  0  0.126652  0  4.062939  0  0  0.134788  0  4.074732  0  0  0.234493  0.121204  0  4.055319  0
C  C11  1  0.57100151  0.42483057  0.50340477  1  0  0.158256  0  3.778383  0  0  0.126972  0  4.063019  0  0  0.135119  0  4.074804  0  0  0.234598  0.121512  0  4.055395  0
N  N12  1  0.40163815  0.72815391  0.63363350  1  0  -0.330354  0  3.059542  0  0  -0.318107  0  3.362184  0  0  -0.32331  0  3.370833  0  0  -0.244592  -0.314788  0  3.356647  0
N  N13  1  0.59834818  0.27182637  0.36633846  1  0  -0.330746  0  3.059679  0  0  -0.31844  0  3.362356  0  0  -0.323648  0  3.37101  0  0  -0.244685  -0.315118  0  3.356828  0
N  N14  1  0.24432011  0.82310856  0.56361230  1  0  -0.060256  0  3.047712  0  0  -0.040605  0  3.349503  0  0  -0.042251  0  3.359493  0  0  -0.070886  -0.039209  0  3.342784  0
N  N15  1  0.75567020  0.17686817  0.43635683  1  0  -0.059826  0  3.047346  0  0  -0.040112  0  3.349023  0  0  -0.041745  0  3.359008  0  0  -0.070619  -0.038726  0  3.3423  0
N  N16  1  0.17341859  0.73773802  0.38923600  1  0  -0.155852  0  2.861185  0  0  -0.149655  0  3.151966  0  0  -0.149193  0  3.159623  0  0  -0.073603  -0.149794  0  3.147039  0
N  N17  1  0.82656295  0.26223681  0.61073069  1  0  -0.155931  0  2.86025  0  0  -0.149799  0  3.151141  0  0  -0.149334  0  3.158792  0  0  -0.073735  -0.149939  0  3.14621  0
N  N18  1  0.29029135  0.58256606  0.34484866  1  0  0.273688  0  3.71957  0  0  0.309157  0  4.0023  0  0  0.309839  0  4.021867  0  0  -0.007402  0.308129  0  3.989198  0
N  N19  1  0.70969815  0.41747197  0.65518837  1  0  0.273547  0  3.717888  0  0  0.308934  0  4.000774  0  0  0.309605  0  4.020336  0  0  -0.00744  0.30793  0  3.987664  0
O  O20  1  0.26432737  0.46589224  0.18072460  1  0  -0.552715  0  1.862252  0  0  -0.503861  0  2.078212  0  0  -0.524764  0  2.074412  0  0  -0.212405  -0.488973  0  2.08059  0
O  O21  1  0.73568480  0.53417337  0.81936795  1  0  -0.553152  0  1.86199  0  0  -0.503845  0  2.077635  0  0  -0.524749  0  2.073827  0  0  -0.212512  -0.488983  0  2.080036  0
O  O22  1  0.06099745  0.04977290  0.83460378  1  0  -0.896489  0  1.903774  0  0  -0.847973  0  2.09773  0  0  -0.863003  0  2.066787  0  0  -0.626914  -0.837373  0  2.119298  0
O  O23  1  0.93899859  0.95022198  0.16539048  1  0  -0.896427  0  1.903816  0  0  -0.84789  0  2.097744  0  0  -0.862926  0  2.066797  0  0  -0.626899  -0.837274  0  2.119338  0
O  O24  1  0.31303239  0.77287904  0.00265586  1  0  -0.923227  0  1.868022  0  0  -0.875295  0  2.057275  0  0  -0.892413  0  2.02503  0  0  -0.651533  -0.863317  0  2.079626  0
O  O25  1  0.68697248  0.22711416  0.99733765  1  0  -0.923187  0  1.868122  0  0  -0.875254  0  2.057318  0  0  -0.892372  0  2.025076  0  0  -0.651546  -0.863273  0  2.079669  0
