# generated using pymatgen
data_CdH18C22(NO2)2
_symmetry_space_group_name_H-M   'P 1'
_cell_length_a   9.39416045
_cell_length_b   10.10138406
_cell_length_c   11.38086529
_cell_angle_alpha   99.06624155
_cell_angle_beta   92.05052973
_cell_angle_gamma   117.61654474
_symmetry_Int_Tables_number   1
_chemical_formula_structural   CdH18C22(NO2)2
_chemical_formula_sum   'Cd2 H36 C44 N4 O8'
_cell_volume   937.64184698
_cell_formula_units_Z   2
loop_
 _symmetry_equiv_pos_site_id
 _symmetry_equiv_pos_as_xyz
  1  'x, y, z'
loop_
 _atom_site_type_symbol
 _atom_site_label
 _atom_site_symmetry_multiplicity
 _atom_site_fract_x
 _atom_site_fract_y
 _atom_site_fract_z
 _atom_site_occupancy
 _atom_site_hle17_bader_spin_density
 _atom_site_hle17_ddec_charge
 _atom_site_hle17_ddec_spin_density
 _atom_site_hle17_ddec_sum_bond_order
 _atom_site_hle17_magmom
 _atom_site_hse06_10hf_bader_spin_density
 _atom_site_hse06_10hf_ddec_charge
 _atom_site_hse06_10hf_ddec_spin_density
 _atom_site_hse06_10hf_ddec_sum_bond_order
 _atom_site_hse06_10hf_magmom
 _atom_site_hse06_bader_spin_density
 _atom_site_hse06_ddec_charge
 _atom_site_hse06_ddec_spin_density
 _atom_site_hse06_ddec_sum_bond_order
 _atom_site_hse06_magmom
 _atom_site_pbe_bader_spin_density
 _atom_site_pbe_cm5_charge
 _atom_site_pbe_ddec_charge
 _atom_site_pbe_ddec_spin_density
 _atom_site_pbe_ddec_sum_bond_order
 _atom_site_pbe_magmom
Cd  Cd0  1  0.16434425  0.49836141  0.10565147  1  0  1.105849  0  1.693196  0  0  0.909342  0  2.139527  0  0  0.970303  0  2.087511  0  0  0.768728  0.86608  0  2.17364  0
Cd  Cd1  1  0.83565599  0.50163867  0.89434942  1  0  1.105843  0  1.6932  0  0  0.90935  0  2.139521  0  0  0.970307  0  2.087505  0  0  0.768732  0.866085  0  2.173647  0
H  H2  1  0.39169428  0.49169972  0.89625282  1  0  0.091892  0  0.93281  0  0  0.098783  0  0.997786  0  0  0.101102  0  0.996273  0  0  0.120087  0.097142  0  0.998843  0
H  H3  1  0.60830067  0.50830258  0.10374998  1  0  0.091853  0  0.932811  0  0  0.098744  0  0.997781  0  0  0.101061  0  0.996268  0  0  0.120077  0.097106  0  0.998836  0
H  H4  1  0.39344632  0.31866664  0.72036942  1  0  0.119358  0  0.968503  0  0  0.128055  0  1.031481  0  0  0.132033  0  1.029234  0  0  0.108287  0.125297  0  1.032974  0
H  H5  1  0.60655334  0.68133230  0.27963218  1  0  0.119334  0  0.968494  0  0  0.12804  0  1.03147  0  0  0.132019  0  1.029217  0  0  0.108279  0.125284  0  1.032961  0
H  H6  1  0.97495398  0.95451199  0.82744290  1  0  0.10952  0  0.982362  0  0  0.117514  0  1.046887  0  0  0.120866  0  1.045898  0  0  0.104649  0.114869  0  1.04826  0
H  H7  1  0.02504254  0.04548919  0.17255803  1  0  0.109507  0  0.982428  0  0  0.117499  0  1.046952  0  0  0.120848  0  1.045967  0  0  0.104657  0.114858  0  1.048325  0
H  H8  1  0.98782249  0.14990843  0.00041215  1  0  0.077658  0  0.945607  0  0  0.087116  0  1.009368  0  0  0.089039  0  1.008065  0  0  0.115193  0.085566  0  1.0105  0
H  H9  1  0.01217560  0.85009163  0.99958692  1  0  0.07764  0  0.945598  0  0  0.087106  0  1.009352  0  0  0.089027  0  1.008051  0  0  0.115185  0.085552  0  1.010487  0
H  H10  1  0.05990330  0.89227836  0.64851642  1  0  0.097719  0  0.9751  0  0  0.106185  0  1.04324  0  0  0.109678  0  1.040693  0  0  0.103194  0.103599  0  1.045262  0
H  H11  1  0.94009480  0.10772169  0.35148265  1  0  0.097751  0  0.975132  0  0  0.106215  0  1.043265  0  0  0.109707  0  1.040724  0  0  0.103207  0.103627  0  1.045292  0
H  H12  1  0.35364815  0.14330062  0.56090494  1  0  0.093252  0  0.966486  0  0  0.104641  0  1.030113  0  0  0.106907  0  1.029904  0  0  0.103438  0.102999  0  1.030179  0
H  H13  1  0.64635158  0.85670059  0.43909521  1  0  0.09324  0  0.966484  0  0  0.104643  0  1.030103  0  0  0.106909  0  1.029893  0  0  0.103426  0.103004  0  1.030163  0
H  H14  1  0.46356021  0.03473115  0.40522952  1  0  0.106804  0  0.976948  0  0  0.115664  0  1.039411  0  0  0.117629  0  1.041253  0  0  0.105169  0.114262  0  1.038523  0
H  H15  1  0.53643845  0.96527004  0.59477060  1  0  0.106788  0  0.976872  0  0  0.115635  0  1.03937  0  0  0.117601  0  1.041211  0  0  0.105163  0.114234  0  1.038478  0
H  H16  1  0.41539922  0.82880961  0.22996343  1  0  0.092062  0  0.941808  0  0  0.102114  0  1.001514  0  0  0.104378  0  1.000049  0  0  0.118779  0.100603  0  1.002182  0
H  H17  1  0.58460486  0.17119390  0.77003806  1  0  0.092083  0  0.941785  0  0  0.102137  0  1.001494  0  0  0.1044  0  1.00003  0  0  0.118795  0.100628  0  1.002151  0
H  H18  1  0.93687442  0.57601170  0.28276369  1  0  0.078691  0  0.956114  0  0  0.085733  0  1.024176  0  0  0.087416  0  1.023803  0  0  0.113434  0.084128  0  1.025332  0
H  H19  1  0.06313009  0.42398841  0.71723647  1  0  0.07868  0  0.956125  0  0  0.085724  0  1.024178  0  0  0.087415  0  1.023796  0  0  0.11344  0.084121  0  1.025336  0
H  H20  1  0.96369984  0.76843210  0.46010144  1  0  0.103432  0  0.956717  0  0  0.11573  0  1.01539  0  0  0.118142  0  1.015925  0  0  0.106474  0.113862  0  1.015475  0
H  H21  1  0.03630139  0.23156571  0.53989829  1  0  0.103452  0  0.956666  0  0  0.115747  0  1.015347  0  0  0.118161  0  1.015879  0  0  0.10651  0.113883  0  1.01543  0
H  H22  1  0.53928470  0.40822339  0.53901711  1  0  0.093626  0  0.981528  0  0  0.102395  0  1.049994  0  0  0.105333  0  1.0488  0  0  0.095248  0.100429  0  1.050998  0
H  H23  1  0.46071767  0.59177670  0.46098298  1  0  0.093579  0  0.981568  0  0  0.102365  0  1.050019  0  0  0.105303  0  1.048825  0  0  0.095223  0.100394  0  1.051028  0
H  H24  1  0.81324180  0.43110172  0.53547038  1  0  0.084445  0  0.964851  0  0  0.097555  0  1.021908  0  0  0.099678  0  1.022198  0  0  0.094759  0.096001  0  1.022179  0
H  H25  1  0.18675623  0.56889607  0.46452925  1  0  0.08447  0  0.964841  0  0  0.097566  0  1.021908  0  0  0.099687  0  1.022201  0  0  0.094768  0.096012  0  1.022179  0
H  H26  1  0.88575269  0.32115038  0.34891657  1  0  0.099811  0  0.972492  0  0  0.108509  0  1.039553  0  0  0.11178  0  1.03784  0  0  0.096673  0.106264  0  1.040931  0
H  H27  1  0.11424641  0.67884742  0.65108222  1  0  0.099821  0  0.972452  0  0  0.108497  0  1.039549  0  0  0.111769  0  1.037836  0  0  0.096659  0.106252  0  1.040931  0
H  H28  1  0.41395499  0.17968096  0.16846168  1  0  0.104684  0  0.929932  0  0  0.120208  0  0.982235  0  0  0.123564  0  0.980778  0  0  0.102553  0.117766  0  0.983563  0
H  H29  1  0.58604575  0.82031799  0.83153643  1  0  0.104705  0  0.929906  0  0  0.120232  0  0.982206  0  0  0.123602  0  0.980731  0  0  0.10259  0.117786  0  0.983538  0
H  H30  1  0.27585569  0.32000165  0.44682541  1  0  0.102949  0  0.940488  0  0  0.120008  0  1.002437  0  0  0.122153  0  1.001447  0  0  0.100651  0.118308  0  1.003655  0
H  H31  1  0.72414291  0.67999728  0.55317264  1  0  0.102919  0  0.940472  0  0  0.11998  0  1.002429  0  0  0.122122  0  1.001444  0  0  0.100652  0.118281  0  1.003648  0
H  H32  1  0.20102526  0.15491219  0.33391708  1  0  0.097359  0  0.956802  0  0  0.111613  0  1.022906  0  0  0.113549  0  1.022518  0  0  0.095456  0.110772  0  1.022869  0
H  H33  1  0.79897327  0.84508447  0.66608241  1  0  0.097359  0  0.956745  0  0  0.111621  0  1.022855  0  0  0.113554  0  1.022471  0  0  0.095479  0.110781  0  1.022814  0
H  H34  1  0.59514233  0.06233263  0.09348081  1  0  0.116579  0  0.928634  0  0  0.130118  0  0.988779  0  0  0.132848  0  0.986688  0  0  0.100683  0.127771  0  0.990911  0
H  H35  1  0.40485734  0.93766630  0.90651815  1  0  0.116596  0  0.928633  0  0  0.130126  0  0.988786  0  0  0.132857  0  0.986696  0  0  0.100683  0.127782  0  0.990916  0
H  H36  1  0.80406045  0.16288850  0.15628331  1  0  0.119334  0  0.945834  0  0  0.131727  0  1.00923  0  0  0.134229  0  1.007894  0  0  0.098981  0.129938  0  1.010281  0
H  H37  1  0.19593922  0.83711044  0.84371565  1  0  0.11938  0  0.945771  0  0  0.131773  0  1.009169  0  0  0.134277  0  1.007835  0  0  0.098987  0.129981  0  1.01022  0
C  C38  1  0.29970179  0.37206134  0.87747599  1  0  0.144046  0  3.678632  0  0  0.113287  0  3.931101  0  0  0.121258  0  3.948604  0  0  0.052627  0.10787  0  3.919138  0
C  C39  1  0.70030015  0.62794216  0.12252456  1  0  0.144124  0  3.6788  0  0  0.113387  0  3.93124  0  0  0.121359  0  3.948742  0  0  0.052654  0.107966  0  3.919281  0
C  C40  1  0.29894065  0.27267767  0.77780355  1  0  -0.147398  0  3.65481  0  0  -0.163696  0  3.894263  0  0  -0.171171  0  3.913672  0  0  -0.075768  -0.158407  0  3.880641  0
C  C41  1  0.70106122  0.72732356  0.22219668  1  0  -0.147384  0  3.654819  0  0  -0.163699  0  3.894258  0  0  -0.171175  0  3.913666  0  0  -0.075748  -0.158416  0  3.880637  0
C  C42  1  0.17865576  0.11914881  0.75542122  1  0  0.132033  0  3.803042  0  0  0.149123  0  4.029762  0  0  0.153992  0  4.052958  0  0  0.007673  0.146101  0  4.013292  0
C  C43  1  0.82134177  0.88085011  0.24458031  1  0  0.131981  0  3.802893  0  0  0.149079  0  4.029615  0  0  0.153951  0  4.052809  0  0  0.007651  0.146066  0  4.013142  0
C  C44  1  0.06689459  0.07365704  0.83912501  1  0  -0.171301  0  3.699607  0  0  -0.187556  0  3.942909  0  0  -0.196132  0  3.964456  0  0  -0.085417  -0.181936  0  3.928688  0
C  C45  1  0.93310571  0.92634530  0.16087356  1  0  -0.171119  0  3.699674  0  0  -0.187379  0  3.942954  0  0  -0.19595  0  3.964503  0  0  -0.085338  -0.181769  0  3.928739  0
C  C46  1  0.07481982  0.18072032  0.93553154  1  0  0.124894  0  3.732857  0  0  0.095622  0  3.981507  0  0  0.102847  0  4.001388  0  0  0.041209  0.090933  0  3.967866  0
C  C47  1  0.92518104  0.81928316  0.06446985  1  0  0.124845  0  3.73295  0  0  0.09557  0  3.981593  0  0  0.102794  0  4.001475  0  0  0.041159  0.090891  0  3.967951  0
C  C48  1  0.15863110  0.00670828  0.64987596  1  0  -0.094915  0  3.703404  0  0  -0.116153  0  3.953371  0  0  -0.118679  0  3.973303  0  0  -0.077674  -0.114036  0  3.938854  0
C  C49  1  0.84136863  0.99329292  0.35012507  1  0  -0.09495  0  3.703435  0  0  -0.116193  0  3.953412  0  0  -0.118721  0  3.973344  0  0  -0.077678  -0.114079  0  3.9389  0
C  C50  1  0.24854452  0.03206694  0.55776391  1  0  -0.104181  0  3.706206  0  0  -0.121771  0  3.955798  0  0  -0.12514  0  3.976843  0  0  -0.080279  -0.119499  0  3.94079  0
C  C51  1  0.75145465  0.96793313  0.44223607  1  0  -0.104158  0  3.706181  0  0  -0.121754  0  3.955794  0  0  -0.125123  0  3.976841  0  0  -0.080266  -0.119483  0  3.940781  0
C  C52  1  0.21911549  0.91695996  0.45156079  1  0  0.134628  0  3.798972  0  0  0.148546  0  4.029334  0  0  0.153879  0  4.051431  0  0  0.008816  0.144917  0  4.014344  0
C  C53  1  0.78088417  0.08303898  0.54844257  1  0  0.13461  0  3.798921  0  0  0.148488  0  4.029341  0  0  0.15382  0  4.051439  0  0  0.008779  0.144863  0  4.014345  0
C  C54  1  0.34533025  0.93398576  0.38220666  1  0  -0.164683  0  3.700706  0  0  -0.179522  0  3.94556  0  0  -0.187536  0  3.967615  0  0  -0.080662  -0.174845  0  3.93151  0
C  C55  1  0.65467219  0.06601660  0.61779375  1  0  -0.164654  0  3.700534  0  0  -0.179476  0  3.945423  0  0  -0.187489  0  3.967477  0  0  -0.080679  -0.174799  0  3.931368  0
C  C56  1  0.31989606  0.82029401  0.28496904  1  0  0.129529  0  3.703444  0  0  0.098452  0  3.952882  0  0  0.105847  0  3.971405  0  0  0.045749  0.0943  0  3.939527  0
C  C57  1  0.68010531  0.17970835  0.71503133  1  0  0.129456  0  3.703194  0  0  0.098375  0  3.952639  0  0  0.105768  0  3.971162  0  0  0.045725  0.094225  0  3.939281  0
C  C58  1  0.05212758  0.67862832  0.31410813  1  0  0.126866  0  3.723431  0  0  0.094426  0  3.979196  0  0  0.10201  0  3.998098  0  0  0.0443  0.089046  0  3.967658  0
C  C59  1  0.94787530  0.32137064  0.68589269  1  0  0.126866  0  3.723462  0  0  0.094413  0  3.979243  0  0  0.101989  0  3.998144  0  0  0.044273  0.089027  0  3.967714  0
C  C60  1  0.06835787  0.78610832  0.41336778  1  0  -0.159631  0  3.695699  0  0  -0.174964  0  3.939728  0  0  -0.183372  0  3.962091  0  0  -0.080489  -0.16988  0  3.925733  0
C  C61  1  0.93164500  0.21389064  0.58663480  1  0  -0.159655  0  3.695601  0  0  -0.174971  0  3.939647  0  0  -0.183379  0  3.962013  0  0  -0.080516  -0.169888  0  3.925654  0
C  C62  1  0.45862246  0.29417688  0.35364452  1  0  0.122109  0  3.79096  0  0  0.142986  0  4.027307  0  0  0.144716  0  4.050523  0  0  -0.016229  0.143066  0  4.011039  0
C  C63  1  0.54137720  0.70582205  0.64635444  1  0  0.122177  0  3.790806  0  0  0.143034  0  4.027202  0  0  0.144765  0  4.050419  0  0  -0.0162  0.143115  0  4.010926  0
C  C64  1  0.57195945  0.36411327  0.45653260  1  0  -0.157054  0  3.766205  0  0  -0.178222  0  4.016318  0  0  -0.181577  0  4.036818  0  0  -0.108241  -0.176539  0  4.002379  0
C  C65  1  0.42803965  0.63588453  0.54346618  1  0  -0.157043  0  3.766229  0  0  -0.178213  0  4.016334  0  0  -0.181568  0  4.036835  0  0  -0.108232  -0.176525  0  4.002388  0
C  C66  1  0.72578162  0.37557664  0.45481558  1  0  -0.06866  0  3.814534  0  0  -0.081254  0  4.066101  0  0  -0.082202  0  4.088078  0  0  -0.10233  -0.080187  0  4.05109  0
C  C67  1  0.27421805  0.62442230  0.54518338  1  0  -0.06872  0  3.814605  0  0  -0.0813  0  4.066172  0  0  -0.082248  0  4.088151  0  0  -0.102357  -0.080237  0  4.051161  0
C  C68  1  0.76641264  0.31410719  0.35105688  1  0  -0.14771  0  3.752826  0  0  -0.167571  0  4.001253  0  0  -0.170748  0  4.022291  0  0  -0.103116  -0.164866  0  3.986392  0
C  C69  1  0.23358752  0.68589061  0.64894281  1  0  -0.147721  0  3.7529  0  0  -0.167564  0  4.001328  0  0  -0.170743  0  4.022368  0  0  -0.103123  -0.164862  0  3.986471  0
C  C70  1  0.65322904  0.24120835  0.24763539  1  0  0.126875  0  3.749991  0  0  0.148966  0  3.986413  0  0  0.149777  0  4.010872  0  0  -0.008376  0.148463  0  3.968888  0
C  C71  1  0.34677170  0.75879059  0.75236360  1  0  0.126858  0  3.750134  0  0  0.148953  0  3.986547  0  0  0.149767  0  4.01101  0  0  -0.008366  0.148449  0  3.969021  0
C  C72  1  0.50113517  0.23430733  0.24957059  1  0  -0.173799  0  3.689444  0  0  -0.200922  0  3.933109  0  0  -0.2047  0  3.953458  0  0  -0.093818  -0.19775  0  3.918854  0
C  C73  1  0.49886456  0.76569388  0.75042869  1  0  -0.173813  0  3.68941  0  0  -0.20093  0  3.933089  0  0  -0.204718  0  3.953434  0  0  -0.093836  -0.197757  0  3.918829  0
C  C74  1  0.29103221  0.27637102  0.35578077  1  0  -0.308977  0  3.715961  0  0  -0.354029  0  3.956879  0  0  -0.359247  0  3.963415  0  0  -0.164892  -0.350858  0  3.952685  0
C  C75  1  0.70896632  0.72362564  0.64421784  1  0  -0.308894  0  3.715835  0  0  -0.353961  0  3.956784  0  0  -0.359176  0  3.963321  0  0  -0.164927  -0.350799  0  3.952592  0
C  C76  1  0.24558428  0.35836051  0.27122261  1  0  0.678457  0  3.883661  0  0  0.636365  0  4.178409  0  0  0.669055  0  4.173479  0  0  0.190921  0.613997  0  4.181749  0
C  C77  1  0.75441645  0.64163843  0.72877638  1  0  0.678269  0  3.883756  0  0  0.636189  0  4.178491  0  0  0.668881  0  4.173557  0  0  0.190879  0.613825  0  4.181828  0
C  C78  1  0.69621077  0.17442967  0.13469444  1  0  -0.313239  0  3.678687  0  0  -0.35533  0  3.91661  0  0  -0.360588  0  3.922231  0  0  -0.164072  -0.351355  0  3.912614  0
C  C79  1  0.30378946  0.82557040  0.86530469  1  0  -0.313283  0  3.678701  0  0  -0.355358  0  3.916613  0  0  -0.360624  0  3.922246  0  0  -0.164071  -0.351386  0  3.912618  0
C  C80  1  0.73155401  0.28156217  0.04637281  1  0  0.701368  0  3.85648  0  0  0.657274  0  4.15053  0  0  0.690647  0  4.144765  0  0  0.199766  0.634392  0  4.153659  0
C  C81  1  0.26844622  0.71843790  0.95362633  1  0  0.701353  0  3.856542  0  0  0.657246  0  4.150616  0  0  0.690619  0  4.144854  0  0  0.199757  0.634369  0  4.153741  0
N  N82  1  0.18834490  0.32797482  0.95451753  1  0  -0.330863  0  3.255485  0  0  -0.253032  0  3.518248  0  0  -0.273779  0  3.537517  0  0  -0.328167  -0.238809  0  3.504399  0
N  N83  1  0.81165313  0.67202297  0.04548385  1  0  -0.330947  0  3.255582  0  0  -0.253133  0  3.518342  0  0  -0.27388  0  3.53761  0  0  -0.328196  -0.238904  0  3.504491  0
N  N84  1  0.17615548  0.69366079  0.25170318  1  0  -0.33328  0  3.256862  0  0  -0.254674  0  3.522196  0  0  -0.275348  0  3.54097  0  0  -0.330123  -0.240666  0  3.508499  0
N  N85  1  0.82385017  0.30634160  0.74829732  1  0  -0.333204  0  3.256684  0  0  -0.25458  0  3.522001  0  0  -0.275253  0  3.540779  0  0  -0.330053  -0.240573  0  3.508309  0
O  O86  1  0.09521585  0.30596792  0.23685276  1  0  -0.666806  0  1.943989  0  0  -0.607115  0  2.186257  0  0  -0.634661  0  2.177056  0  0  -0.339222  -0.588275  0  2.192569  0
O  O87  1  0.90478111  0.69402985  0.76314684  1  0  -0.666739  0  1.944105  0  0  -0.607068  0  2.186406  0  0  -0.634608  0  2.177195  0  0  -0.339211  -0.58823  0  2.192719  0
O  O88  1  0.35656574  0.47456642  0.24021171  1  0  -0.640889  0  1.954262  0  0  -0.579967  0  2.193187  0  0  -0.608487  0  2.186283  0  0  -0.326967  -0.560636  0  2.197182  0
O  O89  1  0.64343229  0.52543137  0.75978880  1  0  -0.640825  0  1.954231  0  0  -0.579906  0  2.193156  0  0  -0.60843  0  2.18625  0  0  -0.326939  -0.560571  0  2.197144  0
O  O90  1  0.87904830  0.38593995  0.04976089  1  0  -0.692343  0  2.070815  0  0  -0.613018  0  2.342743  0  0  -0.646412  0  2.331851  0  0  -0.345636  -0.588872  0  2.348405  0
O  O91  1  0.12095143  0.61406125  0.95024015  1  0  -0.692323  0  2.070837  0  0  -0.612993  0  2.342773  0  0  -0.646387  0  2.331883  0  0  -0.345625  -0.588851  0  2.348436  0
O  O92  1  0.61767042  0.27063193  0.97658111  1  0  -0.640093  0  1.886387  0  0  -0.589261  0  2.113386  0  0  -0.614866  0  2.104828  0  0  -0.332019  -0.571322  0  2.118808  0
O  O93  1  0.38233145  0.72936929  0.02341824  1  0  -0.640113  0  1.886417  0  0  -0.589263  0  2.113398  0  0  -0.614876  0  2.104863  0  0  -0.332028  -0.571325  0  2.118817  0
