# generated using pymatgen
data_Tb4H36C57(O11F6)3
_symmetry_space_group_name_H-M   'P 1'
_cell_length_a   7.92275397
_cell_length_b   21.38297355
_cell_length_c   23.00501718
_cell_angle_alpha   82.10291113
_cell_angle_beta   82.76411019
_cell_angle_gamma   79.56444663
_symmetry_Int_Tables_number   1
_chemical_formula_structural   Tb4H36C57(O11F6)3
_chemical_formula_sum   'Tb8 H72 C114 O66 F36'
_cell_volume   3776.02389161
_cell_formula_units_Z   2
loop_
 _symmetry_equiv_pos_site_id
 _symmetry_equiv_pos_as_xyz
  1  'x, y, z'
loop_
 _atom_site_type_symbol
 _atom_site_label
 _atom_site_symmetry_multiplicity
 _atom_site_fract_x
 _atom_site_fract_y
 _atom_site_fract_z
 _atom_site_occupancy
 _atom_site_pbe_bader_charge
 _atom_site_pbe_bader_spin_density
 _atom_site_pbe_cm5_charge
 _atom_site_pbe_ddec_charge
 _atom_site_pbe_ddec_spin_density
 _atom_site_pbe_ddec_sum_bond_order
 _atom_site_pbe_magmom
Tb  Tb0  1  0.72927243  0.09537547  0.53479159  1  2.192653  0  1.532645  2.126136  0  2.152795  0
Tb  Tb1  1  0.96905387  0.24656917  0.59590848  1  2.192561  0  1.515079  2.110503  0  2.114993  0
Tb  Tb2  1  0.68028222  0.57981005  0.21318719  1  2.181303  0  1.498866  2.088624  0  2.140113  0
Tb  Tb3  1  0.12059761  0.52661522  0.06759090  1  2.186104  0  1.521656  2.102997  0  2.074794  0
Tb  Tb4  1  0.27073286  0.90462288  0.46520750  1  2.192633  0  1.532648  2.126203  0  2.152788  0
Tb  Tb5  1  0.03094335  0.75343301  0.40409092  1  2.19242  0  1.515133  2.110565  0  2.114993  0
Tb  Tb6  1  0.31971480  0.42019260  0.78681303  1  2.181177  0  1.498885  2.088658  0  2.140094  0
Tb  Tb7  1  0.87940133  0.47338599  0.93241115  1  2.186083  0  1.52162  2.102992  0  2.074727  0
H  H8  1  0.40832459  0.03149318  0.55497629  1  0.653886  0  0.303536  0.409808  0  0.921709  0
H  H9  1  0.36456089  0.10255490  0.57511721  1  0.648247  0  0.328193  0.420875  0  0.881225  0
H  H10  1  0.89126463  0.95659621  0.57391468  1  0.662062  0  0.305564  0.414328  0  0.909086  0
H  H11  1  0.69468780  0.95463056  0.56880902  1  0.614026  0  0.337251  0.428432  0  0.85063  0
H  H12  1  0.33062171  0.26215360  0.54135949  1  0.66268  0  0.292881  0.406531  0  0.928246  0
H  H13  1  0.32542036  0.26494537  0.61218155  1  0.653698  0  0.297492  0.403241  0  0.929083  0
H  H14  1  0.96689565  0.36945678  0.63779310  1  0.628381  0  0.292789  0.375497  0  0.965577  0
H  H15  1  0.11550154  0.36396243  0.58551646  1  0.607783  0  0.327777  0.418054  0  0.870377  0
H  H16  1  0.59631988  0.31609574  0.61105762  1  0.67463  0  0.304465  0.414704  0  0.91248  0
H  H17  1  0.71389210  0.36491364  0.57538728  1  0.651324  0  0.335825  0.430426  0  0.850012  0
H  H18  1  0.29069892  0.60225426  0.24763131  1  0.649915  0  0.299198  0.397208  0  0.93422  0
H  H19  1  0.31558163  0.57469135  0.18757763  1  0.627852  0  0.309993  0.405819  0  0.919702  0
H  H20  1  0.98566452  0.57965060  0.27729086  1  0.656769  0  0.304617  0.408062  0  0.919178  0
H  H21  1  0.01123854  0.51999627  0.24265816  1  0.626007  0  0.329299  0.419227  0  0.87296  0
H  H22  1  0.49643046  0.50336966  0.30447811  1  0.621682  0  0.338822  0.427662  0  0.854043  0
H  H23  1  0.67341084  0.49728426  0.32934353  1  0.628769  0  0.341802  0.42688  0  0.851037  0
H  H24  1  0.44107632  0.57164058  0.09713916  1  0.623101  0  0.305963  0.395062  0  0.935369  0
H  H25  1  0.50020162  0.53208609  0.04482559  1  0.647405  0  0.306889  0.413352  0  0.910089  0
H  H26  1  0.11006356  0.23670211  0.37945096  1  0.096727  0  0.104405  0.116139  0  1.012797  0
H  H27  1  0.71057340  0.25457530  0.26347726  1  0.083478  0  0.102308  0.10797  0  1.002776  0
H  H28  1  0.49361649  0.25457099  0.35040364  1  0.110047  0  0.095861  0.10254  0  1.039393  0
H  H29  1  0.91843371  0.35888074  0.25463672  1  0.096628  0  0.104491  0.111326  0  1.003349  0
H  H30  1  0.96766358  0.28571702  0.05769341  1  0.099685  0  0.105608  0.114302  0  1.018796  0
H  H31  1  0.06006520  0.20849738  0.14137793  1  0.134345  0  0.101782  0.114315  0  1.016073  0
H  H32  1  0.85483551  0.90386803  0.28486219  1  0.12067  0  0.113246  0.12215  0  1.007773  0
H  H33  1  0.58785928  0.09615366  0.24026471  1  0.089554  0  0.098676  0.107931  0  1.01884  0
H  H34  1  0.65003487  0.12505522  0.33404065  1  0.085408  0  0.101499  0.105951  0  1.021249  0
H  H35  1  0.46416880  0.93317656  0.29094360  1  0.111431  0  0.11204  0.125373  0  1.005837  0
H  H36  1  0.74123968  0.75026997  0.18355902  1  0.130116  0  0.10607  0.111201  0  1.035565  0
H  H37  1  0.79567798  0.85856598  0.14350365  1  0.114481  0  0.098566  0.109835  0  1.015329  0
H  H38  1  0.83288646  0.29026048  0.93447398  1  0.118386  0  0.113428  0.126971  0  1.004026  0
H  H39  1  0.72939596  0.13317447  0.85210608  1  0.10944  0  0.099682  0.113032  0  1.01638  0
H  H40  1  0.83122364  0.18604541  0.75535456  1  0.133051  0  0.111435  0.117521  0  1.017971  0
H  H41  1  0.48119810  0.26914228  0.91111700  1  0.106944  0  0.109952  0.117109  0  1.010182  0
H  H42  1  0.49206413  0.30982966  0.11721852  1  0.097659  0  0.109177  0.117283  0  0.986531  0
H  H43  1  0.66339002  0.21054699  0.08259041  1  0.067846  0  0.101407  0.112228  0  1.011416  0
H  H44  1  0.59167731  0.96850708  0.44502358  1  0.653861  0  0.303508  0.409793  0  0.921734  0
H  H45  1  0.63544864  0.89744536  0.42488189  1  0.648188  0  0.328218  0.420883  0  0.881215  0
H  H46  1  0.10873960  0.04340453  0.42608502  1  0.662077  0  0.305537  0.414243  0  0.909176  0
H  H47  1  0.30531306  0.04537208  0.43119581  1  0.613911  0  0.337278  0.428487  0  0.850424  0
H  H48  1  0.66938020  0.73784665  0.45864169  1  0.662701  0  0.292818  0.406368  0  0.928448  0
H  H49  1  0.67458217  0.73505632  0.38781855  1  0.65372  0  0.297539  0.403298  0  0.929019  0
H  H50  1  0.03310393  0.63054299  0.36220867  1  0.628476  0  0.29283  0.375556  0  0.965498  0
H  H51  1  0.88450463  0.63603686  0.41448682  1  0.607783  0  0.32781  0.418108  0  0.8703  0
H  H52  1  0.40368054  0.68390499  0.38894355  1  0.674664  0  0.304437  0.414644  0  0.912561  0
H  H53  1  0.28610427  0.63508758  0.42461184  1  0.651271  0  0.335792  0.430381  0  0.850068  0
H  H54  1  0.70929938  0.39774552  0.75237008  1  0.649913  0  0.299176  0.397186  0  0.934252  0
H  H55  1  0.68441307  0.42530795  0.81242398  1  0.627894  0  0.310013  0.405828  0  0.919678  0
H  H56  1  0.01433019  0.42034870  0.72271162  1  0.656909  0  0.304583  0.408021  0  0.919242  0
H  H57  1  0.98875446  0.48000399  0.75734297  1  0.62596  0  0.329277  0.419208  0  0.872996  0
H  H58  1  0.50356167  0.49662964  0.69552101  1  0.621868  0  0.338805  0.427665  0  0.854045  0
H  H59  1  0.32658109  0.50271552  0.67065640  1  0.62879  0  0.341837  0.426922  0  0.850992  0
H  H60  1  0.55892176  0.42835968  0.90286088  1  0.623005  0  0.305971  0.395094  0  0.935324  0
H  H61  1  0.49980283  0.46791417  0.95517547  1  0.647392  0  0.306889  0.413379  0  0.910063  0
H  H62  1  0.88995001  0.76328906  0.62054475  1  0.096774  0  0.104419  0.116093  0  1.01289  0
H  H63  1  0.28942042  0.74542879  0.73652205  1  0.083537  0  0.102337  0.108001  0  1.002693  0
H  H64  1  0.50638011  0.74542975  0.64959684  1  0.110069  0  0.09585  0.102528  0  1.039403  0
H  H65  1  0.08156862  0.64112143  0.74536550  1  0.096816  0  0.104487  0.111337  0  1.003438  0
H  H66  1  0.03232578  0.71429138  0.94230729  1  0.099902  0  0.105635  0.114364  0  1.018951  0
H  H67  1  0.93992053  0.79150768  0.85861900  1  0.134173  0  0.101754  0.114194  0  1.01634  0
H  H68  1  0.14516043  0.09613128  0.71513588  1  0.121021  0  0.11321  0.122108  0  1.007631  0
H  H69  1  0.41212353  0.90384374  0.75973549  1  0.089076  0  0.098619  0.10786  0  1.018961  0
H  H70  1  0.34995281  0.87494265  0.66595797  1  0.085364  0  0.10155  0.106003  0  1.021178  0
H  H71  1  0.53581864  0.06682467  0.70905243  1  0.111249  0  0.112056  0.125419  0  1.005849  0
H  H72  1  0.25876924  0.24972884  0.81644333  1  0.130154  0  0.106033  0.111129  0  1.035593  0
H  H73  1  0.20432584  0.14143284  0.85649719  1  0.114495  0  0.098513  0.109694  0  1.015302  0
H  H74  1  0.16714158  0.70973258  0.06552955  1  0.118569  0  0.113426  0.126922  0  1.003976  0
H  H75  1  0.27060896  0.86682194  0.14789892  1  0.115369  0  0.099716  0.113105  0  1.016372  0
H  H76  1  0.16877618  0.81395101  0.24465023  1  0.133071  0  0.11147  0.117573  0  1.018024  0
H  H77  1  0.51881100  0.73086180  0.08888251  1  0.106938  0  0.109942  0.117082  0  1.010122  0
H  H78  1  0.50792378  0.69017059  0.88278414  1  0.097677  0  0.109158  0.117256  0  0.986601  0
H  H79  1  0.33660361  0.78945470  0.91741095  1  0.067805  0  0.101402  0.112203  0  1.011443  0
C  C80  1  0.54451536  0.23042455  0.46521511  1  1.628112  0  0.22429  0.628317  0  4.193754  0
C  C81  1  0.67907231  0.23930609  0.41354712  1  -0.053215  0  0.005928  -0.025421  0  3.917709  0
C  C82  1  0.85376941  0.23681628  0.42064694  1  0.042635  0  -0.005269  -0.041704  0  3.94142  0
C  C83  1  0.97653971  0.23923085  0.37134998  1  0.00556  0  -0.083029  -0.132667  0  3.92668  0
C  C84  1  0.92840804  0.24274472  0.31439745  1  -0.052019  0  -0.02348  0.063442  0  3.972523  0
C  C85  1  0.75225654  0.24950677  0.30749467  1  -0.061038  0  -0.086223  -0.112224  0  3.973577  0
C  C86  1  0.62961143  0.24890958  0.35638168  1  -0.00908  0  -0.089934  -0.107577  0  3.992792  0
C  C87  1  0.90935633  0.23275836  0.48078174  1  1.526313  0  0.213422  0.613506  0  4.183369  0
C  C88  1  0.05843417  0.23396984  0.25938323  1  0.046747  0  -0.009474  -0.267174  0  3.860671  0
C  C89  1  0.99810847  0.27825551  0.20475232  1  -0.040835  0  -0.015772  0.084119  0  3.964034  0
C  C90  1  0.93438857  0.34268937  0.21109420  1  -0.025058  0  -0.082914  -0.144627  0  3.925227  0
C  C91  1  0.89307879  0.38739873  0.16253903  1  -0.038164  0  0.006097  -0.008191  0  3.887195  0
C  C92  1  0.90575998  0.36635022  0.10666482  1  0.029858  0  0.003799  -0.030942  0  3.915886  0
C  C93  1  0.96033600  0.30140465  0.10106210  1  0.000287  0  -0.075875  -0.075574  0  3.961875  0
C  C94  1  0.01086189  0.25786738  0.14883928  1  -0.048944  0  -0.090704  -0.12918  0  3.970553  0
C  C95  1  0.83343359  0.45527713  0.17563326  1  1.552618  0  0.223425  0.638528  0  4.143409  0
C  C96  1  0.87515080  0.40905341  0.05080720  1  1.571889  0  0.21661  0.621517  0  4.176721  0
C  C97  1  0.23895940  0.24849204  0.26778067  1  1.719162  0  0.304838  0.679609  0  3.958163  0
C  C98  1  0.08087278  0.16174196  0.24990462  1  1.730476  0  0.301063  0.674583  0  3.977011  0
C  C99  1  0.78790333  0.04820652  0.42328739  1  1.564405  0  0.214893  0.598969  0  4.204069  0
C  C100  1  0.78874129  0.03166427  0.36208828  1  -0.045978  0  -0.000845  -0.021566  0  3.91673  0
C  C101  1  0.84687354  0.96917928  0.34752674  1  0.043185  0  -0.011319  -0.058739  0  3.94725  0
C  C102  1  0.81183691  0.95313134  0.29408449  1  -0.083711  0  -0.075588  -0.115572  0  3.914895  0
C  C103  1  0.71580607  0.99743876  0.25527999  1  0.025184  0  -0.01383  0.078867  0  3.949955  0
C  C104  1  0.66143518  0.05999481  0.26952359  1  0.019962  0  -0.085682  -0.10801  0  3.953981  0
C  C105  1  0.69770147  0.07674307  0.32254825  1  -0.01825  0  -0.085037  -0.091166  0  3.954025  0
C  C106  1  0.92921842  0.91762550  0.39092333  1  1.567151  0  0.237042  0.642371  0  4.179557  0
C  C107  1  0.67494450  0.97363680  0.19922747  1  0.055253  0  -0.011951  -0.270562  0  3.851497  0
C  C108  1  0.63838366  0.90459094  0.21507112  1  -0.096272  0  -0.012236  0.084159  0  3.947328  0
C  C109  1  0.52581696  0.89387984  0.26612037  1  0.02423  0  -0.079658  -0.133761  0  3.925701  0
C  C110  1  0.49110743  0.83306684  0.28788475  1  -0.028875  0  -0.0066  -0.045123  0  3.934209  0
C  C111  1  0.57388879  0.77998662  0.25905881  1  -0.018462  0  -0.003824  -0.047991  0  3.913838  0
C  C112  1  0.67833608  0.79111426  0.20629497  1  -0.010012  0  -0.080264  -0.07933  0  3.93621  0
C  C113  1  0.71056484  0.85263482  0.18412802  1  -0.042754  0  -0.085839  -0.112743  0  3.941788  0
C  C114  1  0.35578845  0.82920075  0.33930572  1  1.578032  0  0.244177  0.666043  0  4.142002  0
C  C115  1  0.56896674  0.71231614  0.28689204  1  1.596598  0  0.239477  0.652381  0  4.138531  0
C  C116  1  0.83368709  0.97992685  0.15302632  1  1.738395  0  0.300119  0.6767  0  3.983188  0
C  C117  1  0.51108087  0.01417421  0.17347664  1  1.720709  0  0.300355  0.677069  0  3.975329  0
C  C118  1  0.94077717  0.29765957  0.72888327  1  1.579589  0  0.238956  0.62982  0  4.134948  0
C  C119  1  0.88976452  0.26691723  0.78952877  1  -0.036891  0  -0.00713  -0.059182  0  3.940104  0
C  C120  1  0.88994071  0.29588819  0.84083752  1  -0.015956  0  -0.007275  -0.04318  0  3.952892  0
C  C121  1  0.83298074  0.26621972  0.89567066  1  -0.035406  0  -0.081608  -0.144855  0  3.918004  0
C  C122  1  0.77457369  0.20727046  0.90111844  1  -0.055622  0  -0.010529  0.091581  0  3.939897  0
C  C123  1  0.77474753  0.17851488  0.85012444  1  0.007934  0  -0.087512  -0.12504  0  3.955295  0
C  C124  1  0.83292454  0.20801275  0.79517997  1  -0.02314  0  -0.073898  -0.064755  0  3.932973  0
C  C125  1  0.96195098  0.35612295  0.84007299  1  1.613567  0  0.241692  0.651268  0  4.172179  0
C  C126  1  0.70948751  0.17965642  0.96379725  1  0.066222  0  -0.009905  -0.270975  0  3.845762  0
C  C127  1  0.58951737  0.23379953  0.99341620  1  -0.076055  0  -0.014303  0.088216  0  3.954381  0
C  C128  1  0.48411553  0.27721869  0.95662716  1  -0.036231  0  -0.082835  -0.140564  0  3.946493  0
C  C129  1  0.38928550  0.33319964  0.97583513  1  -0.007618  0  -0.002747  -0.040182  0  3.918031  0
C  C130  1  0.39631631  0.34565297  0.03383722  1  -0.027588  0  -0.000443  -0.025731  0  3.92421  0
C  C131  1  0.48915040  0.29979391  0.07221133  1  0.019799  0  -0.071655  -0.064111  0  3.933488  0
C  C132  1  0.58634330  0.24413205  0.05232034  1  0.059846  0  -0.087902  -0.126862  0  3.956478  0
C  C133  1  0.28753838  0.37800230  0.93172257  1  1.61115  0  0.249675  0.681037  0  4.108542  0
C  C134  1  0.32275066  0.41023458  0.05119096  1  1.54314  0  0.198545  0.582983  0  4.201449  0
C  C135  1  0.87248153  0.15272637  0.99671011  1  1.718367  0  0.300736  0.675834  0  3.983459  0
C  C136  1  0.60385524  0.12466941  0.96430626  1  1.720755  0  0.30085  0.679699  0  3.97513  0
C  C137  1  0.45550988  0.76956900  0.53478283  1  1.628489  0  0.224441  0.628524  0  4.193791  0
C  C138  1  0.32093276  0.76069560  0.58645242  1  -0.053296  0  0.005919  -0.025547  0  3.917642  0
C  C139  1  0.14623654  0.76318062  0.57935491  1  0.042648  0  -0.005285  -0.041811  0  3.941788  0
C  C140  1  0.02346282  0.76076511  0.62864692  1  0.005486  0  -0.082956  -0.132563  0  3.926661  0
C  C141  1  0.07159681  0.75725172  0.68559973  1  -0.051636  0  -0.02352  0.06362  0  3.972405  0
C  C142  1  0.24774214  0.75049493  0.69250212  1  -0.061061  0  -0.08621  -0.112273  0  3.973705  0
C  C143  1  0.37038749  0.75109164  0.64361907  1  -0.009167  0  -0.090011  -0.107614  0  3.992921  0
C  C144  1  0.09064981  0.76724094  0.51921720  1  1.525822  0  0.213471  0.613659  0  4.18333  0
C  C145  1  0.94156321  0.76602900  0.74060832  1  0.046422  0  -0.009589  -0.267384  0  3.860631  0
C  C146  1  0.00187876  0.72174620  0.79524497  1  -0.040993  0  -0.015632  0.084318  0  3.963807  0
C  C147  1  0.06560761  0.65731232  0.78890791  1  -0.026025  0  -0.082923  -0.144747  0  3.925469  0
C  C148  1  0.10692120  0.61260297  0.83746162  1  -0.037779  0  0.006009  -0.008268  0  3.887308  0
C  C149  1  0.09423703  0.63365244  0.89333583  1  0.030434  0  0.00386  -0.03083  0  3.915729  0
C  C150  1  0.03965805  0.69859896  0.89893900  1  0.000163  0  -0.075904  -0.075663  0  3.96197  0
C  C151  1  0.98912578  0.74213624  0.85116036  1  -0.048917  0  -0.090735  -0.129138  0  3.970724  0
C  C152  1  0.16656621  0.54472504  0.82437081  1  1.553015  0  0.22347  0.638533  0  4.143359  0
C  C153  1  0.12484833  0.59095307  0.94919418  1  1.571591  0  0.216546  0.621493  0  4.176767  0
C  C154  1  0.76103248  0.75150488  0.73221310  1  1.718779  0  0.304892  0.67986  0  3.957805  0
C  C155  1  0.91912268  0.83825833  0.75008684  1  1.730502  0  0.300918  0.674343  0  3.976911  0
C  C156  1  0.21210153  0.95179278  0.57671073  1  1.564029  0  0.214905  0.598847  0  4.204127  0
C  C157  1  0.21126122  0.96833456  0.63790870  1  -0.045769  0  -0.00082  -0.0215  0  3.916771  0
C  C158  1  0.15312536  0.03082195  0.65246966  1  0.04303  0  -0.011277  -0.0586  0  3.947241  0
C  C159  1  0.18816646  0.04686557  0.70591313  1  -0.084146  0  -0.075538  -0.115543  0  3.914799  0
C  C160  1  0.28418925  0.00255911  0.74471960  1  0.025432  0  -0.013903  0.078718  0  3.949929  0
C  C161  1  0.33855846  0.94000114  0.73047675  1  0.019955  0  -0.08563  -0.10788  0  3.953932  0
C  C162  1  0.30228853  0.92325815  0.67745072  1  -0.017811  0  -0.085072  -0.091285  0  3.954208  0
C  C163  1  0.07079467  0.08237525  0.60907076  1  1.566984  0  0.237103  0.642336  0  4.179791  0
C  C164  1  0.32504825  0.02636395  0.80076970  1  0.055402  0  -0.011922  -0.270431  0  3.851382  0
C  C165  1  0.36160825  0.09540884  0.78492707  1  -0.09634  0  -0.012224  0.084115  0  3.947504  0
C  C166  1  0.47417517  0.10611946  0.73387875  1  0.024806  0  -0.079639  -0.133838  0  3.925742  0
C  C167  1  0.50888937  0.16693342  0.71211447  1  -0.029242  0  -0.006647  -0.045018  0  3.934079  0
C  C168  1  0.42611926  0.22001412  0.74094159  1  -0.01829  0  -0.003807  -0.048141  0  3.914064  0
C  C169  1  0.32166942  0.20888647  0.79370468  1  -0.014115  0  -0.080235  -0.079214  0  3.936104  0
C  C170  1  0.28943875  0.14736448  0.81587146  1  -0.03884  0  -0.085752  -0.112587  0  3.941585  0
C  C171  1  0.64421111  0.17079616  0.66069206  1  1.578088  0  0.244113  0.665794  0  4.142025  0
C  C172  1  0.43103516  0.28768411  0.71310913  1  1.596627  0  0.239563  0.652565  0  4.138289  0
C  C173  1  0.16630481  0.02007582  0.84697108  1  1.738359  0  0.300275  0.677131  0  3.982739  0
C  C174  1  0.48890680  0.98582654  0.82652162  1  1.720825  0  0.300327  0.677112  0  3.975269  0
C  C175  1  0.05922094  0.70233781  0.27112061  1  1.579991  0  0.238867  0.629692  0  4.135049  0
C  C176  1  0.11024273  0.73307966  0.21047650  1  -0.036973  0  -0.007107  -0.059352  0  3.940393  0
C  C177  1  0.11007714  0.70410775  0.15916566  1  -0.01635  0  -0.007299  -0.043112  0  3.952977  0
C  C178  1  0.16703903  0.73377478  0.10433393  1  -0.035789  0  -0.081665  -0.144894  0  3.918009  0
C  C179  1  0.22544587  0.79272451  0.09888610  1  -0.055398  0  -0.010374  0.091728  0  3.939661  0
C  C180  1  0.22526142  0.82148106  0.14988088  1  0.002118  0  -0.087599  -0.125219  0  3.955381  0
C  C181  1  0.16708546  0.79198367  0.20482394  1  -0.023289  0  -0.073932  -0.064716  0  3.933166  0
C  C182  1  0.03805095  0.64387443  0.15993028  1  1.613735  0  0.24175  0.65125  0  4.17226  0
C  C183  1  0.29052229  0.82034334  0.03620885  1  0.066214  0  -0.009831  -0.270621  0  3.8455  0
C  C184  1  0.41048919  0.76620169  0.00658334  1  -0.075987  0  -0.014268  0.088134  0  3.954203  0
C  C185  1  0.51589590  0.72278300  0.04337167  1  -0.029932  0  -0.082835  -0.140576  0  3.946383  0
C  C186  1  0.61071575  0.66680206  0.02416415  1  -0.013836  0  -0.002773  -0.040132  0  3.917852  0
C  C187  1  0.60368302  0.65435016  0.96616153  1  -0.026751  0  -0.000507  -0.025776  0  3.924165  0
C  C188  1  0.51084406  0.70020874  0.92778856  1  0.01988  0  -0.071587  -0.063975  0  3.93346  0
C  C189  1  0.41365518  0.75587012  0.94767857  1  0.059722  0  -0.087883  -0.12685  0  3.956527  0
C  C190  1  0.71246881  0.62199748  0.06827626  1  1.611164  0  0.249702  0.680959  0  4.108576  0
C  C191  1  0.67724296  0.58976999  0.94881003  1  1.542175  0  0.19853  0.582813  0  4.201534  0
C  C192  1  0.12751977  0.84727244  0.00329518  1  1.718589  0  0.300649  0.675796  0  3.982989  0
C  C193  1  0.39614435  0.87533036  0.03569812  1  1.721533  0  0.300828  0.679645  0  3.97532  0
O  O194  1  0.53990724  0.17201384  0.48713622  1  -1.1952  0  -0.43723  -0.707875  0  2.268548  0
O  O195  1  0.45697083  0.06693500  0.56749003  1  -1.273665  0  -0.650798  -0.852353  0  2.108282  0
O  O196  1  0.44476631  0.27850491  0.48189388  1  -1.159264  0  -0.301568  -0.510058  0  2.100537  0
O  O197  1  0.77310173  0.98236541  0.57558849  1  -1.242581  0  -0.620584  -0.831086  0  2.004416  0
O  O198  1  0.84452480  0.19553893  0.52352008  1  -1.202676  0  -0.416134  -0.754863  0  2.406283  0
O  O199  1  0.25947421  0.25529988  0.58134422  1  -1.312463  0  -0.671342  -0.906353  0  2.067879  0
O  O200  1  0.01536959  0.26709905  0.49050246  1  -1.156823  0  -0.371311  -0.594221  0  2.113366  0
O  O201  1  0.99150642  0.36505110  0.59483820  1  -1.231563  0  -0.61417  -0.827756  0  1.995151  0
O  O202  1  0.69507586  0.46735668  0.20968538  1  -1.174441  0  -0.385444  -0.640811  0  2.15963  0
O  O203  1  0.70377009  0.31988090  0.58378260  1  -1.2874  0  -0.630671  -0.838057  0  2.02051  0
O  O204  1  0.92399444  0.49958828  0.15698290  1  -1.200043  0  -0.385453  -0.735377  0  2.34419  0
O  O205  1  0.37638126  0.57418205  0.22270604  1  -1.267221  0  -0.637726  -0.847029  0  2.035382  0
O  O206  1  0.93451486  0.46199228  0.04147966  1  -1.191924  0  -0.420709  -0.718787  0  2.43463  0
O  O207  1  0.92919818  0.54334859  0.27084711  1  -1.254683  0  -0.620917  -0.827195  0  1.967326  0
O  O208  1  0.80291687  0.39124750  0.01137031  1  -1.165496  0  -0.361943  -0.603037  0  2.177974  0
O  O209  1  0.57936728  0.52831100  0.31359793  1  -1.199523  0  -0.598267  -0.80051  0  1.980808  0
O  O210  1  0.89409265  0.08014057  0.43789529  1  -1.199083  0  -0.352613  -0.628678  0  2.226095  0
O  O211  1  0.41138415  0.53650638  0.07927299  1  -1.252387  0  -0.645596  -0.851015  0  2.104805  0
O  O212  1  0.66308039  0.03282778  0.46031573  1  -1.18286  0  -0.352624  -0.626569  0  2.266124  0
O  O213  1  0.99931968  0.93442698  0.43172620  1  -1.189735  0  -0.392106  -0.661128  0  2.310282  0
O  O214  1  0.91583456  0.86020097  0.38559991  1  -1.196763  0  -0.400091  -0.676362  0  2.302527  0
O  O215  1  0.34425452  0.86912251  0.37626624  1  -1.19774  0  -0.419688  -0.675938  0  2.320444  0
O  O216  1  0.25466754  0.78922462  0.34077819  1  -1.183863  0  -0.393837  -0.662765  0  2.346706  0
O  O217  1  0.57571645  0.69956393  0.34213473  1  -1.176513  0  -0.300983  -0.569032  0  2.204179  0
O  O218  1  0.56610105  0.67006287  0.25283135  1  -1.211445  0  -0.439373  -0.701053  0  2.306965  0
O  O219  1  0.01478547  0.26137070  0.69108166  1  -1.190711  0  -0.388362  -0.638539  0  2.29386  0
O  O220  1  0.90230843  0.35920726  0.71688714  1  -1.213886  0  -0.30677  -0.592857  0  2.189252  0
O  O221  1  0.11945386  0.35448603  0.82128209  1  -1.193826  0  -0.394077  -0.665051  0  2.378585  0
O  O222  1  0.86162025  0.40426209  0.85963898  1  -1.214224  0  -0.373229  -0.663816  0  2.305066  0
O  O223  1  0.37465806  0.39316651  0.88193499  1  -1.20756  0  -0.423546  -0.703856  0  2.309263  0
O  O224  1  0.12848036  0.39497352  0.94357531  1  -1.189976  0  -0.365564  -0.633073  0  2.317294  0
O  O225  1  0.33041979  0.45800965  0.01064498  1  -1.174785  0  -0.370178  -0.618925  0  2.291067  0
O  O226  1  0.25196542  0.41849117  0.10278923  1  -1.167208  0  -0.37181  -0.613744  0  2.165559  0
O  O227  1  0.46010418  0.82798786  0.51286131  1  -1.195297  0  -0.437412  -0.708141  0  2.268263  0
O  O228  1  0.54303320  0.93306334  0.43251042  1  -1.273582  0  -0.650817  -0.852346  0  2.108217  0
O  O229  1  0.55523240  0.72149678  0.51810595  1  -1.159522  0  -0.301492  -0.509886  0  2.101258  0
O  O230  1  0.22690463  0.01763628  0.42441318  1  -1.242462  0  -0.620595  -0.831085  0  2.004275  0
O  O231  1  0.15547918  0.80446229  0.47647610  1  -1.20253  0  -0.416225  -0.754943  0  2.406027  0
O  O232  1  0.74052768  0.74470325  0.41865529  1  -1.312415  0  -0.671298  -0.906258  0  2.067922  0
O  O233  1  0.98464948  0.73289690  0.50949415  1  -1.156581  0  -0.371307  -0.594292  0  2.113612  0
O  O234  1  0.00849995  0.63494772  0.40516339  1  -1.231639  0  -0.614229  -0.827867  0  1.995017  0
O  O235  1  0.30492223  0.53264645  0.79031734  1  -1.174207  0  -0.385404  -0.640802  0  2.15963  0
O  O236  1  0.29623416  0.68011983  0.41622015  1  -1.287319  0  -0.630623  -0.837971  0  2.020535  0
O  O237  1  0.07599726  0.50041485  0.84301706  1  -1.20053  0  -0.385518  -0.73536  0  2.344164  0
O  O238  1  0.62361788  0.42581869  0.77729389  1  -1.267269  0  -0.637727  -0.847022  0  2.035388  0
O  O239  1  0.06548913  0.53801181  0.95851920  1  -1.191567  0  -0.42066  -0.718716  0  2.434449  0
O  O240  1  0.07079608  0.45665167  0.72915396  1  -1.254745  0  -0.620862  -0.827143  0  1.967352  0
O  O241  1  0.19708376  0.60875275  0.98863092  1  -1.165577  0  -0.361923  -0.603065  0  2.178074  0
O  O242  1  0.42062465  0.47168878  0.68640201  1  -1.199709  0  -0.598276  -0.800535  0  1.98081  0
O  O243  1  0.10590435  0.91985922  0.56210182  1  -1.19896  0  -0.352662  -0.628683  0  2.226036  0
O  O244  1  0.58861818  0.46349292  0.92072785  1  -1.25227  0  -0.645597  -0.851076  0  2.10478  0
O  O245  1  0.33691959  0.96717105  0.53968223  1  -1.182739  0  -0.352638  -0.626522  0  2.266178  0
O  O246  1  0.00069785  0.06557808  0.56826629  1  -1.189649  0  -0.392139  -0.66106  0  2.310316  0
O  O247  1  0.08417220  0.13979977  0.61439795  1  -1.196639  0  -0.400116  -0.676397  0  2.302527  0
O  O248  1  0.65574462  0.13087823  0.62373325  1  -1.197857  0  -0.419635  -0.675799  0  2.320766  0
O  O249  1  0.74534220  0.21077515  0.65922096  1  -1.183863  0  -0.393814  -0.662661  0  2.346401  0
O  O250  1  0.42429309  0.30043632  0.65786611  1  -1.176434  0  -0.301023  -0.569082  0  2.204105  0
O  O251  1  0.43390319  0.32993786  0.74717010  1  -1.21148  0  -0.439448  -0.701158  0  2.306774  0
O  O252  1  0.98520562  0.73862812  0.30892017  1  -1.190798  0  -0.388293  -0.638434  0  2.293712  0
O  O253  1  0.09768841  0.64079012  0.28311723  1  -1.214102  0  -0.306791  -0.592821  0  2.189221  0
O  O254  1  0.88054465  0.64551614  0.17871942  1  -1.193897  0  -0.39416  -0.66504  0  2.37855  0
O  O255  1  0.13837659  0.59573529  0.14036408  1  -1.214238  0  -0.373215  -0.663828  0  2.305288  0
O  O256  1  0.62534426  0.60683279  0.11806411  1  -1.207481  0  -0.423565  -0.703839  0  2.309179  0
O  O257  1  0.87151559  0.60502579  0.05642320  1  -1.190086  0  -0.365506  -0.632965  0  2.317443  0
O  O258  1  0.66958187  0.54199397  0.98935317  1  -1.174743  0  -0.370151  -0.618838  0  2.291227  0
O  O259  1  0.74803137  0.58151197  0.89721050  1  -1.167181  0  -0.371814  -0.613697  0  2.16531  0
F  F260  1  0.32553840  0.20246143  0.30593773  1  -0.622591  0  -0.089611  -0.207237  0  1.345787  0
F  F261  1  0.34400146  0.25209053  0.21639710  1  -0.62184  0  -0.093264  -0.199327  0  1.327095  0
F  F262  1  0.22527679  0.30544992  0.28973741  1  -0.618631  0  -0.092152  -0.196827  0  1.29755  0
F  F263  1  0.10744342  0.12217576  0.30046224  1  -0.618029  0  -0.095393  -0.195939  0  1.342823  0
F  F264  1  0.21663321  0.14462361  0.20940911  1  -0.607563  0  -0.098309  -0.212504  0  1.380648  0
F  F265  1  0.93697294  0.14906811  0.23026715  1  -0.619528  0  -0.087242  -0.191725  0  1.3546  0
F  F266  1  0.97293054  0.93607205  0.16882279  1  -0.625647  0  -0.090452  -0.199356  0  1.365387  0
F  F267  1  0.88097041  0.03842862  0.14962411  1  -0.612195  0  -0.102298  -0.203415  0  1.352149  0
F  F268  1  0.80545800  0.97122095  0.09794071  1  -0.608601  0  -0.0964  -0.195163  0  1.353137  0
F  F269  1  0.46214194  0.98614627  0.13029961  1  -0.610523  0  -0.10211  -0.206535  0  1.359761  0
F  F270  1  0.53378175  0.07456872  0.14981972  1  -0.609486  0  -0.09827  -0.200053  0  1.334895  0
F  F271  1  0.37548166  0.01999468  0.21618595  1  -0.622134  0  -0.095957  -0.19974  0  1.349309  0
F  F272  1  0.98987616  0.11321870  0.96465193  1  -0.613626  0  -0.098995  -0.203558  0  1.374678  0
F  F273  1  0.83631604  0.11951848  0.05014397  1  -0.612582  0  -0.096034  -0.202627  0  1.380836  0
F  F274  1  0.95373332  0.20110388  0.00628940  1  -0.620954  0  -0.089807  -0.199239  0  1.334221  0
F  F275  1  0.52713975  0.10847284  0.01911434  1  -0.610684  0  -0.103085  -0.205446  0  1.332012  0
F  F276  1  0.70178636  0.07050571  0.94592675  1  -0.607727  0  -0.096156  -0.1963  0  1.332533  0
F  F277  1  0.47507655  0.14372588  0.92828672  1  -0.616775  0  -0.092903  -0.199245  0  1.341569  0
F  F278  1  0.67447339  0.79753359  0.69404975  1  -0.622302  0  -0.089597  -0.207282  0  1.345922  0
F  F279  1  0.65596876  0.74791216  0.78359473  1  -0.621513  0  -0.093256  -0.19936  0  1.32691  0
F  F280  1  0.77472765  0.69454460  0.71026002  1  -0.618869  0  -0.092223  -0.196939  0  1.297443  0
F  F281  1  0.89255461  0.87781878  0.69952896  1  -0.618299  0  -0.095261  -0.19579  0  1.342932  0
F  F282  1  0.78335229  0.85537907  0.79058422  1  -0.607278  0  -0.098287  -0.212461  0  1.380409  0
F  F283  1  0.06302382  0.85093216  0.76972642  1  -0.619384  0  -0.087233  -0.19168  0  1.354593  0
F  F284  1  0.02705861  0.06392535  0.83117452  1  -0.625831  0  -0.09044  -0.199437  0  1.365437  0
F  F285  1  0.11902579  0.96157307  0.85037974  1  -0.612185  0  -0.102362  -0.203602  0  1.352118  0
F  F286  1  0.19452922  0.02878650  0.90205672  1  -0.608405  0  -0.096516  -0.195315  0  1.353011  0
F  F287  1  0.53784173  0.01385207  0.86970261  1  -0.610407  0  -0.102157  -0.206595  0  1.359616  0
F  F288  1  0.46621163  0.92543060  0.85017630  1  -0.609524  0  -0.098269  -0.200091  0  1.334893  0
F  F289  1  0.62450730  0.98000893  0.78381667  1  -0.622536  0  -0.0959  -0.199728  0  1.349445  0
F  F290  1  0.01010322  0.88676955  0.03536783  1  -0.613545  0  -0.09897  -0.203629  0  1.374302  0
F  F291  1  0.16368082  0.88049611  0.94986866  1  -0.612502  0  -0.095961  -0.202586  0  1.380766  0
F  F292  1  0.04629467  0.79888920  0.99370674  1  -0.621095  0  -0.089866  -0.19929  0  1.334125  0
F  F293  1  0.47285199  0.89152741  0.98088902  1  -0.61104  0  -0.103073  -0.205434  0  1.331964  0
F  F294  1  0.29820455  0.92949072  0.05407800  1  -0.60815  0  -0.096155  -0.196306  0  1.332666  0
F  F295  1  0.52493173  0.85627436  0.07171635  1  -0.61685  0  -0.092953  -0.199319  0  1.341612  0
