# generated using pymatgen
data_Al2H10C21O10
_symmetry_space_group_name_H-M   'P 1'
_cell_length_a   6.84683102
_cell_length_b   16.86115787
_cell_length_c   18.36554334
_cell_angle_alpha   74.26059687
_cell_angle_beta   89.57795339
_cell_angle_gamma   90.73169543
_symmetry_Int_Tables_number   1
_chemical_formula_structural   Al2H10C21O10
_chemical_formula_sum   'Al4 H20 C42 O20'
_cell_volume   2040.42698153
_cell_formula_units_Z   2
loop_
 _symmetry_equiv_pos_site_id
 _symmetry_equiv_pos_as_xyz
  1  'x, y, z'
loop_
 _atom_site_type_symbol
 _atom_site_label
 _atom_site_symmetry_multiplicity
 _atom_site_fract_x
 _atom_site_fract_y
 _atom_site_fract_z
 _atom_site_occupancy
 _atom_site_pbe_bader_charge
 _atom_site_pbe_bader_spin_density
 _atom_site_pbe_cm5_charge
 _atom_site_pbe_ddec_charge
 _atom_site_pbe_ddec_spin_density
 _atom_site_pbe_ddec_sum_bond_order
 _atom_site_pbe_magmom
Al  Al0  1  0.12212356  0.49812613  0.49968797  1  2.504694  0  0.410565  1.641369  0  2.557969  0
Al  Al1  1  0.62254787  0.49852934  0.50081467  1  2.505861  0  0.409293  1.644228  0  2.562408  0
Al  Al2  1  0.60721737  0.99824472  0.99961606  1  2.503403  0  0.410038  1.643811  0  2.55902  0
Al  Al3  1  0.10684899  0.99825009  0.99852012  1  2.506405  0  0.409588  1.646352  0  2.562295  0
H  H4  1  0.56739356  0.68884501  0.31860625  1  0.127379  0  0.102601  0.098309  0  1.083558  0
H  H5  1  0.30472209  0.85017565  0.20551674  1  0.047814  0  0.10681  0.121572  0  0.96946  0
H  H6  1  0.30662031  0.77751823  0.15081401  1  0.049039  0  0.102432  0.113174  0  0.974889  0
H  H7  1  0.08577661  0.26832239  0.66098786  1  0.093903  0  0.1072  0.109792  0  1.005723  0
H  H8  1  0.08278086  0.14890936  0.77576217  1  0.080894  0  0.108705  0.110955  0  1.005488  0
H  H9  1  0.83658890  0.19453583  0.80836779  1  0.070726  0  0.098902  0.114825  0  1.01474  0
H  H10  1  0.75635348  0.25392026  0.86924378  1  0.041905  0  0.099838  0.115931  0  0.979663  0
H  H11  1  0.83890522  0.32188837  0.69904997  1  0.07054  0  0.104646  0.092058  0  0.987377  0
H  H12  1  0.48123219  0.45191563  0.74300136  1  0.056709  0  0.098143  0.100518  0  1.015121  0
H  H13  1  0.54164048  0.56866468  0.79828555  1  0.062521  0  0.098825  0.094115  0  0.997008  0
H  H14  1  0.86071288  0.58296631  0.85812806  1  0.044834  0  0.09568  0.091916  0  1.006277  0
H  H15  1  0.12409634  0.48179731  0.85820400  1  0.04539  0  0.098583  0.095638  0  0.999888  0
H  H16  1  0.06349373  0.36551144  0.80224796  1  0.063192  0  0.097861  0.099291  0  1.0123  0
H  H17  1  0.55046547  0.80732449  0.20187360  1  0.106249  0  0.100912  0.097547  0  1.108114  0
H  H18  1  0.32124592  0.73348183  0.32569185  1  0.054522  0  0.104046  0.117163  0  0.976195  0
H  H19  1  0.32564977  0.66019510  0.27109887  1  0.062239  0  0.105156  0.120256  0  0.970724  0
H  H20  1  0.37369482  0.60092958  0.50360236  1  0.622742  0  0.352676  0.431766  0  0.850864  0
H  H21  1  0.86818645  0.39683174  0.49358786  1  0.621282  0  0.351461  0.429278  0  0.854559  0
H  H22  1  0.35408406  0.89141651  0.00837658  1  0.615981  0  0.35225  0.430493  0  0.853011  0
H  H23  1  0.86063909  0.10224456  0.99981732  1  0.616304  0  0.352524  0.431006  0  0.85362  0
C  C24  1  0.37066079  0.41473129  0.41276610  1  1.724401  0  0.279236  0.705663  0  4.168501  0
C  C25  1  0.36941524  0.38476733  0.61211038  1  1.570588  0  0.269047  0.647324  0  4.100626  0
C  C26  1  0.87579672  0.58465566  0.58476887  1  1.721543  0  0.280519  0.705412  0  4.165871  0
C  C27  1  0.87609169  0.61130938  0.38754220  1  1.570321  0  0.269268  0.651708  0  4.09063  0
C  C28  1  0.03998522  0.71664764  0.27741976  1  -0.029802  0  -0.002775  0.067447  0  3.916924  0
C  C29  1  0.87489343  0.68058889  0.31749109  1  -0.038396  0  -0.012093  -0.08396  0  3.997482  0
C  C30  1  0.69784262  0.71553797  0.28774743  1  -0.056716  0  -0.087866  -0.106087  0  3.996343  0
C  C31  1  0.68861011  0.78113915  0.22271467  1  -0.054875  0  -0.088738  -0.104986  0  3.989479  0
C  C32  1  0.85667188  0.81653939  0.18191529  1  -0.02101  0  -0.01277  -0.087081  0  4.005436  0
C  C33  1  0.03029474  0.78175127  0.21187248  1  -0.019287  0  -0.003835  0.06808  0  3.927777  0
C  C34  1  0.24711767  0.79022793  0.20210571  1  -0.004355  0  -0.150941  -0.206489  0  3.904333  0
C  C35  1  0.25849428  0.71684057  0.27698284  1  0.000443  0  -0.149644  -0.204464  0  3.887575  0
C  C36  1  0.85533649  0.86884449  0.85613998  1  0.16964  0  -0.000407  -0.138495  0  3.833479  0
C  C37  1  0.86016184  0.82788383  0.81023665  1  -0.325554  0  -0.008938  0.026883  0  4.264386  0
C  C38  1  0.86563549  0.78197177  0.76106113  1  0.01493  0  0.000665  -0.005125  0  4.186597  0
C  C39  1  0.87099368  0.73814365  0.71712820  1  -0.048417  0  0.004035  0.00121  0  4.187162  0
C  C40  1  0.87532915  0.68842446  0.67127774  1  -0.199923  0  -0.004861  0.029495  0  4.255793  0
C  C41  1  0.87756571  0.64102723  0.63113601  1  0.149317  0  0.005882  -0.128984  0  3.824962  0
C  C42  1  0.37174750  0.36406849  0.36096265  1  0.12132  0  -0.000391  -0.140413  0  3.827016  0
C  C43  1  0.37061720  0.31976034  0.31785672  1  -0.284003  0  -0.006672  0.030474  0  4.25585  0
C  C44  1  0.36841949  0.27122213  0.27084509  1  0.038554  0  0.002826  -0.000424  0  4.181608  0
C  C45  1  0.36515080  0.22654976  0.22760288  1  0.059363  0  0.003173  0.000797  0  4.18012  0
C  C46  1  0.36172672  0.17823959  0.18037243  1  -0.316684  0  -0.006445  0.030365  0  4.254496  0
C  C47  1  0.35863409  0.13418864  0.13706068  1  0.139614  0  0.000669  -0.138181  0  3.825975  0
C  C48  1  0.52835488  0.29666642  0.72977347  1  -0.051362  0  0.000436  0.027191  0  3.861715  0
C  C49  1  0.36967096  0.31391488  0.68106854  1  -0.002068  0  -0.008883  -0.078586  0  3.976112  0
C  C50  1  0.20975769  0.25802155  0.69906844  1  -0.091136  0  -0.082094  -0.105004  0  3.988276  0
C  C51  1  0.20817135  0.19095175  0.76317297  1  0.00203  0  -0.080356  -0.096673  0  3.984661  0
C  C52  1  0.36792138  0.17464976  0.81274305  1  -0.036263  0  -0.009277  -0.082647  0  3.974715  0
C  C53  1  0.52825382  0.22784830  0.79255661  1  0.032793  0  -0.000193  0.073644  0  3.907654  0
C  C54  1  0.73496899  0.24227535  0.81385257  1  -0.025421  0  -0.149412  -0.235289  0  3.851807  0
C  C55  1  0.73464362  0.32325816  0.74448520  1  0.01464  0  -0.067411  -0.053424  0  3.831804  0
C  C56  1  0.36209148  0.10735046  0.88424298  1  1.579926  0  0.272508  0.655765  0  4.087703  0
C  C57  1  0.35870646  0.08361429  0.08513333  1  1.720942  0  0.277298  0.703964  0  4.170075  0
C  C58  1  0.85197687  0.88585454  0.11211742  1  1.561935  0  0.270694  0.654311  0  4.08434  0
C  C59  1  0.85493370  0.91575221  0.91098420  1  1.715436  0  0.277233  0.703782  0  4.173156  0
C  C60  1  0.76745990  0.40026235  0.76963085  1  -0.053673  0  -0.009364  0.095472  0  3.962913  0
C  C61  1  0.62221409  0.45817038  0.76833558  1  -0.044321  0  -0.096893  -0.140365  0  3.985365  0
C  C62  1  0.65606370  0.52378942  0.79988317  1  -0.042694  0  -0.098477  -0.087151  0  4.05737  0
C  C63  1  0.83524357  0.53219705  0.83294955  1  -0.078074  0  -0.103579  -0.104427  0  4.058707  0
C  C64  1  0.98292764  0.47563079  0.83289838  1  -0.021719  0  -0.098724  -0.087775  0  4.054535  0
C  C65  1  0.94926589  0.41046431  0.80123115  1  -0.024193  0  -0.096484  -0.142277  0  3.985316  0
O  O66  1  0.53719318  0.41455193  0.58763756  1  -1.258017  0  -0.231436  -0.590299  0  2.345117  0
O  O67  1  0.20320465  0.43619000  0.43062983  1  -1.229023  0  -0.223338  -0.573662  0  2.277892  0
O  O68  1  0.04239981  0.58642426  0.41489806  1  -1.256836  0  -0.233959  -0.589717  0  2.31657  0
O  O69  1  0.20440593  0.40855712  0.58288225  1  -1.262086  0  -0.236201  -0.595357  0  2.330162  0
O  O70  1  0.04181742  0.56110966  0.56753622  1  -1.230155  0  -0.223324  -0.57753  0  2.278649  0
O  O71  1  0.53672005  0.43202327  0.43580766  1  -1.235975  0  -0.223046  -0.574572  0  2.277331  0
O  O72  1  0.37329167  0.54729722  0.49369575  1  -1.426963  0  -0.448938  -0.988981  0  2.147069  0
O  O73  1  0.70814464  0.56509598  0.56491167  1  -1.227727  0  -0.220077  -0.573913  0  2.289333  0
O  O74  1  0.70915429  0.58329522  0.41490216  1  -1.263296  0  -0.237052  -0.599912  0  2.355283  0
O  O75  1  0.87085749  0.44890953  0.50650387  1  -1.42572  0  -0.448641  -0.986097  0  2.145213  0
O  O76  1  0.19220746  0.06584223  0.06274455  1  -1.226463  0  -0.223327  -0.57632  0  2.274812  0
O  O77  1  0.52629833  0.08449949  0.91472806  1  -1.262085  0  -0.232874  -0.589797  0  2.332607  0
O  O78  1  0.68832665  0.93455471  0.93210750  1  -1.229999  0  -0.223675  -0.574661  0  2.279377  0
O  O79  1  0.52611658  0.06271809  0.06665426  1  -1.224219  0  -0.223019  -0.573927  0  2.278444  0
O  O80  1  0.68568562  0.91134822  0.08523209  1  -1.262192  0  -0.237023  -0.597654  0  2.329535  0
O  O81  1  0.19358434  0.08052930  0.91046333  1  -1.262634  0  -0.235796  -0.59711  0  2.338988  0
O  O82  1  0.35558694  0.94928206  0.00691070  1  -1.42044  0  -0.448776  -0.992361  0  2.159762  0
O  O83  1  0.01894570  0.91330093  0.08410878  1  -1.265463  0  -0.232807  -0.597326  0  2.34765  0
O  O84  1  0.02226120  0.93275678  0.93305572  1  -1.223074  0  -0.222713  -0.57307  0  2.285545  0
O  O85  1  0.85871952  0.04755555  0.99219539  1  -1.419952  0  -0.448678  -0.989776  0  2.150419  0
