# generated using pymatgen
data_ScH7C9(NO3)2
_symmetry_space_group_name_H-M   'P 1'
_cell_length_a   5.68457233
_cell_length_b   7.66835831
_cell_length_c   24.42529288
_cell_angle_alpha   90.00010135
_cell_angle_beta   93.99470334
_cell_angle_gamma   89.99965900
_symmetry_Int_Tables_number   1
_chemical_formula_structural   ScH7C9(NO3)2
_chemical_formula_sum   'Sc4 H28 C36 N8 O24'
_cell_volume   1062.14441590
_cell_formula_units_Z   4
loop_
 _symmetry_equiv_pos_site_id
 _symmetry_equiv_pos_as_xyz
  1  'x, y, z'
loop_
 _atom_site_type_symbol
 _atom_site_label
 _atom_site_symmetry_multiplicity
 _atom_site_fract_x
 _atom_site_fract_y
 _atom_site_fract_z
 _atom_site_occupancy
 _atom_site_hle17_bader_spin_density
 _atom_site_hle17_ddec_charge
 _atom_site_hle17_ddec_spin_density
 _atom_site_hle17_ddec_sum_bond_order
 _atom_site_hle17_magmom
 _atom_site_hse06_10hf_bader_spin_density
 _atom_site_hse06_10hf_ddec_charge
 _atom_site_hse06_10hf_ddec_spin_density
 _atom_site_hse06_10hf_ddec_sum_bond_order
 _atom_site_hse06_10hf_magmom
 _atom_site_hse06_bader_spin_density
 _atom_site_hse06_ddec_charge
 _atom_site_hse06_ddec_spin_density
 _atom_site_hse06_ddec_sum_bond_order
 _atom_site_hse06_magmom
 _atom_site_pbe_bader_spin_density
 _atom_site_pbe_cm5_charge
 _atom_site_pbe_ddec_charge
 _atom_site_pbe_ddec_spin_density
 _atom_site_pbe_ddec_sum_bond_order
 _atom_site_pbe_magmom
Sc  Sc0  1  0.76066572  0.17333986  0.25032619  1  0  2.051566  0  1.619372  0  0  1.961301  0  2.033269  0  0  2.069171  0  1.92982  0  0  1.215328  1.884037  0  2.103109  0
Sc  Sc1  1  0.73933893  0.67334002  0.24967351  1  0  2.051512  0  1.619428  0  0  1.961217  0  2.033333  0  0  2.06908  0  1.929891  0  0  1.21529  1.883974  0  2.103129  0
Sc  Sc2  1  0.23934094  0.82666596  0.74967301  1  0  2.051563  0  1.619409  0  0  1.961284  0  2.033314  0  0  2.069158  0  1.929845  0  0  1.215311  1.884042  0  2.103103  0
Sc  Sc3  1  0.26065353  0.32666580  0.75032789  1  0  2.051524  0  1.619392  0  0  1.961238  0  2.033293  0  0  2.0691  0  1.929853  0  0  1.215281  1.883979  0  2.103118  0
H  H4  1  0.51944913  0.41211103  0.19185936  1  0  0.435269  0  0.848501  0  0  0.415058  0  0.895717  0  0  0.425922  0  0.880242  0  0  0.305921  0.407177  0  0.90691  0
H  H5  1  0.98055882  0.91211435  0.30814300  1  0  0.435481  0  0.848221  0  0  0.415239  0  0.895496  0  0  0.426102  0  0.880021  0  0  0.305972  0.407354  0  0.906698  0
H  H6  1  0.48055572  0.58789088  0.80814104  1  0  0.435345  0  0.848396  0  0  0.415096  0  0.895691  0  0  0.425958  0  0.880218  0  0  0.305901  0.40721  0  0.906894  0
H  H7  1  0.01943895  0.08789147  0.69185808  1  0  0.435515  0  0.848188  0  0  0.415277  0  0.895453  0  0  0.426142  0  0.879975  0  0  0.305988  0.407391  0  0.906655  0
H  H8  1  0.29173975  0.14487850  0.26153239  1  0  0.442537  0  0.852414  0  0  0.412569  0  0.914634  0  0  0.423647  0  0.898705  0  0  0.314229  0.404644  0  0.926003  0
H  H9  1  0.20826496  0.64488395  0.23847019  1  0  0.442495  0  0.85246  0  0  0.412522  0  0.914691  0  0  0.4236  0  0.898763  0  0  0.314218  0.404596  0  0.926062  0
H  H10  1  0.70826348  0.85512602  0.73846429  1  0  0.442535  0  0.85242  0  0  0.412565  0  0.914636  0  0  0.423643  0  0.89871  0  0  0.314221  0.404636  0  0.926013  0
H  H11  1  0.79173112  0.35511405  0.76152882  1  0  0.442504  0  0.852472  0  0  0.412557  0  0.914683  0  0  0.423637  0  0.898752  0  0  0.314208  0.40463  0  0.926056  0
H  H12  1  0.40019985  0.02695355  0.31274653  1  0  0.439609  0  0.85977  0  0  0.407138  0  0.925823  0  0  0.420226  0  0.906925  0  0  0.302889  0.397774  0  0.939317  0
H  H13  1  0.09981293  0.52695921  0.18725408  1  0  0.439649  0  0.859714  0  0  0.407165  0  0.925792  0  0  0.420256  0  0.906886  0  0  0.302892  0.397801  0  0.939289  0
H  H14  1  0.59979629  0.97305097  0.68725084  1  0  0.439615  0  0.859766  0  0  0.407148  0  0.925807  0  0  0.420233  0  0.906914  0  0  0.302899  0.397786  0  0.9393  0
H  H15  1  0.90017618  0.47304661  0.81274276  1  0  0.439666  0  0.859696  0  0  0.407197  0  0.925756  0  0  0.42029  0  0.906848  0  0  0.302923  0.39783  0  0.939258  0
H  H16  1  0.95243056  0.48784431  0.04587710  1  0  0.305703  0  0.884315  0  0  0.289078  0  0.944977  0  0  0.29617  0  0.939991  0  0  0.326586  0.284024  0  0.948581  0
H  H17  1  0.54759796  0.98784244  0.45412528  1  0  0.305706  0  0.884303  0  0  0.289145  0  0.944936  0  0  0.296245  0  0.93993  0  0  0.326547  0.284089  0  0.94854  0
H  H18  1  0.04758132  0.51215369  0.95412383  1  0  0.305793  0  0.884243  0  0  0.289137  0  0.944945  0  0  0.296233  0  0.93995  0  0  0.326603  0.284083  0  0.948549  0
H  H19  1  0.45242619  0.01215556  0.54587793  1  0  0.30573  0  0.884301  0  0  0.289107  0  0.944991  0  0  0.296204  0  0.939996  0  0  0.326567  0.284051  0  0.948593  0
H  H20  1  0.32887650  0.65609306  0.11143200  1  0  0.120012  0  0.947739  0  0  0.128421  0  1.009025  0  0  0.132621  0  1.005094  0  0  0.112754  0.125346  0  1.012002  0
H  H21  1  0.17113351  0.15608227  0.38856823  1  0  0.119954  0  0.947788  0  0  0.128451  0  1.008974  0  0  0.132649  0  1.005046  0  0  0.112742  0.125374  0  1.01195  0
H  H22  1  0.67113900  0.34391406  0.88856695  1  0  0.119924  0  0.947878  0  0  0.128423  0  1.009049  0  0  0.13262  0  1.005125  0  0  0.112734  0.125347  0  1.012026  0
H  H23  1  0.82886249  0.84390660  0.61143283  1  0  0.119958  0  0.947904  0  0  0.128416  0  1.009118  0  0  0.132613  0  1.005195  0  0  0.112757  0.125342  0  1.012092  0
H  H24  1  0.78492690  0.16772799  0.07517886  1  0  0.115725  0  0.924887  0  0  0.128205  0  0.980519  0  0  0.13183  0  0.978304  0  0  0.110282  0.125552  0  0.982331  0
H  H25  1  0.71506011  0.66772785  0.42482215  1  0  0.115757  0  0.924911  0  0  0.128237  0  0.98053  0  0  0.131861  0  0.978317  0  0  0.110295  0.125584  0  0.982343  0
H  H26  1  0.21506909  0.83226740  0.92482260  1  0  0.115677  0  0.924935  0  0  0.128173  0  0.980549  0  0  0.131799  0  0.978333  0  0  0.110244  0.125518  0  0.982364  0
H  H27  1  0.28492531  0.33227276  0.57517871  1  0  0.115702  0  0.924921  0  0  0.128197  0  0.980541  0  0  0.131821  0  0.978327  0  0  0.110279  0.125542  0  0.982354  0
H  H28  1  0.60085396  0.59866912  0.98270020  1  0  0.072201  0  0.947448  0  0  0.083656  0  1.007873  0  0  0.086112  0  1.004271  0  0  0.127552  0.081809  0  1.010498  0
H  H29  1  0.89917414  0.09868020  0.51730073  1  0  0.072182  0  0.947387  0  0  0.083692  0  1.007747  0  0  0.086149  0  1.004144  0  0  0.127533  0.081844  0  1.010374  0
H  H30  1  0.39915075  0.40132497  0.01730388  1  0  0.07218  0  0.947507  0  0  0.083669  0  1.007877  0  0  0.086124  0  1.004279  0  0  0.12753  0.081801  0  1.010527  0
H  H31  1  0.10085014  0.90132953  0.48269920  1  0  0.072236  0  0.94753  0  0  0.08367  0  1.007955  0  0  0.086123  0  1.004357  0  0  0.127538  0.08182  0  1.010581  0
C  C32  1  0.10111651  0.06967732  0.11977251  1  0  -0.061981  0  3.705998  0  0  -0.055087  0  3.955451  0  0  -0.058932  0  3.976113  0  0  -0.007159  -0.05251  0  3.941639  0
C  C33  1  0.39888188  0.56966832  0.38022663  1  0  -0.061925  0  3.705907  0  0  -0.055019  0  3.955364  0  0  -0.05887  0  3.976037  0  0  -0.007099  -0.052443  0  3.941551  0
C  C34  1  0.89889019  0.93032720  0.88022587  1  0  -0.061879  0  3.705891  0  0  -0.055005  0  3.955302  0  0  -0.058852  0  3.975978  0  0  -0.007051  -0.052428  0  3.941491  0
C  C35  1  0.60111062  0.43032707  0.61977395  1  0  -0.061947  0  3.705771  0  0  -0.055004  0  3.955217  0  0  -0.058863  0  3.9759  0  0  -0.007021  -0.052426  0  3.941407  0
C  C36  1  0.25726038  0.92541818  0.12891319  1  0  -0.083194  0  3.728949  0  0  -0.074242  0  3.968374  0  0  -0.082915  0  3.988756  0  0  -0.012837  -0.068615  0  3.954914  0
C  C37  1  0.24274399  0.42540960  0.37108628  1  0  -0.0832  0  3.728748  0  0  -0.074297  0  3.968275  0  0  -0.082976  0  3.988661  0  0  -0.012891  -0.068673  0  3.954816  0
C  C38  1  0.74274808  0.07457851  0.87108522  1  0  -0.083454  0  3.729212  0  0  -0.074478  0  3.968655  0  0  -0.083166  0  3.989051  0  0  -0.012974  -0.068851  0  3.955197  0
C  C39  1  0.75725558  0.57458448  0.62891361  1  0  -0.083266  0  3.728937  0  0  -0.07437  0  3.968439  0  0  -0.083044  0  3.988825  0  0  -0.012916  -0.068746  0  3.954983  0
C  C40  1  0.20982270  0.76537615  0.10352423  1  0  -0.106206  0  3.720747  0  0  -0.139525  0  3.977936  0  0  -0.137231  0  3.993003  0  0  -0.074491  -0.140946  0  3.967883  0
C  C41  1  0.29017936  0.26536748  0.39647675  1  0  -0.106218  0  3.720848  0  0  -0.139597  0  3.978059  0  0  -0.137301  0  3.993128  0  0  -0.074509  -0.141012  0  3.967996  0
C  C42  1  0.79018225  0.23462446  0.89647372  1  0  -0.105962  0  3.720797  0  0  -0.139345  0  3.977926  0  0  -0.137046  0  3.992996  0  0  -0.074394  -0.140768  0  3.967884  0
C  C43  1  0.70982016  0.73462399  0.60352478  1  0  -0.10615  0  3.720852  0  0  -0.139489  0  3.978037  0  0  -0.137195  0  3.993104  0  0  -0.07449  -0.140911  0  3.967992  0
C  C44  1  0.00625202  0.75312225  0.06934228  1  0  0.152771  0  3.802978  0  0  0.146778  0  4.046419  0  0  0.149165  0  4.068815  0  0  0.094631  0.145011  0  4.031335  0
C  C45  1  0.49374667  0.25311157  0.43065698  1  0  0.152753  0  3.802731  0  0  0.146767  0  4.046222  0  0  0.149153  0  4.068621  0  0  0.094621  0.145002  0  4.031133  0
C  C46  1  0.99375106  0.24687705  0.93065849  1  0  0.152712  0  3.803044  0  0  0.146714  0  4.046481  0  0  0.1491  0  4.068876  0  0  0.09462  0.144948  0  4.0314  0
C  C47  1  0.50624938  0.74687991  0.56934285  1  0  0.152759  0  3.80293  0  0  0.146758  0  4.046387  0  0  0.149148  0  4.068783  0  0  0.094618  0.14499  0  4.031303  0
C  C48  1  0.85846726  0.89830658  0.05573885  1  0  0.161249  0  3.784402  0  0  0.164695  0  4.034523  0  0  0.168451  0  4.05624  0  0  0.098316  0.16223  0  4.019855  0
C  C49  1  0.64153016  0.39831185  0.44426496  1  0  0.161241  0  3.784155  0  0  0.164665  0  4.034322  0  0  0.168421  0  4.05604  0  0  0.098266  0.162199  0  4.019652  0
C  C50  1  0.14152161  0.10168881  0.94426413  1  0  0.16122  0  3.784488  0  0  0.164668  0  4.034622  0  0  0.168425  0  4.056342  0  0  0.098255  0.162206  0  4.019955  0
C  C51  1  0.35845876  0.60168614  0.55573679  1  0  0.161245  0  3.784293  0  0  0.164704  0  4.034422  0  0  0.168458  0  4.05614  0  0  0.098302  0.16224  0  4.019754  0
C  C52  1  0.90690730  0.05891697  0.08177963  1  0  -0.126995  0  3.673215  0  0  -0.160801  0  3.930855  0  0  -0.162896  0  3.949101  0  0  -0.078037  -0.159466  0  3.918606  0
C  C53  1  0.59308591  0.55891863  0.41822020  1  0  -0.126922  0  3.673132  0  0  -0.160704  0  3.930726  0  0  -0.162805  0  3.948987  0  0  -0.077945  -0.159369  0  3.918476  0
C  C54  1  0.09309401  0.94107973  0.91822112  1  0  -0.126835  0  3.673136  0  0  -0.160653  0  3.930736  0  0  -0.162754  0  3.948997  0  0  -0.077957  -0.159318  0  3.918491  0
C  C55  1  0.40689954  0.44107937  0.58177984  1  0  -0.126935  0  3.67312  0  0  -0.160762  0  3.930736  0  0  -0.162857  0  3.948995  0  0  -0.078041  -0.159425  0  3.918487  0
C  C56  1  0.70875096  0.68010494  0.01083609  1  0  0.219797  0  3.736274  0  0  0.163966  0  4.02897  0  0  0.178141  0  4.038892  0  0  0.142933  0.154788  0  4.021773  0
C  C57  1  0.79126245  0.18011631  0.48916419  1  0  0.219859  0  3.736331  0  0  0.163999  0  4.029026  0  0  0.178175  0  4.03895  0  0  0.142964  0.154816  0  4.021828  0
C  C58  1  0.29124851  0.31989176  0.98916667  1  0  0.219946  0  3.736486  0  0  0.164093  0  4.029164  0  0  0.178269  0  4.039089  0  0  0.143022  0.154928  0  4.021968  0
C  C59  1  0.20874603  0.81989603  0.51083382  1  0  0.219746  0  3.736241  0  0  0.163949  0  4.028923  0  0  0.178124  0  4.038845  0  0  0.142947  0.154771  0  4.021726  0
C  C60  1  0.11601258  0.22575382  0.15709860  1  0  0.715109  0  3.838382  0  0  0.66068  0  4.144394  0  0  0.697433  0  4.131971  0  0  0.242284  0.635402  0  4.152377  0
C  C61  1  0.38399692  0.72573817  0.34290044  1  0  0.71503  0  3.838612  0  0  0.660581  0  4.144633  0  0  0.697333  0  4.132221  0  0  0.242253  0.635303  0  4.152615  0
C  C62  1  0.88398890  0.77424940  0.84289764  1  0  0.715131  0  3.838596  0  0  0.660789  0  4.144466  0  0  0.69754  0  4.13205  0  0  0.242377  0.635511  0  4.152451  0
C  C63  1  0.61599733  0.27425592  0.65710018  1  0  0.715235  0  3.838277  0  0  0.66074  0  4.144368  0  0  0.697497  0  4.131943  0  0  0.242282  0.635461  0  4.152356  0
C  C64  1  0.47479742  0.93734604  0.16539972  1  0  0.731324  0  3.824125  0  0  0.686391  0  4.111571  0  0  0.725973  0  4.10107  0  0  0.250182  0.659059  0  4.118271  0
C  C65  1  0.02520331  0.43734083  0.33460011  1  0  0.731216  0  3.824235  0  0  0.68626  0  4.111723  0  0  0.725845  0  4.101229  0  0  0.250039  0.658931  0  4.118424  0
C  C66  1  0.52521451  0.06265326  0.83459999  1  0  0.731306  0  3.824067  0  0  0.686333  0  4.111538  0  0  0.725919  0  4.101044  0  0  0.250155  0.659002  0  4.118242  0
C  C67  1  0.97478386  0.56265717  0.66540120  1  0  0.731261  0  3.824206  0  0  0.686324  0  4.111649  0  0  0.725907  0  4.101156  0  0  0.250138  0.658995  0  4.118352  0
N  N68  1  0.67588847  0.84807057  0.01843810  1  0  -0.366037  0  2.959601  0  0  -0.347378  0  3.241639  0  0  -0.359683  0  3.255465  0  0  -0.329311  -0.338908  0  3.2319  0
N  N69  1  0.82411306  0.34807655  0.48156084  1  0  -0.366169  0  2.960022  0  0  -0.347514  0  3.242097  0  0  -0.359822  0  3.255924  0  0  -0.329384  -0.339046  0  3.232359  0
N  N70  1  0.32410745  0.15191960  0.98156500  1  0  -0.366203  0  2.959725  0  0  -0.347563  0  3.241791  0  0  -0.359871  0  3.255619  0  0  -0.329354  -0.339092  0  3.232045  0
N  N71  1  0.17588480  0.65193058  0.51843780  1  0  -0.36614  0  2.95978  0  0  -0.347486  0  3.241818  0  0  -0.359792  0  3.255643  0  0  -0.329373  -0.339019  0  3.232081  0
N  N72  1  0.90410226  0.61466555  0.04057485  1  0  -0.36717  0  3.424968  0  0  -0.310798  0  3.665616  0  0  -0.327841  0  3.678426  0  0  -0.393071  -0.299162  0  3.656675  0
N  N73  1  0.59592050  0.11466458  0.45942514  1  0  -0.3671  0  3.424728  0  0  -0.310817  0  3.66531  0  0  -0.327861  0  3.678125  0  0  -0.392963  -0.299181  0  3.656367  0
N  N74  1  0.09590960  0.38532984  0.95942690  1  0  -0.367272  0  3.425086  0  0  -0.310855  0  3.665715  0  0  -0.327898  0  3.678526  0  0  -0.393105  -0.299217  0  3.656768  0
N  N75  1  0.40410022  0.88533081  0.54057554  1  0  -0.367076  0  3.424956  0  0  -0.310734  0  3.665577  0  0  -0.327782  0  3.678392  0  0  -0.392994  -0.299095  0  3.656632  0
O  O76  1  0.55683321  0.08736344  0.17875375  1  0  -0.71722  0  2.036895  0  0  -0.666233  0  2.290849  0  0  -0.70303  0  2.280985  0  0  -0.361829  -0.640292  0  2.296858  0
O  O77  1  0.94316682  0.58735525  0.32124663  1  0  -0.717174  0  2.037003  0  0  -0.666134  0  2.29095  0  0  -0.702887  0  2.280986  0  0  -0.361719  -0.640195  0  2.296956  0
O  O78  1  0.44317703  0.91263716  0.82124429  1  0  -0.71719  0  2.036925  0  0  -0.666202  0  2.290939  0  0  -0.702977  0  2.281018  0  0  -0.361788  -0.640263  0  2.296944  0
O  O79  1  0.05682564  0.41264144  0.67875477  1  0  -0.717103  0  2.036913  0  0  -0.666111  0  2.290893  0  0  -0.702885  0  2.280975  0  0  -0.361745  -0.64017  0  2.296898  0
O  O80  1  0.15416175  0.37620049  0.13942358  1  0  -0.603666  0  1.927349  0  0  -0.552274  0  2.144999  0  0  -0.575706  0  2.132009  0  0  -0.293574  -0.535973  0  2.1537  0
O  O81  1  0.34587643  0.87619293  0.36057853  1  0  -0.60367  0  1.927319  0  0  -0.552253  0  2.144966  0  0  -0.575691  0  2.131986  0  0  -0.293629  -0.53595  0  2.15366  0
O  O82  1  0.84584677  0.62380403  0.86057320  1  0  -0.603652  0  1.927375  0  0  -0.552332  0  2.145022  0  0  -0.575769  0  2.132032  0  0  -0.29366  -0.536026  0  2.153723  0
O  O83  1  0.65410906  0.12380377  0.63942069  1  0  -0.603778  0  1.927327  0  0  -0.552335  0  2.144969  0  0  -0.57577  0  2.131983  0  0  -0.293641  -0.536032  0  2.153666  0
O  O84  1  0.64008569  0.42195781  0.22213328  1  0  -1.108298  0  1.624414  0  0  -1.071688  0  1.860227  0  0  -1.119167  0  1.827386  0  0  -0.70701  -1.037984  0  1.882932  0
O  O85  1  0.85992398  0.92195888  0.27786830  1  0  -1.108542  0  1.624123  0  0  -1.071926  0  1.859948  0  0  -1.119407  0  1.827102  0  0  -0.707053  -1.03822  0  1.882658  0
O  O86  1  0.35990672  0.57804541  0.77786935  1  0  -1.108365  0  1.624214  0  0  -1.071736  0  1.860011  0  0  -1.119221  0  1.827161  0  0  -0.706971  -1.038031  0  1.882714  0
O  O87  1  0.14008094  0.07804433  0.72213046  1  0  -1.108547  0  1.624059  0  0  -1.071932  0  1.859887  0  0  -1.119417  0  1.827036  0  0  -0.707046  -1.038226  0  1.882596  0
O  O88  1  0.43308014  0.12404459  0.28654298  1  0  -0.908995  0  1.881963  0  0  -0.86293  0  2.085412  0  0  -0.893733  0  2.050462  0  0  -0.618552  -0.840836  0  2.109639  0
O  O89  1  0.06692657  0.62404923  0.21345799  1  0  -0.908996  0  1.881894  0  0  -0.862924  0  2.085354  0  0  -0.893727  0  2.050391  0  0  -0.618548  -0.84083  0  2.109578  0
O  O90  1  0.56692303  0.87595601  0.71345534  1  0  -0.908972  0  1.881942  0  0  -0.862909  0  2.085402  0  0  -0.893716  0  2.050453  0  0  -0.618565  -0.840813  0  2.109628  0
O  O91  1  0.93306422  0.37595268  0.78654092  1  0  -0.909046  0  1.88188  0  0  -0.863035  0  2.085252  0  0  -0.89383  0  2.050264  0  0  -0.618577  -0.840937  0  2.109484  0
O  O92  1  0.57423482  0.79479906  0.18195947  1  0  -0.731301  0  1.998276  0  0  -0.682141  0  2.257414  0  0  -0.720736  0  2.244961  0  0  -0.383041  -0.65476  0  2.265197  0
O  O93  1  0.92576711  0.29479201  0.31804026  1  0  -0.731252  0  1.998323  0  0  -0.682095  0  2.257462  0  0  -0.720694  0  2.245006  0  0  -0.382998  -0.654714  0  2.265249  0
O  O94  1  0.42577003  0.20520546  0.81804093  1  0  -0.731287  0  1.998141  0  0  -0.682111  0  2.257264  0  0  -0.720711  0  2.24481  0  0  -0.383057  -0.654728  0  2.265049  0
O  O95  1  0.07422182  0.70520599  0.68196107  1  0  -0.7313  0  1.998233  0  0  -0.682138  0  2.257357  0  0  -0.720736  0  2.244901  0  0  -0.383027  -0.654761  0  2.265145  0
O  O96  1  0.07134628  0.19508646  0.20774077  1  0  -0.781765  0  2.054836  0  0  -0.724787  0  2.314141  0  0  -0.762945  0  2.301458  0  0  -0.384948  -0.69735  0  2.321724  0
O  O97  1  0.42865458  0.69507297  0.29225973  1  0  -0.781709  0  2.055048  0  0  -0.724717  0  2.314361  0  0  -0.762868  0  2.301659  0  0  -0.384925  -0.697285  0  2.321946  0
O  O98  1  0.92865685  0.80492979  0.79225837  1  0  -0.78184  0  2.055083  0  0  -0.724836  0  2.314259  0  0  -0.762985  0  2.30155  0  0  -0.385004  -0.697404  0  2.321843  0
O  O99  1  0.57133439  0.30492372  0.70774079  1  0  -0.78183  0  2.054934  0  0  -0.724806  0  2.314219  0  0  -0.762955  0  2.301505  0  0  -0.384942  -0.697371  0  2.321807  0
