# generated using pymatgen
data_ZnH12C24(NO3)2
_symmetry_space_group_name_H-M   'P 1'
_cell_length_a   13.08591710
_cell_length_b   13.13945422
_cell_length_c   22.32559313
_cell_angle_alpha   95.94268467
_cell_angle_beta   91.94054901
_cell_angle_gamma   114.44147089
_symmetry_Int_Tables_number   1
_chemical_formula_structural   ZnH12C24(NO3)2
_chemical_formula_sum   'Zn4 H48 C96 N8 O24'
_cell_volume   3463.42206328
_cell_formula_units_Z   4
loop_
 _symmetry_equiv_pos_site_id
 _symmetry_equiv_pos_as_xyz
  1  'x, y, z'
loop_
 _atom_site_type_symbol
 _atom_site_label
 _atom_site_symmetry_multiplicity
 _atom_site_fract_x
 _atom_site_fract_y
 _atom_site_fract_z
 _atom_site_occupancy
 _atom_site_pbe_bader_charge
 _atom_site_pbe_bader_spin_density
 _atom_site_pbe_cm5_charge
 _atom_site_pbe_ddec_charge
 _atom_site_pbe_ddec_spin_density
 _atom_site_pbe_ddec_sum_bond_order
 _atom_site_pbe_magmom
Zn  Zn0  1  0.86014307  0.76097069  0.29751775  1  1.292188  0  0.670774  0.828226  0  2.423809  0
Zn  Zn1  1  0.85300789  0.71454594  0.16909202  1  1.291625  0  0.672435  0.829697  0  2.416265  0
Zn  Zn2  1  0.13985289  0.23902674  0.70248139  1  1.292241  0  0.670745  0.828146  0  2.423795  0
Zn  Zn3  1  0.14698372  0.28544639  0.83090762  1  1.291364  0  0.672461  0.829747  0  2.416209  0
H  H4  1  0.70450152  0.63078613  0.38070745  1  0.133029  0  0.130725  0.106017  0  0.967355  0
H  H5  1  0.69855606  0.62083609  0.49286798  1  0.08919  0  0.121923  0.136834  0  0.967168  0
H  H6  1  0.02436037  0.90485287  0.51767360  1  0.104212  0  0.122283  0.13925  0  0.972969  0
H  H7  1  0.01743798  0.90292991  0.40542729  1  0.135822  0  0.124157  0.106634  0  1.019077  0
H  H8  1  0.84256683  0.00500001  0.69722781  1  0.141446  0  0.116355  0.123461  0  1.0049  0
H  H9  1  0.84473246  0.00126478  0.80947998  1  0.137767  0  0.118977  0.127285  0  0.982384  0
H  H10  1  0.87359854  0.49762094  0.77174999  1  0.120622  0  0.114826  0.118161  0  1.011315  0
H  H11  1  0.87522209  0.50327208  0.65941169  1  0.105125  0  0.118884  0.12282  0  0.981981  0
H  H12  1  0.19910328  0.80681440  0.34510306  1  0.091204  0  0.104427  0.112694  0  1.000018  0
H  H13  1  0.38017594  0.78694480  0.35712879  1  0.059962  0  0.102027  0.10281  0  0.992783  0
H  H14  1  0.53249734  0.74666174  0.31030175  1  0.109907  0  0.103467  0.111255  0  1.006741  0
H  H15  1  0.50212240  0.63946461  0.11996955  1  0.056577  0  0.098661  0.101664  0  1.013851  0
H  H16  1  0.31529605  0.64905641  0.10871127  1  0.046545  0  0.103435  0.108604  0  0.991268  0
H  H17  1  0.16917229  0.70091379  0.15431133  1  0.119535  0  0.109579  0.121885  0  0.991345  0
H  H18  1  0.86229599  0.09483404  0.31783736  1  0.089949  0  0.102869  0.109865  0  1.002952  0
H  H19  1  0.84183533  0.26872062  0.35979523  1  0.065268  0  0.10239  0.105408  0  0.991396  0
H  H20  1  0.82597044  0.44672717  0.34284493  1  0.095589  0  0.105431  0.113594  0  0.999581  0
H  H21  1  0.84308011  0.37861378  0.15215051  1  0.100269  0  0.108283  0.119363  0  0.993975  0
H  H22  1  0.85968087  0.20315117  0.11013239  1  0.053141  0  0.102183  0.105907  0  0.992016  0
H  H23  1  0.87644992  0.02482330  0.12720345  1  0.099774  0  0.102304  0.110884  0  1.004825  0
H  H24  1  0.70077498  0.58536727  0.05962493  1  0.089638  0  0.130158  0.103355  0  0.965693  0
H  H25  1  0.69534524  0.59506966  0.94737752  1  0.1142  0  0.121649  0.137238  0  0.973839  0
H  H26  1  0.01871412  0.88210859  0.97957714  1  0.121708  0  0.123538  0.143507  0  0.970839  0
H  H27  1  0.01155338  0.85969298  0.08961171  1  0.132723  0  0.127333  0.106528  0  0.990597  0
H  H28  1  0.29549565  0.36921047  0.61929167  1  0.133126  0  0.130711  0.105971  0  0.96737  0
H  H29  1  0.30144042  0.37915883  0.50713102  1  0.08919  0  0.121937  0.136926  0  0.967122  0
H  H30  1  0.97563876  0.09514292  0.48232461  1  0.105029  0  0.122293  0.13923  0  0.973036  0
H  H31  1  0.98255927  0.09706502  0.59457173  1  0.135662  0  0.124154  0.106559  0  1.019117  0
H  H32  1  0.15744025  0.99500597  0.30277296  1  0.141503  0  0.116335  0.123444  0  1.004936  0
H  H33  1  0.15527771  0.99874879  0.19052175  1  0.137963  0  0.119  0.127239  0  0.982433  0
H  H34  1  0.12640119  0.50238577  0.22825247  1  0.120558  0  0.114887  0.118181  0  1.011365  0
H  H35  1  0.12477892  0.49673213  0.34058930  1  0.105029  0  0.118888  0.122842  0  0.981994  0
H  H36  1  0.80089107  0.19317714  0.65489883  1  0.087937  0  0.104433  0.112656  0  1.000058  0
H  H37  1  0.61982131  0.21305013  0.64287022  1  0.059946  0  0.102003  0.102767  0  0.992854  0
H  H38  1  0.46749785  0.25333567  0.68969648  1  0.109803  0  0.103461  0.111241  0  1.006733  0
H  H39  1  0.49787510  0.36054036  0.88002784  1  0.05653  0  0.098642  0.101655  0  1.013861  0
H  H40  1  0.68469649  0.35094012  0.89128730  1  0.046642  0  0.103436  0.108584  0  0.99128  0
H  H41  1  0.83081453  0.29907429  0.84569020  1  0.119919  0  0.10958  0.121892  0  0.991423  0
H  H42  1  0.13771632  0.90516783  0.68216103  1  0.090088  0  0.102832  0.109844  0  1.002904  0
H  H43  1  0.15817278  0.73128035  0.64020391  1  0.065271  0  0.10237  0.105379  0  0.991404  0
H  H44  1  0.17403349  0.55327290  0.65715407  1  0.09552  0  0.105438  0.113608  0  0.999602  0
H  H45  1  0.15691903  0.62138202  0.84784815  1  0.100264  0  0.108319  0.119433  0  0.993873  0
H  H46  1  0.14032117  0.79684803  0.88986653  1  0.053196  0  0.102205  0.105922  0  0.99201  0
H  H47  1  0.12355255  0.97517507  0.87279453  1  0.100185  0  0.102301  0.110896  0  1.004797  0
H  H48  1  0.29922732  0.41463444  0.94037504  1  0.089593  0  0.130126  0.103342  0  0.965662  0
H  H49  1  0.30465638  0.40493791  0.05262368  1  0.114643  0  0.121657  0.137224  0  0.973858  0
H  H50  1  0.98129126  0.11789319  0.02042558  1  0.121682  0  0.123556  0.143534  0  0.970791  0
H  H51  1  0.98845269  0.14030295  0.91039113  1  0.132904  0  0.127321  0.106527  0  0.990527  0
C  C52  1  0.88168251  0.94494770  0.23317457  1  1.552444  0  0.209198  0.583197  0  4.19096  0
C  C53  1  0.06733405  0.76957349  0.24170965  1  1.554158  0  0.210842  0.579957  0  4.188933  0
C  C54  1  0.82691224  0.53032807  0.23746989  1  1.555446  0  0.211581  0.58998  0  4.175989  0
C  C55  1  0.64247484  0.69450708  0.22189798  1  1.573821  0  0.211332  0.590556  0  4.172534  0
C  C56  1  0.77278364  0.68969606  0.41311671  1  0.490965  0  0.063394  0.115446  0  3.914652  0
C  C57  1  0.76995841  0.68468606  0.47490163  1  0.053863  0  -0.071569  -0.193599  0  3.93831  0
C  C58  1  0.86104914  0.76275803  0.51322546  1  0.310089  0  0.114319  0.242528  0  4.01321  0
C  C59  1  0.95185538  0.84289319  0.48898636  1  -0.017743  0  -0.070318  -0.193416  0  3.922174  0
C  C60  1  0.94817956  0.84225356  0.42656901  1  0.544278  0  0.062023  0.114022  0  3.888936  0
C  C61  1  0.85074124  0.85029710  0.61288178  1  1.31481  0  0.250168  0.451698  0  4.079408  0
C  C62  1  0.84923437  0.84478425  0.67855772  1  -0.016776  0  -0.002547  -0.064549  0  3.978417  0
C  C63  1  0.84423925  0.93294949  0.71663739  1  0.005035  0  -0.05292  -0.041914  0  3.88006  0
C  C64  1  0.84557285  0.93083553  0.77940691  1  0.057677  0  -0.054646  -0.051949  0  3.881486  0
C  C65  1  0.85099327  0.84007253  0.80405496  1  -0.09265  0  -0.000479  -0.061813  0  3.973673  0
C  C66  1  0.85597247  0.84132369  0.87046553  1  1.353447  0  0.249605  0.448207  0  4.088074  0
C  C67  1  0.86419651  0.65178338  0.85573601  1  1.347478  0  0.248057  0.439602  0  4.092679  0
C  C68  1  0.86145304  0.65537607  0.78989437  1  -0.042977  0  0.001029  -0.05721  0  3.975976  0
C  C69  1  0.86779680  0.56760592  0.75195946  1  0.050151  0  -0.055342  -0.055597  0  3.901762  0
C  C70  1  0.86844226  0.57068476  0.68941102  1  0.002121  0  -0.054096  -0.053249  0  3.908996  0
C  C71  1  0.86203249  0.66111854  0.66477582  1  -0.024048  0  -0.004759  -0.069929  0  3.988241  0
C  C72  1  0.86568688  0.66383953  0.59890072  1  1.330369  0  0.245811  0.443805  0  4.089896  0
C  C73  1  0.85459057  0.75107741  0.70245099  1  0.006641  0  0.00688  0.032488  0  3.997948  0
C  C74  1  0.85451985  0.74828386  0.76607124  1  -0.002604  0  0.008022  0.034173  0  3.989214  0
C  C75  1  0.17577781  0.75724638  0.24838655  1  -0.024977  0  -0.022914  -0.038559  0  3.990834  0
C  C76  1  0.23460580  0.77997149  0.30636664  1  -0.014606  0  -0.091993  -0.105259  0  4.007955  0
C  C77  1  0.33403920  0.76832663  0.31276822  1  -0.050827  0  -0.090947  -0.134572  0  4.005297  0
C  C78  1  0.37931125  0.73287339  0.26187433  1  -0.026038  0  -0.007008  0.074506  0  4.0077  0
C  C79  1  0.48349597  0.72450084  0.26665893  1  -0.114936  0  -0.081178  -0.140771  0  3.937706  0
C  C80  1  0.52696258  0.69218337  0.21622771  1  0.041145  0  -0.019699  -0.026021  0  3.980167  0
C  C81  1  0.46519821  0.66393557  0.15880114  1  -0.029013  0  -0.093871  -0.107443  0  4.014315  0
C  C82  1  0.36314938  0.67048067  0.15270264  1  -0.021633  0  -0.089565  -0.130118  0  3.997636  0
C  C83  1  0.31837703  0.70690106  0.20348435  1  -0.03316  0  -0.00554  0.075728  0  3.999657  0
C  C84  1  0.21673583  0.72032218  0.19822465  1  -0.067612  0  -0.076792  -0.136396  0  3.92468  0
C  C85  1  0.87184115  0.05174027  0.22394849  1  -0.040352  0  -0.021972  -0.031352  0  3.986609  0
C  C86  1  0.86193521  0.11995940  0.27277585  1  -0.0609  0  -0.080872  -0.139095  0  3.941409  0
C  C87  1  0.85063718  0.22027662  0.26486321  1  -0.018337  0  -0.007247  0.073497  0  4.006671  0
C  C88  1  0.84102683  0.29213944  0.31432075  1  -0.023839  0  -0.09135  -0.136828  0  4.00821  0
C  C89  1  0.83204226  0.39018902  0.30526269  1  -0.079467  0  -0.086864  -0.096046  0  3.992021  0
C  C90  1  0.83211226  0.42092690  0.24610342  1  -0.032973  0  -0.016512  -0.02562  0  3.972155  0
C  C91  1  0.84146129  0.35257324  0.19708035  1  -0.00717  0  -0.07686  -0.135176  0  3.924557  0
C  C92  1  0.85046438  0.25115941  0.20496060  1  -0.013492  0  -0.00679  0.075179  0  4.005022  0
C  C93  1  0.86040570  0.17925103  0.15553206  1  0.016669  0  -0.093497  -0.139674  0  4.004919  0
C  C94  1  0.87016850  0.08157021  0.16466095  1  -0.083535  0  -0.09359  -0.108989  0  4.009107  0
C  C95  1  0.76951022  0.64856634  0.03944163  1  0.49085  0  0.061936  0.111015  0  3.925092  0
C  C96  1  0.76647535  0.65482670  0.97775091  1  -0.002846  0  -0.071949  -0.193636  0  3.938308  0
C  C97  1  0.85727795  0.73891801  0.95556383  1  0.374551  0  0.115466  0.24387  0  4.007714  0
C  C98  1  0.94714907  0.81478439  0.99534104  1  0.010767  0  -0.068745  -0.191242  0  3.914262  0
C  C99  1  0.94364299  0.80253509  0.05650812  1  0.522317  0  0.064871  0.121279  0  3.886634  0
C  C100  1  0.11831996  0.05505067  0.76682431  1  1.552324  0  0.209261  0.583375  0  4.190968  0
C  C101  1  0.93265918  0.23041721  0.75829307  1  1.553353  0  0.210856  0.579945  0  4.188935  0
C  C102  1  0.17308543  0.46966603  0.76252819  1  1.555758  0  0.211783  0.590159  0  4.175571  0
C  C103  1  0.35752002  0.30548949  0.77809974  1  1.573405  0  0.211357  0.590768  0  4.172389  0
C  C104  1  0.22721190  0.31030219  0.58688247  1  0.490996  0  0.063405  0.115603  0  3.914629  0
C  C105  1  0.23003875  0.31531054  0.52509749  1  0.053943  0  -0.071607  -0.193829  0  3.938379  0
C  C106  1  0.13894648  0.23723855  0.48677407  1  0.309979  0  0.114375  0.242619  0  4.013091  0
C  C107  1  0.04814179  0.15710342  0.51101275  1  -0.018596  0  -0.070341  -0.193372  0  3.922162  0
C  C108  1  0.05181794  0.15774389  0.57343016  1  0.545208  0  0.062015  0.114058  0  3.888989  0
C  C109  1  0.14925927  0.14970207  0.38711755  1  1.314201  0  0.250124  0.451694  0  4.079162  0
C  C110  1  0.15077161  0.15522088  0.32144343  1  -0.016682  0  -0.002545  -0.064661  0  3.978461  0
C  C111  1  0.15576629  0.06705647  0.28336380  1  0.00494  0  -0.05285  -0.041733  0  3.879971  0
C  C112  1  0.15443475  0.06917548  0.22059417  1  0.057715  0  -0.054739  -0.052032  0  3.881671  0
C  C113  1  0.14901468  0.15993933  0.19594708  1  -0.092761  0  -0.000306  -0.061627  0  3.973772  0
C  C114  1  0.14403343  0.15869065  0.12953661  1  1.35355  0  0.249692  0.448229  0  4.088048  0
C  C115  1  0.13580519  0.34823006  0.14426689  1  1.347385  0  0.248136  0.439822  0  4.09227  0
C  C116  1  0.13855183  0.34463574  0.21010805  1  -0.026677  0  0.001049  -0.05715  0  3.975927  0
C  C117  1  0.13220696  0.43240504  0.24804333  1  0.050411  0  -0.055399  -0.055642  0  3.901904  0
C  C118  1  0.13155910  0.42932030  0.31059092  1  0.001931  0  -0.054125  -0.053356  0  3.909143  0
C  C119  1  0.13796998  0.33888736  0.33522485  1  -0.023966  0  -0.004773  -0.06996  0  3.988256  0
C  C120  1  0.13430311  0.33615446  0.40109988  1  1.330993  0  0.245749  0.443858  0  4.089957  0
C  C121  1  0.14541421  0.24892854  0.29755063  1  0.006679  0  0.00684  0.032496  0  3.997852  0
C  C122  1  0.14548706  0.25172547  0.23393018  1  -0.019053  0  0.007994  0.03413  0  3.98918  0
C  C123  1  0.82421577  0.24274515  0.75161487  1  -0.024319  0  -0.022889  -0.038633  0  3.990895  0
C  C124  1  0.76538923  0.22002174  0.69363447  1  -0.011434  0  -0.092012  -0.105151  0  4.007947  0
C  C125  1  0.66595882  0.23166832  0.68723171  1  -0.050878  0  -0.090948  -0.134619  0  4.005334  0
C  C126  1  0.62068335  0.26712067  0.73812458  1  -0.026027  0  -0.00697  0.074585  0  4.007538  0
C  C127  1  0.51649923  0.27549656  0.73333840  1  -0.114954  0  -0.081219  -0.14077  0  3.937612  0
C  C128  1  0.47303321  0.30781739  0.78376939  1  0.041049  0  -0.019601  -0.026023  0  3.979928  0
C  C129  1  0.53479724  0.33606435  0.84119635  1  -0.028833  0  -0.093895  -0.107458  0  4.014192  0
C  C130  1  0.63684385  0.32951754  0.84729605  1  -0.021612  0  -0.089637  -0.130131  0  3.997635  0
C  C131  1  0.68161526  0.29309295  0.79651540  1  -0.033207  0  -0.005497  0.075701  0  3.999748  0
C  C132  1  0.78325543  0.27966931  0.80177583  1  -0.067942  0  -0.076782  -0.13635  0  3.924894  0
C  C133  1  0.12816773  0.94826071  0.77605022  1  -0.040012  0  -0.022018  -0.031626  0  3.986845  0
C  C134  1  0.13807589  0.88004329  0.72722346  1  -0.061572  0  -0.080723  -0.13885  0  3.941235  0
C  C135  1  0.14937248  0.77972438  0.73513552  1  -0.017813  0  -0.007205  0.073516  0  4.006581  0
C  C136  1  0.15898129  0.70786153  0.68567884  1  -0.024287  0  -0.091392  -0.136841  0  4.008285  0
C  C137  1  0.16796363  0.60981024  0.69473631  1  -0.079095  0  -0.086833  -0.096023  0  3.992114  0
C  C138  1  0.16788679  0.57907057  0.75389579  1  -0.0338  0  -0.01658  -0.025771  0  3.972332  0
C  C139  1  0.15854349  0.64742517  0.80291903  1  -0.007191  0  -0.076942  -0.135283  0  3.924597  0
C  C140  1  0.14954185  0.74884070  0.79503846  1  -0.013465  0  -0.006776  0.0752  0  4.00494  0
C  C141  1  0.13960019  0.82074823  0.84446694  1  0.016637  0  -0.09352  -0.139716  0  4.00495  0
C  C142  1  0.12983739  0.91842905  0.83533805  1  -0.083798  0  -0.093611  -0.108924  0  4.00905  0
C  C143  1  0.23049122  0.35143704  0.96055887  1  0.490954  0  0.061976  0.111089  0  3.925081  0
C  C144  1  0.23352746  0.34518005  0.02225027  1  -0.00338  0  -0.072004  -0.193669  0  3.938253  0
C  C145  1  0.14272451  0.26108790  0.04443774  1  0.374812  0  0.115398  0.243739  0  4.007811  0
C  C146  1  0.05285502  0.18521987  0.00466136  1  0.01057  0  -0.068831  -0.19136  0  3.914438  0
C  C147  1  0.05636059  0.19746414  0.94349397  1  0.522296  0  0.064982  0.121486  0  3.886344  0
N  N148  1  0.86013094  0.76724902  0.38958671  1  -1.251627  0  -0.318821  -0.201647  0  3.521745  0
N  N149  1  0.86048884  0.75974819  0.57735730  1  -1.164206  0  -0.231543  -0.236219  0  3.562793  0
N  N150  1  0.85729892  0.74414517  0.89170386  1  -1.181952  0  -0.231512  -0.237507  0  3.571284  0
N  N151  1  0.85683526  0.72048107  0.07789887  1  -1.237592  0  -0.317922  -0.200954  0  3.521617  0
N  N152  1  0.13986546  0.23274757  0.61041149  1  -1.252484  0  -0.318813  -0.201675  0  3.52171  0
N  N153  1  0.13950892  0.24025178  0.42264202  1  -1.164276  0  -0.231505  -0.236219  0  3.562776  0
N  N154  1  0.14270295  0.25586491  0.10829794  1  -1.181904  0  -0.231503  -0.237606  0  3.571432  0
N  N155  1  0.14316789  0.27951899  0.92210236  1  -1.237794  0  -0.317955  -0.201079  0  3.52156  0
O  O156  1  0.89016523  0.92446276  0.28727092  1  -1.16308  0  -0.322473  -0.54949  0  2.31371  0
O  O157  1  0.87985048  0.88181429  0.18553832  1  -1.178786  0  -0.315953  -0.559717  0  2.372255  0
O  O158  1  0.02623040  0.78887385  0.29043174  1  -1.169422  0  -0.318395  -0.555767  0  2.340082  0
O  O159  1  0.02368118  0.75914857  0.18832786  1  -1.175729  0  -0.318941  -0.554064  0  2.33129  0
O  O160  1  0.82321929  0.59061678  0.28505840  1  -1.17054  0  -0.318723  -0.559692  0  2.350432  0
O  O161  1  0.82943330  0.55581638  0.18380642  1  -1.152776  0  -0.320593  -0.540901  0  2.30282  0
O  O162  1  0.69286504  0.72090793  0.27482368  1  -1.17322  0  -0.321151  -0.555864  0  2.34141  0
O  O163  1  0.68274000  0.67358963  0.17334764  1  -1.16969  0  -0.320908  -0.55317  0  2.312205  0
O  O164  1  0.84332738  0.92734582  0.58869281  1  -1.110952  0  -0.269571  -0.440069  0  2.117305  0
O  O165  1  0.85802703  0.92021184  0.90614295  1  -1.113667  0  -0.270668  -0.437849  0  2.090764  0
O  O166  1  0.87273898  0.57530296  0.87964794  1  -1.09963  0  -0.261129  -0.422059  0  2.103821  0
O  O167  1  0.87345451  0.58988454  0.56346925  1  -1.100764  0  -0.272876  -0.428682  0  2.064619  0
O  O168  1  0.10983271  0.07553386  0.71272866  1  -1.163102  0  -0.322454  -0.549534  0  2.313812  0
O  O169  1  0.12015020  0.11818154  0.81446172  1  -1.178456  0  -0.316033  -0.559802  0  2.372241  0
O  O170  1  0.97376925  0.21112700  0.70957261  1  -1.169223  0  -0.318457  -0.555734  0  2.340107  0
O  O171  1  0.97630667  0.24083450  0.81167563  1  -1.175566  0  -0.318931  -0.554071  0  2.331226  0
O  O172  1  0.17678317  0.40938158  0.71493868  1  -1.170546  0  -0.318768  -0.559738  0  2.350362  0
O  O173  1  0.17055266  0.44417334  0.81619027  1  -1.152567  0  -0.32073  -0.540948  0  2.302569  0
O  O174  1  0.30712922  0.27908527  0.72517473  1  -1.173394  0  -0.321167  -0.555932  0  2.341407  0
O  O175  1  0.31725391  0.32641026  0.82664937  1  -1.169144  0  -0.32089  -0.553234  0  2.312245  0
O  O176  1  0.15667218  0.07264915  0.41130760  1  -1.110409  0  -0.269535  -0.440059  0  2.117098  0
O  O177  1  0.14198271  0.07981012  0.09386376  1  -1.113389  0  -0.270794  -0.437848  0  2.090778  0
O  O178  1  0.12726255  0.42471381  0.12035158  1  -1.099913  0  -0.261178  -0.422171  0  2.103375  0
O  O179  1  0.12651810  0.41009492  0.43653059  1  -1.101324  0  -0.272802  -0.428655  0  2.064729  0
