# generated using pymatgen
data_CuH4C5BrNCl2
_symmetry_space_group_name_H-M   'P 1'
_cell_length_a   9.05767674
_cell_length_b   9.05817382
_cell_length_c   12.00584322
_cell_angle_alpha   78.54264279
_cell_angle_beta   78.54182674
_cell_angle_gamma   60.56754675
_symmetry_Int_Tables_number   1
_chemical_formula_structural   CuH4C5BrNCl2
_chemical_formula_sum   'Cu4 H16 C20 Br4 N4 Cl8'
_cell_volume   834.89186749
_cell_formula_units_Z   4
loop_
 _symmetry_equiv_pos_site_id
 _symmetry_equiv_pos_as_xyz
  1  'x, y, z'
loop_
 _atom_site_type_symbol
 _atom_site_label
 _atom_site_symmetry_multiplicity
 _atom_site_fract_x
 _atom_site_fract_y
 _atom_site_fract_z
 _atom_site_occupancy
 _atom_site_hle17_ddec_charge
 _atom_site_hle17_ddec_spin_density
 _atom_site_hle17_ddec_sum_bond_order
 _atom_site_hle17_magmom
 _atom_site_hse06_10hf_ddec_charge
 _atom_site_hse06_10hf_ddec_spin_density
 _atom_site_hse06_10hf_ddec_sum_bond_order
 _atom_site_hse06_10hf_magmom
 _atom_site_hse06_ddec_charge
 _atom_site_hse06_ddec_spin_density
 _atom_site_hse06_ddec_sum_bond_order
 _atom_site_hse06_magmom
 _atom_site_pbe_cm5_charge
 _atom_site_pbe_ddec_charge
 _atom_site_pbe_ddec_spin_density
 _atom_site_pbe_ddec_sum_bond_order
 _atom_site_pbe_magmom
Cu  Cu0  1  0.54205873  0.36884903  0.63024080  1  0.706714  0.593288  2.006105  0.423  0.712688  0.705694  2.404279  0.551  0.810842  0.798886  2.320058  0.644  0.503749  0.658541  0.627625  2.455924  0.483
Cu  Cu1  1  0.63117317  0.45797147  0.86971493  1  0.706598  -0.593254  2.006475  -0.423  0.712559  -0.705651  2.404684  -0.551  0.810754  -0.798844  2.320441  -0.644  0.503698  0.658436  -0.627593  2.456275  -0.483
Cu  Cu2  1  0.45819168  0.63091955  0.36981826  1  0.706588  -0.593017  2.005183  -0.422  0.712521  -0.705676  2.40339  -0.551  0.810803  -0.799001  2.31918  -0.644  0.503406  0.658357  -0.627466  2.45498  -0.483
Cu  Cu3  1  0.36905033  0.54181902  0.13022659  1  0.70668  0.59299  2.005136  0.422  0.712611  0.705628  2.403353  0.551  0.810834  0.798934  2.319181  0.644  0.50345  0.658438  0.627397  2.454975  0.483
H  H4  1  0.62679036  0.77432730  0.61759358  1  0.128979  0.000671  0.9492  0.001  0.134829  0.000672  1.015508  0.001  0.138263  0.000507  1.014139  0.001  0.099911  0.132329  0.000766  1.016659  0.001
H  H5  1  0.22575633  0.37312410  0.88241404  1  0.128789  -0.000666  0.949028  -0.001  0.13462  -0.000672  1.015384  -0.001  0.138052  -0.000507  1.014043  -0.001  0.09987  0.132125  -0.000767  1.01652  -0.001
H  H6  1  0.37308831  0.22579907  0.38236260  1  0.128846  -0.000662  0.948975  -0.001  0.134662  -0.00067  1.015366  -0.001  0.138106  -0.000505  1.014008  -0.001  0.099922  0.13216  -0.000764  1.016513  -0.001
H  H7  1  0.77414379  0.62690142  0.11756393  1  0.128901  0.000665  0.948563  0.001  0.134553  0.000671  1.015175  0.001  0.137983  0.000506  1.013827  0.001  0.099887  0.132056  0.000764  1.016318  0.001
H  H8  1  0.93915761  0.93395797  0.35496047  1  0.112978  0.000865  0.965201  0.001  0.123889  0.000838  1.022981  0.001  0.128142  0.000653  1.020371  0.0  0.096632  0.120823  0.000938  1.025254  0.001
H  H9  1  0.06589089  0.06099767  0.14509059  1  0.112795  -0.000863  0.9653  -0.001  0.123928  -0.000837  1.022827  -0.001  0.12818  -0.000652  1.020215  0.0  0.09671  0.120834  -0.000937  1.025127  -0.001
H  H10  1  0.06074876  0.06612103  0.64507276  1  0.112881  -0.000867  0.965766  -0.001  0.123991  -0.000839  1.023326  -0.001  0.12828  -0.000654  1.020672  0.0  0.096527  0.120869  -0.000939  1.025649  -0.001
H  H11  1  0.93395556  0.93920643  0.85493712  1  0.113049  0.000867  0.965503  0.001  0.124064  0.000839  1.023151  0.001  0.128354  0.000653  1.020498  0.0  0.096583  0.120937  0.000939  1.025473  0.001
H  H12  1  0.84788897  0.71129367  0.44673504  1  0.102293  0.000257  0.954253  0.0  0.110353  -1e-05  1.018974  0.0  0.114056  -3.3e-05  1.015027  0.0  0.096434  0.107731  2.4e-05  1.021687  0.0
H  H13  1  0.28868319  0.15212557  0.05331854  1  0.102186  -0.000259  0.954213  0.0  0.110273  1e-05  1.018923  0.0  0.113981  3.3e-05  1.014968  0.0  0.096358  0.107648  -2.4e-05  1.021644  0.0
H  H14  1  0.15199450  0.28880075  0.55325266  1  0.102011  -0.00026  0.953992  0.0  0.110355  1e-05  1.018482  0.0  0.114064  3.2e-05  1.014524  0.0  0.096482  0.107724  -2.4e-05  1.021215  0.0
H  H15  1  0.71123128  0.84796751  0.94668308  1  0.10222  0.000261  0.953953  0.0  0.110424  -1e-05  1.018533  0.0  0.114136  -3.3e-05  1.014572  0.0  0.096484  0.107798  2.4e-05  1.021255  0.0
H  H16  1  0.79658498  0.21504671  0.43664260  1  0.09135  0.001766  0.96887  0.002  0.100538  0.00161  1.03126  0.002  0.103371  0.001245  1.028228  0.001  0.103098  0.098401  0.001819  1.033609  0.002
H  H17  1  0.78482910  0.20358199  0.06335683  1  0.091434  -0.001768  0.969156  -0.002  0.100493  -0.00161  1.031643  -0.002  0.10331  -0.001246  1.02863  -0.001  0.103107  0.098368  -0.001819  1.033988  -0.002
H  H18  1  0.20327713  0.78506427  0.56337080  1  0.09127  -0.00176  0.968476  -0.002  0.10039  -0.001605  1.030926  -0.002  0.103211  -0.001241  1.027892  -0.001  0.103147  0.098255  -0.001813  1.03327  -0.002
H  H19  1  0.21499549  0.79663742  0.93668269  1  0.091334  0.001758  0.968718  0.002  0.100372  0.001603  1.031291  0.002  0.103188  0.00124  1.028261  0.001  0.103156  0.098258  0.001811  1.033615  0.002
C  C20  1  0.67123734  0.86617810  0.57636487  1  -0.162934  0.008586  3.723077  0.009  -0.178017  0.004172  3.968295  0.005  -0.186303  0.003945  3.989205  0.004  -0.096546  -0.172657  0.003916  3.954334  0.004
C  C21  1  0.13385731  0.32870883  0.92363778  1  -0.162552  -0.008588  3.723815  -0.009  -0.177673  -0.004169  3.969056  -0.005  -0.185976  -0.003944  3.989988  -0.004  -0.096566  -0.172307  -0.003914  3.95509  -0.004
C  C22  1  0.32865995  0.13390610  0.42361563  1  -0.16261  -0.008569  3.722138  -0.009  -0.177808  -0.004169  3.967525  -0.005  -0.186099  -0.003942  3.988421  -0.004  -0.096735  -0.172445  -0.003913  3.95357  -0.004
C  C23  1  0.86607577  0.67132557  0.07634980  1  -0.162108  0.008579  3.721837  0.009  -0.17706  0.004167  3.967145  0.005  -0.185351  0.003942  3.988065  0.004  -0.096294  -0.171697  0.003912  3.953187  0.004
C  C24  1  0.84293474  0.95681361  0.42926840  1  -0.114427  0.01009  3.71505  0.01  -0.128417  0.005305  3.964152  0.006  -0.135184  0.00483  3.982036  0.006  -0.086923  -0.123863  0.005194  3.951809  0.006
C  C25  1  0.04311722  0.15715483  0.07075295  1  -0.114342  -0.010094  3.714991  -0.01  -0.128604  -0.005304  3.964188  -0.006  -0.135367  -0.004827  3.982059  -0.006  -0.087047  -0.124027  -0.005192  3.951866  -0.006
C  C26  1  0.15697960  0.04324372  0.57075021  1  -0.114641  -0.010082  3.714145  -0.01  -0.128842  -0.005312  3.96333  -0.006  -0.135635  -0.004833  3.981193  -0.006  -0.087086  -0.124237  -0.005203  3.95099  -0.006
C  C27  1  0.95679208  0.84298034  0.92925651  1  -0.114847  0.01009  3.713713  0.01  -0.128884  0.005308  3.96281  0.006  -0.135678  0.004831  3.980673  0.006  -0.087134  -0.124274  0.005198  3.950463  0.006
C  C28  1  0.79396247  0.83280545  0.48078805  1  0.017885  -0.008316  3.698257  -0.008  -0.000393  -0.003142  3.945649  -0.003  0.00542  -0.003438  3.960332  -0.004  -0.068689  -0.00414  -0.002687  3.9356  -0.003
C  C29  1  0.16717460  0.20604936  0.01923076  1  0.017831  0.008318  3.698804  0.008  -0.000396  0.003141  3.946226  0.003  0.005417  0.003437  3.960914  0.004  -0.068616  -0.004141  0.002686  3.936163  0.003
C  C30  1  0.20593645  0.16726088  0.51920069  1  0.018062  0.008286  3.698067  0.008  -0.000365  0.003137  3.945447  0.003  0.005446  0.003432  3.960158  0.004  -0.068703  -0.00411  0.002682  3.93536  0.003
C  C31  1  0.83274858  0.79403478  0.98077006  1  0.017601  -0.008302  3.698175  -0.008  -0.000766  -0.003136  3.945626  -0.003  0.005046  -0.003433  3.96032  -0.004  -0.068898  -0.004513  -0.002682  3.935541  -0.003
C  C32  1  0.76676042  0.11137977  0.47377717  1  0.145221  -0.006179  3.656119  -0.007  0.116802  -0.00128  3.904988  -0.002  0.126264  -0.002403  3.923254  -0.004  0.044101  0.110929  -0.000306  3.892939  -0.001
C  C33  1  0.88854731  0.23333323  0.02622708  1  0.145288  0.006192  3.655952  0.007  0.116991  0.001284  3.904966  0.002  0.126462  0.002404  3.923223  0.004  0.044226  0.111098  0.000309  3.89293  0.001
C  C34  1  0.23327023  0.88860983  0.52623339  1  0.145566  0.006167  3.655243  0.007  0.117194  0.001282  3.904357  0.002  0.126674  0.002401  3.922633  0.004  0.0442  0.111322  0.000308  3.892276  0.001
C  C35  1  0.11141635  0.76669343  0.97379042  1  0.145511  -0.006184  3.654985  -0.007  0.117162  -0.001284  3.904088  -0.002  0.126637  -0.002405  3.922369  -0.004  0.04422  0.111274  -0.00031  3.892014  -0.001
C  C36  1  0.60484409  0.02299077  0.61736501  1  0.242185  -0.004999  3.709366  -0.006  0.240532  -0.000533  3.982624  -0.001  0.253023  -0.001769  4.003752  -0.003  0.110121  0.232306  0.000556  3.968912  0.0
C  C37  1  0.97706797  0.39511579  0.88260925  1  0.242145  0.004998  3.709936  0.006  0.24056  0.000529  3.983173  0.001  0.253059  0.001767  4.004299  0.003  0.110131  0.232329  -0.000559  3.969458  0.0
C  C38  1  0.39511159  0.97701930  0.38265865  1  0.241842  0.004979  3.709449  0.006  0.240369  0.000533  3.982587  0.001  0.252863  0.001767  4.003734  0.003  0.110096  0.23214  -0.000553  3.968886  0.0
C  C39  1  0.02292943  0.60489690  0.11735035  1  0.241842  -0.004989  3.70981  -0.006  0.240321  -0.00053  3.983001  -0.001  0.252817  -0.001765  4.004135  -0.003  0.11004  0.232088  0.000557  3.969294  0.0
Br  Br40  1  0.44577013  0.07218564  0.75075161  1  -0.024835  0.00218  1.358293  0.003  -0.021544  0.002335  1.62604  0.003  -0.02786  0.001381  1.616714  0.002  0.08636  -0.017486  0.002936  1.632726  0.004
Br  Br41  1  0.92794524  0.55412149  0.74918991  1  -0.024769  -0.002179  1.35814  -0.003  -0.021537  -0.002334  1.625972  -0.003  -0.027828  -0.00138  1.616595  -0.002  0.086371  -0.017479  -0.002938  1.632656  -0.004
Br  Br42  1  0.55393920  0.92803281  0.24917606  1  -0.024855  -0.002175  1.358529  -0.003  -0.021592  -0.002329  1.626365  -0.003  -0.027897  -0.001376  1.617002  -0.002  0.086343  -0.01751  -0.002929  1.633032  -0.004
Br  Br43  1  0.07186367  0.44611453  0.25084447  1  -0.024881  0.002176  1.358696  0.003  -0.021607  0.002329  1.626586  0.003  -0.027889  0.001375  1.617183  0.002  0.086333  -0.017523  0.002928  1.633252  0.004
N  N44  1  0.64907041  0.14370973  0.56702111  1  -0.326706  0.071552  3.37752  0.09  -0.27075  0.054907  3.650296  0.074  -0.304785  0.048415  3.676283  0.068  -0.352742  -0.250616  0.055403  3.634782  0.073
N  N45  1  0.85629986  0.35094218  0.93294691  1  -0.326759  -0.07157  3.378044  -0.09  -0.270807  -0.054914  3.650717  -0.074  -0.304847  -0.04842  3.676704  -0.068  -0.352798  -0.250669  -0.055408  3.635203  -0.073
N  N46  1  0.35093724  0.85625694  0.43298294  1  -0.32663  -0.071379  3.377478  -0.09  -0.270763  -0.054819  3.650244  -0.074  -0.304827  -0.048333  3.676256  -0.068  -0.352326  -0.250611  -0.0553  3.634727  -0.072
N  N47  1  0.14371766  0.64905383  0.06705882  1  -0.326812  0.071415  3.377318  0.09  -0.270931  0.054836  3.650078  0.074  -0.30498  0.048351  3.676062  0.068  -0.352579  -0.250782  0.055324  3.634553  0.072
Cl  Cl48  1  0.41904969  0.58101816  0.74996279  1  -0.417441  3.8e-05  1.215971  0.0  -0.427163  3e-05  1.541779  0.0  -0.474975  2.5e-05  1.514828  0.0  -0.247022  -0.401397  3.5e-05  1.562042  0.0
Cl  Cl49  1  0.58129112  0.41866623  0.25003371  1  -0.417522  -2.8e-05  1.214923  0.0  -0.427212  -2.1e-05  1.540395  0.0  -0.475127  -1.5e-05  1.513542  0.0  -0.246959  -0.401441  -1.5e-05  1.560644  0.0
Cl  Cl50  1  0.75663598  0.24338979  0.74998682  1  -0.428638  -3.2e-05  1.237632  0.0  -0.434748  -2.1e-05  1.550777  0.0  -0.47936  -1.7e-05  1.524696  0.0  -0.241669  -0.410867  -2.1e-05  1.569784  0.0
Cl  Cl51  1  0.24390737  0.75606727  0.25001919  1  -0.428088  2.4e-05  1.239196  0.0  -0.434344  1.3e-05  1.552996  0.0  -0.478949  1.5e-05  1.526814  0.0  -0.241556  -0.410482  2e-05  1.572062  0.0
Cl  Cl52  1  0.31154010  0.48354346  0.53263358  1  -0.495505  0.121081  1.106088  0.137  -0.509372  0.080035  1.413824  0.095  -0.547949  0.065663  1.387543  0.081  -0.291056  -0.486001  0.082721  1.431751  0.096
Cl  Cl53  1  0.51649040  0.68844301  0.96739209  1  -0.495488  -0.121078  1.105735  -0.137  -0.50936  -0.080037  1.413388  -0.095  -0.547937  -0.06566  1.387101  -0.081  -0.290987  -0.485988  -0.082719  1.431298  -0.096
Cl  Cl54  1  0.68887352  0.51620829  0.46745871  1  -0.495779  -0.120905  1.104993  -0.137  -0.509592  -0.079857  1.412492  -0.095  -0.548171  -0.065494  1.386216  -0.081  -0.29115  -0.486205  -0.082523  1.430383  -0.096
Cl  Cl55  1  0.48376068  0.31123400  0.03249888  1  -0.495703  0.120885  1.105023  0.137  -0.509495  0.079855  1.412471  0.095  -0.548064  0.065499  1.386192  0.081  -0.291073  -0.486107  0.082526  1.430358  0.096
