# generated using pymatgen
data_MnH14C20(NO3)2
_symmetry_space_group_name_H-M   'P 1'
_cell_length_a   9.97136179
_cell_length_b   10.13053274
_cell_length_c   10.13000923
_cell_angle_alpha   68.43361253
_cell_angle_beta   73.60186193
_cell_angle_gamma   73.60516324
_symmetry_Int_Tables_number   1
_chemical_formula_structural   MnH14C20(NO3)2
_chemical_formula_sum   'Mn2 H28 C40 N4 O12'
_cell_volume   894.48139055
_cell_formula_units_Z   2
loop_
 _symmetry_equiv_pos_site_id
 _symmetry_equiv_pos_as_xyz
  1  'x, y, z'
loop_
 _atom_site_type_symbol
 _atom_site_label
 _atom_site_symmetry_multiplicity
 _atom_site_fract_x
 _atom_site_fract_y
 _atom_site_fract_z
 _atom_site_occupancy
 _atom_site_pbe_cm5_charge
 _atom_site_pbe_ddec_charge
 _atom_site_pbe_ddec_spin_density
 _atom_site_pbe_ddec_sum_bond_order
 _atom_site_pbe_magmom
Mn  Mn0  1  0.75005720  0.03161550  0.96830487  1  0.677285  0.806498  -1.389671  3.267053  -1.345
Mn  Mn1  1  0.25008221  0.96304639  0.03692803  1  0.632007  0.928683  -4.583115  2.433809  -4.41
H  H2  1  0.38139646  0.85782674  0.73874236  1  0.109992  0.140028  0.000454  1.039734  0.0
H  H3  1  0.11871106  0.26120859  0.14203521  1  0.110155  0.140054  0.000449  1.039961  0.0
H  H4  1  0.59629769  0.13328849  0.26885582  1  0.11133  0.137951  0.000187  1.034736  0.0
H  H5  1  0.90373210  0.73114314  0.86661517  1  0.111373  0.137811  0.00019  1.034738  0.0
H  H6  1  0.44532156  0.93716589  0.44083650  1  0.104938  0.129284  0.00055  1.038607  0.0
H  H7  1  0.05469469  0.55910648  0.06293847  1  0.104989  0.129275  0.000552  1.038586  0.0
H  H8  1  0.53853377  0.05705408  0.56694334  1  0.105419  0.129973  6.6e-05  1.035276  0.0
H  H9  1  0.96145179  0.43307980  0.94305260  1  0.105393  0.12982  6.4e-05  1.035312  0.0
H  H10  1  0.18350885  0.03635266  0.36066146  1  0.123808  0.107924  0.000362  1.041084  0.0
H  H11  1  0.31652194  0.63932237  0.96362280  1  0.123789  0.108013  0.000362  1.04094  0.0
H  H12  1  0.80350832  0.96518566  0.63996940  1  0.125373  0.111605  -4.9e-05  1.033981  0.0
H  H13  1  0.69653245  0.36003761  0.03483596  1  0.125361  0.111692  -4.7e-05  1.03417  0.0
H  H14  1  0.52789847  0.88661844  0.19622843  1  0.118917  0.094439  0.00124  1.076852  0.0
H  H15  1  0.97198814  0.80379170  0.11330537  1  0.119022  0.094619  0.001231  1.076772  0.0
H  H16  1  0.47107912  0.12136930  0.80176284  1  0.122098  0.095623  -0.000767  1.048756  -0.001
H  H17  1  0.02889793  0.19827569  0.87864781  1  0.122126  0.09562  -0.000757  1.048859  -0.001
H  H18  1  0.51920709  0.67606972  0.41626835  1  0.100929  0.105188  -6e-06  1.028771  0.0
H  H19  1  0.98072048  0.58375745  0.32380792  1  0.100683  0.104668  -6e-06  1.029267  0.0
H  H20  1  0.48066450  0.33689799  0.57962692  1  0.105944  0.110717  -0.000189  1.026845  0.0
H  H21  1  0.01935879  0.42035383  0.66308580  1  0.105969  0.110729  -0.000189  1.026929  0.0
H  H22  1  0.56662743  0.57026598  0.66134738  1  0.106968  0.120227  3.2e-05  0.99202  0.0
H  H23  1  0.93334631  0.33874576  0.42974709  1  0.106943  0.120195  3.2e-05  0.992194  0.0
H  H24  1  0.43460451  0.42868904  0.34111847  1  0.112068  0.124227  -0.000303  0.986983  0.0
H  H25  1  0.06538860  0.65886520  0.57131490  1  0.112038  0.124197  -0.000303  0.986918  0.0
H  H26  1  0.92414622  0.12891976  0.64929981  1  0.113881  0.073788  0.000431  1.112829  0.0
H  H27  1  0.57580146  0.35068947  0.87109831  1  0.113999  0.07379  0.000432  1.113004  0.0
H  H28  1  0.07181316  0.87063605  0.34744455  1  0.116392  0.074982  -5e-05  1.096025  -0.001
H  H29  1  0.42821354  0.65256869  0.12936287  1  0.116415  0.074936  -4.9e-05  1.096004  -0.001
C  C30  1  0.06640658  0.91764131  0.84724445  1  0.215211  0.524827  -0.006621  4.219641  -0.009
C  C31  1  0.43363512  0.15276370  0.08236382  1  0.215296  0.525405  -0.006846  4.219237  -0.009
C  C32  1  0.91466694  0.08198851  0.15553600  1  0.220117  0.53803  -0.008574  4.218426  -0.008
C  C33  1  0.58531238  0.84439217  0.91808873  1  0.219893  0.53766  -0.008266  4.217616  -0.008
C  C34  1  0.16116806  0.92436012  0.70576983  1  0.047744  0.030012  0.002869  3.966704  0.001
C  C35  1  0.33883197  0.29422980  0.07554853  1  0.047366  0.029426  0.002871  3.966437  0.001
C  C36  1  0.81743020  0.06852265  0.29642806  1  0.052199  0.036165  -0.000429  3.958483  -0.001
C  C37  1  0.68256328  0.70355395  0.93135501  1  0.052191  0.03638  -0.000513  3.957636  -0.001
C  C38  1  0.30787941  0.89863617  0.66486125  1  -0.109826  -0.179263  0.000861  3.994439  0.0
C  C39  1  0.19213032  0.33515856  0.10131173  1  -0.109673  -0.178677  0.000715  3.994488  0.0
C  C40  1  0.67126619  0.09274599  0.34092160  1  -0.106442  -0.17136  -0.002395  3.994395  -0.002
C  C41  1  0.82873846  0.65909657  0.90716489  1  -0.106535  -0.171516  -0.002201  3.994519  -0.002
C  C42  1  0.34054025  0.94186411  0.51060566  1  -0.125769  -0.189277  0.000103  4.04454  0.0
C  C43  1  0.15950312  0.48938721  0.05816522  1  -0.125613  -0.189172  0.000123  4.044531  0.0
C  C44  1  0.64211353  0.05260253  0.49498965  1  -0.124443  -0.190312  0.000128  4.042398  0.0
C  C45  1  0.85789258  0.50504868  0.94739351  1  -0.124384  -0.190038  8.8e-05  4.043103  0.0
C  C46  1  0.21273766  0.99145682  0.46603053  1  -0.001167  0.050068  -0.000531  3.864803  -0.001
C  C47  1  0.28733262  0.53393191  0.00856358  1  -0.001599  0.049372  -0.000616  3.86497  -0.001
C  C48  1  0.77163712  0.00612386  0.53597339  1  0.001252  0.055296  -0.002656  3.857494  -0.002
C  C49  1  0.72839638  0.46403560  0.99384667  1  0.001064  0.054941  -0.002499  3.85827  -0.002
C  C50  1  0.62654433  0.81830517  0.22900583  1  0.024801  0.051337  0.028226  3.935441  0.014
C  C51  1  0.87335586  0.77104558  0.18173999  1  0.024942  0.05106  0.02815  3.936841  0.014
C  C52  1  0.37368670  0.19036332  0.76582048  1  0.048468  0.090966  -0.004229  3.941196  -0.004
C  C53  1  0.12631250  0.23419537  0.80965328  1  0.048478  0.091182  -0.004222  3.941262  -0.004
C  C54  1  0.62304149  0.69899711  0.35290996  1  -0.091217  -0.172075  0.003971  3.966195  -0.001
C  C55  1  0.87685536  0.64711115  0.30099052  1  -0.090794  -0.171216  0.004003  3.967132  -0.001
C  C56  1  0.37821192  0.30996345  0.64240963  1  -0.08266  -0.170771  0.003011  3.948325  0.001
C  C57  1  0.12180196  0.35756574  0.69002866  1  -0.082588  -0.170665  0.00299  3.948533  0.001
C  C58  1  0.74995470  0.60683502  0.39318378  1  -0.008471  0.078681  0.051892  3.999671  0.03
C  C59  1  0.25000670  0.39683641  0.60315253  1  0.008531  0.103464  0.003313  4.005393  0.002
C  C60  1  0.74998980  0.47794869  0.52209551  1  -0.001359  0.087913  0.024231  4.016212  0.012
C  C61  1  0.25000538  0.52514984  0.47485288  1  0.007989  0.096144  0.001873  4.018604  0.001
C  C62  1  0.64836873  0.47471202  0.65156160  1  -0.09203  -0.184714  0.012531  3.958961  0.006
C  C63  1  0.85162483  0.34851801  0.52529863  1  -0.092185  -0.18474  0.012537  3.958938  0.006
C  C64  1  0.35341880  0.52515249  0.34819462  1  -0.081876  -0.171555  0.00345  3.944932  0.002
C  C65  1  0.14659296  0.65178860  0.47485153  1  -0.081797  -0.171505  0.003438  3.944882  0.002
C  C66  1  0.65295089  0.35081643  0.77154065  1  0.033465  0.068091  0.009419  3.966746  0.004
C  C67  1  0.84699822  0.22847924  0.64913707  1  0.033466  0.067816  0.009407  3.966507  0.004
C  C68  1  0.34969532  0.64909646  0.22909761  1  0.047411  0.089094  -0.004242  3.96908  -0.005
C  C69  1  0.15032654  0.77090160  0.35091951  1  0.047419  0.088966  -0.004241  3.969297  -0.005
N  N70  1  0.74996274  0.85833653  0.14173079  1  -0.355446  -0.22569  0.046708  3.637  0.035
N  N71  1  0.24999106  0.15242736  0.84761893  1  -0.332711  -0.258786  -0.023735  3.562436  -0.006
N  N72  1  0.74995762  0.22579772  0.77415382  1  -0.309192  -0.197889  0.036635  3.436256  0.028
N  N73  1  0.25002342  0.77073308  0.22928395  1  -0.325961  -0.238487  -0.020261  3.477783  -0.002
O  O74  1  0.12583416  0.88093451  0.95506172  1  -0.305051  -0.53516  -0.037907  2.382074  -0.021
O  O75  1  0.37420108  0.04493725  0.11904214  1  -0.30508  -0.535363  -0.038027  2.381944  -0.021
O  O76  1  0.86355204  0.10914957  0.04249218  1  -0.304532  -0.499751  -0.022988  2.469356  -0.019
O  O77  1  0.63643370  0.95735872  0.89119855  1  -0.304807  -0.499494  -0.023254  2.46988  -0.019
O  O78  1  0.93060844  0.94981673  0.85153172  1  -0.296972  -0.497219  -0.01735  2.464925  -0.012
O  O79  1  0.56939596  0.14849672  0.05038722  1  -0.296651  -0.497351  -0.017191  2.463624  -0.012
O  O80  1  0.04657298  0.07145184  0.14937388  1  -0.2995  -0.541651  -0.033985  2.327789  -0.019
O  O81  1  0.45338982  0.85058999  0.92856857  1  -0.299474  -0.541758  -0.033937  2.328467  -0.019
O  O82  1  0.10237677  0.98017680  0.58305848  1  -0.122587  -0.087463  0.00143  2.66678  0.001
O  O83  1  0.39767302  0.41690958  0.01979181  1  -0.122074  -0.086799  0.001395  2.666784  0.001
O  O84  1  0.87940852  0.01657555  0.41693666  1  -0.121232  -0.089546  9.6e-05  2.663423  0.0
O  O85  1  0.62059529  0.58303558  0.98333880  1  -0.12121  -0.08959  0.000119  2.663343  0.0
