# generated using pymatgen
data_MgPH8C3NO4
_symmetry_space_group_name_H-M   'P 1'
_cell_length_a   6.24305278
_cell_length_b   16.33334307
_cell_length_c   16.33241176
_cell_angle_alpha   118.39673882
_cell_angle_beta   97.31395767
_cell_angle_gamma   97.30901411
_symmetry_Int_Tables_number   1
_chemical_formula_structural   MgPH8C3NO4
_chemical_formula_sum   'Mg6 P6 H48 C18 N6 O24'
_cell_volume   1419.05894854
_cell_formula_units_Z   6
loop_
 _symmetry_equiv_pos_site_id
 _symmetry_equiv_pos_as_xyz
  1  'x, y, z'
loop_
 _atom_site_type_symbol
 _atom_site_label
 _atom_site_symmetry_multiplicity
 _atom_site_fract_x
 _atom_site_fract_y
 _atom_site_fract_z
 _atom_site_occupancy
 _atom_site_pbe_bader_charge
 _atom_site_pbe_bader_spin_density
 _atom_site_pbe_cm5_charge
 _atom_site_pbe_ddec_charge
 _atom_site_pbe_ddec_spin_density
 _atom_site_pbe_ddec_sum_bond_order
 _atom_site_pbe_magmom
Mg  Mg0  1  0.03411448  0.32746530  0.58064688  1  1.679642  0  0.849563  1.37819  0  1.390582  0
Mg  Mg1  1  0.70655145  0.25314049  0.67254141  1  1.683854  0  0.849432  1.379032  0  1.389314  0
Mg  Mg2  1  0.45344991  0.41940982  0.74681468  1  1.682781  0  0.849268  1.378273  0  1.390297  0
Mg  Mg3  1  0.96588584  0.67253548  0.41935444  1  1.679631  0  0.84955  1.378196  0  1.39058  0
Mg  Mg4  1  0.29345174  0.74685958  0.32745848  1  1.683875  0  0.84944  1.379087  0  1.389266  0
Mg  Mg5  1  0.54655364  0.58059096  0.25318618  1  1.682774  0  0.84925  1.378254  0  1.390347  0
P  P6  1  0.53806813  0.33676263  0.53174539  1  3.373071  0  0.332468  1.321235  0  5.40389  0
P  P7  1  0.20128287  0.19499360  0.66321332  1  3.366254  0  0.331632  1.319082  0  5.406975  0
P  P8  1  0.00624283  0.46819780  0.80500038  1  3.370758  0  0.332401  1.321303  0  5.405265  0
P  P9  1  0.46192861  0.66323744  0.46825235  1  3.372742  0  0.332429  1.321121  0  5.404136  0
P  P10  1  0.79871997  0.80500575  0.33678622  1  3.366309  0  0.331631  1.319053  0  5.407067  0
P  P11  1  0.99376055  0.53179942  0.19499878  1  3.37028  0  0.332408  1.321379  0  5.405287  0
H  H12  1  0.63404622  0.48424689  0.52772447  1  0.052265  0  0.10234  0.109851  0  1.035003  0
H  H13  1  0.14995338  0.04358227  0.51570098  1  0.041024  0  0.102557  0.10972  0  1.034886  0
H  H14  1  0.10633451  0.47217991  0.95648450  1  0.063502  0  0.102533  0.110217  0  1.033526  0
H  H15  1  0.36595303  0.51575175  0.47227577  1  0.052288  0  0.102324  0.109815  0  1.035017  0
H  H16  1  0.85004749  0.95641637  0.48429567  1  0.041052  0  0.102574  0.109681  0  1.034955  0
H  H17  1  0.89366348  0.52781944  0.04351542  1  0.063526  0  0.102538  0.110222  0  1.033512  0
H  H18  1  0.74088105  0.49508548  0.63861209  1  0.078366  0  0.122959  0.141776  0  1.013741  0
H  H19  1  0.24606934  0.14363136  0.50490256  1  0.092097  0  0.122916  0.141636  0  1.014133  0
H  H20  1  0.10255613  0.36135025  0.85647156  1  0.111749  0  0.122932  0.141769  0  1.013979  0
H  H21  1  0.25911532  0.50491387  0.36138959  1  0.078382  0  0.122979  0.141772  0  1.013747  0
H  H22  1  0.75393296  0.85637013  0.49509674  1  0.09176  0  0.12293  0.141654  0  1.014076  0
H  H23  1  0.89744312  0.63864839  0.14352868  1  0.111783  0  0.122912  0.141785  0  1.013987  0
H  H24  1  0.79732346  0.33579416  0.39435981  1  0.055445  0  0.110454  0.096357  0  0.988545  0
H  H25  1  0.46132760  0.05859991  0.66423971  1  0.070459  0  0.110794  0.096673  0  0.98894  0
H  H26  1  0.40260356  0.60564631  0.94143005  1  0.066064  0  0.110883  0.096656  0  0.987536  0
H  H27  1  0.20267004  0.66420590  0.60564328  1  0.055465  0  0.110431  0.096272  0  0.9887  0
H  H28  1  0.53867702  0.94140301  0.33575977  1  0.070391  0  0.110773  0.096642  0  0.988965  0
H  H29  1  0.59739640  0.39435376  0.05857030  1  0.066048  0  0.110897  0.096675  0  0.987537  0
H  H30  1  0.08828811  0.37743719  0.42127047  1  0.052319  0  0.108084  0.087614  0  1.00274  0
H  H31  1  0.71059807  0.04372798  0.62252839  1  0.03095  0  0.107916  0.086987  0  1.002965  0
H  H32  1  0.66679114  0.57880412  0.95617752  1  0.065118  0  0.108045  0.087043  0  1.002755  0
H  H33  1  0.91170503  0.62256216  0.57873227  1  0.052248  0  0.108065  0.0876  0  1.002807  0
H  H34  1  0.28940979  0.95627493  0.37746941  1  0.030992  0  0.107913  0.087017  0  1.002961  0
H  H35  1  0.33320972  0.42119452  0.04382342  1  0.065138  0  0.108052  0.087041  0  1.002743  0
H  H36  1  0.26854173  0.51091511  0.58906508  1  0.028791  0  0.109783  0.09085  0  0.99967  0
H  H37  1  0.75796307  0.07804121  0.48909265  1  0.03233  0  0.11014  0.091142  0  0.999645  0
H  H38  1  0.67974849  0.41105200  0.92191558  1  0.052256  0  0.110002  0.091147  0  0.999606  0
H  H39  1  0.73145338  0.48908495  0.41093503  1  0.028756  0  0.109792  0.090865  0  0.999645  0
H  H40  1  0.24204317  0.92196171  0.51090508  1  0.032358  0  0.110136  0.091105  0  0.999675  0
H  H41  1  0.32025147  0.58894806  0.07808538  1  0.052262  0  0.110001  0.091134  0  0.999601  0
H  H42  1  0.09723357  0.55663844  0.67054123  1  0.070409  0  0.114583  0.107174  0  0.975665  0
H  H43  1  0.54109275  0.11386508  0.44334335  1  0.060659  0  0.114471  0.107131  0  0.975985  0
H  H44  1  0.42712792  0.32948953  0.88612981  1  0.089921  0  0.114504  0.107126  0  0.976741  0
H  H45  1  0.90276441  0.44336091  0.32946419  1  0.070497  0  0.114632  0.10717  0  0.975782  0
H  H46  1  0.45890865  0.88613784  0.55665536  1  0.060872  0  0.114485  0.107117  0  0.976019  0
H  H47  1  0.57287042  0.67051054  0.11387046  1  0.089932  0  0.114507  0.107135  0  0.976716  0
H  H48  1  0.18155643  0.23703347  0.42310751  1  0.656692  0  0.29105  0.399279  0  0.944087  0
H  H49  1  0.94430534  0.18609080  0.76302920  1  0.656718  0  0.291516  0.399846  0  0.943247  0
H  H50  1  0.75821527  0.57692204  0.81391147  1  0.657263  0  0.291716  0.400077  0  0.943016  0
H  H51  1  0.81844227  0.76296731  0.57689190  1  0.656696  0  0.291051  0.39926  0  0.944119  0
H  H52  1  0.05569427  0.81390855  0.23696896  1  0.656733  0  0.291531  0.399871  0  0.94321  0
H  H53  1  0.24178631  0.42307802  0.18609018  1  0.657185  0  0.291734  0.40011  0  0.942971  0
H  H54  1  0.91445491  0.19130605  0.38923991  1  0.622834  0  0.336025  0.419845  0  0.859048  0
H  H55  1  0.72292644  0.19790033  0.80880100  1  0.62534  0  0.336099  0.419424  0  0.859201  0
H  H56  1  0.52502850  0.61090223  0.80212234  1  0.613732  0  0.335807  0.419291  0  0.859542  0
H  H57  1  0.08554218  0.80869472  0.61076125  1  0.622839  0  0.335999  0.419835  0  0.859074  0
H  H58  1  0.27707802  0.80209902  0.19119800  1  0.62532  0  0.336073  0.419343  0  0.859324  0
H  H59  1  0.47497308  0.38909783  0.19787809  1  0.613726  0  0.335801  0.419269  0  0.85956  0
C  C60  1  0.71834570  0.44890661  0.56122924  1  -0.261909  0  -0.08154  -0.387977  0  3.906158  0
C  C61  1  0.26964836  0.11239604  0.55105872  1  -0.253476  0  -0.081459  -0.386604  0  3.906435  0
C  C62  1  0.15723120  0.43873314  0.88766959  1  -0.300913  0  -0.081852  -0.388253  0  3.905827  0
C  C63  1  0.28164942  0.55109346  0.43877271  1  -0.261979  0  -0.081508  -0.387833  0  3.906175  0
C  C64  1  0.73035232  0.88760545  0.44894111  1  -0.253107  0  -0.081514  -0.386548  0  3.906529  0
C  C65  1  0.84276966  0.56126550  0.11233074  1  -0.300841  0  -0.081821  -0.388263  0  3.905857  0
C  C66  1  0.93163082  0.39954924  0.43556880  1  0.224922  0  -0.074491  -0.102666  0  3.897051  0
C  C67  1  0.53187889  0.03600933  0.60044776  1  0.263049  0  -0.074517  -0.101871  0  3.897914  0
C  C68  1  0.49590021  0.56445022  0.96396888  1  0.225111  0  -0.074383  -0.101267  0  3.894588  0
C  C69  1  0.06836213  0.60045296  0.56443529  1  0.225025  0  -0.074399  -0.102444  0  3.896993  0
C  C70  1  0.46812538  0.96399287  0.39955076  1  0.263599  0  -0.074485  -0.101864  0  3.898024  0
C  C71  1  0.50410263  0.43554913  0.03603066  1  0.225134  0  -0.07442  -0.10129  0  3.894574  0
C  C72  1  0.10440226  0.52769274  0.59524330  1  0.279832  0  -0.071871  -0.085179  0  3.864496  0
C  C73  1  0.57707630  0.06751715  0.47230577  1  0.265361  0  -0.071817  -0.084931  0  3.863561  0
C  C74  1  0.50942404  0.40478168  0.93246989  1  0.217109  0  -0.072031  -0.085995  0  3.865669  0
C  C75  1  0.89559159  0.47230803  0.40475953  1  0.279776  0  -0.071914  -0.085132  0  3.864673  0
C  C76  1  0.42292474  0.93248505  0.52769137  1  0.265291  0  -0.071811  -0.084848  0  3.86364  0
C  C77  1  0.49057683  0.59521696  0.06752921  1  0.21714  0  -0.072018  -0.08597  0  3.865619  0
N  N78  1  0.93844598  0.43597423  0.53878572  1  -1.03424  0  -0.360928  -0.165232  0  3.48715  0
N  N79  1  0.50259449  0.10282454  0.56402408  1  -1.054082  0  -0.361551  -0.166944  0  3.488733  0
N  N80  1  0.39972882  0.46122461  0.89719566  1  -1.041519  0  -0.361307  -0.165874  0  3.488878  0
N  N81  1  0.06155129  0.56402370  0.46121409  1  -1.034278  0  -0.360997  -0.165382  0  3.487353  0
N  N82  1  0.49740851  0.89717837  0.43597593  1  -1.05454  0  -0.361478  -0.16689  0  3.488915  0
N  N83  1  0.60027240  0.53877474  0.10280502  1  -1.041531  0  -0.361295  -0.165882  0  3.488826  0
O  O84  1  0.42347623  0.27930909  0.42694791  1  -1.479438  0  -0.403629  -0.767095  0  2.046866  0
O  O85  1  0.14413751  0.14764738  0.72068866  1  -1.469794  0  -0.403847  -0.767011  0  2.047125  0
O  O86  1  0.99632513  0.57298953  0.85234110  1  -1.473814  0  -0.403541  -0.767515  0  2.048128  0
O  O87  1  0.57651799  0.72069240  0.57305039  1  -1.479376  0  -0.403637  -0.767103  0  2.046997  0
O  O88  1  0.85586497  0.85235125  0.27930991  1  -1.469853  0  -0.403821  -0.766972  0  2.047192  0
O  O89  1  0.00367770  0.42700982  0.14765966  1  -1.473463  0  -0.403581  -0.767567  0  2.048099  0
O  O90  1  0.37167364  0.36574014  0.59831410  1  -1.538845  0  -0.442268  -0.895097  0  2.297864  0
O  O91  1  0.00588756  0.23258717  0.63428297  1  -1.544344  0  -0.442348  -0.895453  0  2.299132  0
O  O92  1  0.77333741  0.40165609  0.76741710  1  -1.548585  0  -0.442139  -0.895598  0  2.298095  0
O  O93  1  0.62832309  0.63425993  0.40168609  1  -1.538843  0  -0.442216  -0.894987  0  2.297869  0
O  O94  1  0.99411634  0.76741432  0.36571947  1  -1.544387  0  -0.442333  -0.895472  0  2.299198  0
O  O95  1  0.22666310  0.59834183  0.23258164  1  -1.548571  0  -0.442103  -0.895556  0  2.29809  0
O  O96  1  0.69807407  0.28706478  0.56364743  1  -1.543842  0  -0.446145  -0.913135  0  2.338322  0
O  O97  1  0.41092413  0.27657666  0.71288028  1  -1.548696  0  -0.445077  -0.911588  0  2.337291  0
O  O98  1  0.13435317  0.43631334  0.72339828  1  -1.546781  0  -0.446098  -0.912669  0  2.337962  0
O  O99  1  0.30191801  0.71293243  0.43634934  1  -1.543577  0  -0.446177  -0.913194  0  2.338505  0
O  O100  1  0.58907834  0.72342198  0.28712074  1  -1.548684  0  -0.445092  -0.911629  0  2.33731  0
O  O101  1  0.86564770  0.56368530  0.27660204  1  -1.546733  0  -0.446086  -0.912734  0  2.338023  0
O  O102  1  0.03893793  0.22155610  0.44318725  1  -1.314761  0  -0.596483  -0.835965  0  2.047938  0
O  O103  1  0.81708640  0.22158828  0.77851183  1  -1.317212  0  -0.596874  -0.835994  0  2.046729  0
O  O104  1  0.59557881  0.55694127  0.77836586  1  -1.305978  0  -0.596732  -0.835928  0  2.046348  0
O  O105  1  0.96106113  0.77844539  0.55681312  1  -1.314769  0  -0.596461  -0.835942  0  2.047959  0
O  O106  1  0.18291519  0.77841179  0.22148676  1  -1.317206  0  -0.596876  -0.83595  0  2.046766  0
O  O107  1  0.40442474  0.44305951  0.22163378  1  -1.305902  0  -0.596738  -0.835931  0  2.046336  0
