# generated using pymatgen
data_Zr3H14(C3O2)8
_symmetry_space_group_name_H-M   'P 1'
_cell_length_a   14.77339587
_cell_length_b   14.77338783
_cell_length_c   14.77347674
_cell_angle_alpha   59.99943018
_cell_angle_beta   59.99999055
_cell_angle_gamma   60.00011294
_symmetry_Int_Tables_number   1
_chemical_formula_structural   Zr3H14(C3O2)8
_chemical_formula_sum   'Zr6 H28 C48 O32'
_cell_volume   2279.95680372
_cell_formula_units_Z   2
loop_
 _symmetry_equiv_pos_site_id
 _symmetry_equiv_pos_as_xyz
  1  'x, y, z'
loop_
 _atom_site_type_symbol
 _atom_site_label
 _atom_site_symmetry_multiplicity
 _atom_site_fract_x
 _atom_site_fract_y
 _atom_site_fract_z
 _atom_site_occupancy
 _atom_site_pbe_bader_charge
 _atom_site_pbe_bader_spin_density
 _atom_site_pbe_cm5_charge
 _atom_site_pbe_ddec_charge
 _atom_site_pbe_ddec_spin_density
 _atom_site_pbe_ddec_sum_bond_order
 _atom_site_pbe_magmom
Zr  Zr0  1  0.88033347  0.88033477  0.61966527  1  2.625956  0  1.626492  2.373672  0  2.757367  0
Zr  Zr1  1  0.11966712  0.11966684  0.38033056  1  2.624824  0  1.626507  2.37374  0  2.757294  0
Zr  Zr2  1  0.11967895  0.88032037  0.61968067  1  2.62519  0  1.626454  2.373606  0  2.757051  0
Zr  Zr3  1  0.88032259  0.11968082  0.38032129  1  2.625397  0  1.626657  2.373868  0  2.757068  0
Zr  Zr4  1  0.11968608  0.88031322  0.38031493  1  2.62528  0  1.626589  2.373794  0  2.757369  0
Zr  Zr5  1  0.88031485  0.11968466  0.61969094  1  2.625665  0  1.626606  2.373746  0  2.757431  0
H  H6  1  0.09416090  0.71751395  0.59416308  1  0.606533  0  0.330773  0.422535  0  0.855874  0
H  H7  1  0.09416627  0.09416323  0.21751180  1  0.592476  0  0.330875  0.422672  0  0.855676  0
H  H8  1  0.09416421  0.09416215  0.59415902  1  0.587908  0  0.330803  0.422521  0  0.855638  0
H  H9  1  0.71751966  0.09415911  0.59416111  1  0.59264  0  0.330706  0.422404  0  0.855834  0
H  H10  1  0.14414658  0.41583874  0.35361878  1  0.09226  0  0.109099  0.114119  0  0.994713  0
H  H11  1  0.85362380  0.58639203  0.64414307  1  0.096129  0  0.109051  0.113982  0  0.994791  0
H  H12  1  0.14414932  0.58640063  0.35361651  1  0.096328  0  0.109084  0.114098  0  0.994768  0
H  H13  1  0.85361924  0.41583239  0.64414907  1  0.092646  0  0.109093  0.114124  0  0.994757  0
H  H14  1  0.41584203  0.14414281  0.08639409  1  0.100008  0  0.109095  0.114114  0  0.994787  0
H  H15  1  0.58639751  0.85362077  0.91583917  1  0.132585  0  0.10911  0.114133  0  0.994762  0
H  H16  1  0.58640099  0.14414819  0.91583390  1  0.099798  0  0.109092  0.114114  0  0.994706  0
H  H17  1  0.41583882  0.85361700  0.08639913  1  0.132444  0  0.109098  0.114107  0  0.994793  0
H  H18  1  0.85361900  0.14415125  0.91583180  1  0.092537  0  0.109082  0.114092  0  0.994732  0
H  H19  1  0.14414426  0.85362248  0.08639835  1  0.096381  0  0.109133  0.114172  0  0.994771  0
H  H20  1  0.85362116  0.14414803  0.08639053  1  0.096067  0  0.109095  0.114133  0  0.994747  0
H  H21  1  0.14414323  0.85362412  0.91584173  1  0.092344  0  0.109102  0.114107  0  0.994862  0
H  H22  1  0.41584111  0.58639916  0.35361439  1  0.132492  0  0.109054  0.114007  0  0.99468  0
H  H23  1  0.58640089  0.41583846  0.64414737  1  0.099834  0  0.10904  0.113998  0  0.994663  0
H  H24  1  0.58639964  0.41584094  0.35361604  1  0.132428  0  0.109105  0.114148  0  0.994701  0
H  H25  1  0.41584305  0.58639736  0.64413937  1  0.099918  0  0.109078  0.114046  0  0.994833  0
H  H26  1  0.85362042  0.41583272  0.08639927  1  0.132597  0  0.10909  0.114137  0  0.994724  0
H  H27  1  0.14414906  0.58640117  0.91583291  1  0.099831  0  0.1091  0.114171  0  0.994669  0
H  H28  1  0.85362101  0.58639648  0.91583877  1  0.132637  0  0.109079  0.114057  0  0.994796  0
H  H29  1  0.14415182  0.41583535  0.08639874  1  0.099824  0  0.109109  0.114146  0  0.994624  0
H  H30  1  0.41583500  0.85361945  0.64414548  1  0.092551  0  0.109099  0.114125  0  0.994728  0
H  H31  1  0.58640330  0.14415240  0.35361153  1  0.096274  0  0.109081  0.114147  0  0.994664  0
H  H32  1  0.58639819  0.85362096  0.64414591  1  0.096133  0  0.109102  0.114129  0  0.994713  0
H  H33  1  0.41584117  0.14414381  0.35361629  1  0.092353  0  0.109104  0.114107  0  0.99471  0
C  C34  1  0.99754046  0.69815227  0.49750791  1  1.547113  0  0.236471  0.636209  0  4.101221  0
C  C35  1  0.30679758  0.99750485  0.19815639  1  1.545987  0  0.236555  0.636269  0  4.101106  0
C  C36  1  0.99751502  0.30679535  0.49753946  1  1.544318  0  0.236475  0.636299  0  4.101177  0
C  C37  1  0.69815885  0.99753820  0.80679791  1  1.54579  0  0.236549  0.63626  0  4.101242  0
C  C38  1  0.99753579  0.69815725  0.80679500  1  1.545795  0  0.236527  0.636318  0  4.101335  0
C  C39  1  0.69815732  0.99753243  0.49751201  1  1.547401  0  0.236609  0.636375  0  4.101158  0
C  C40  1  0.99751845  0.30679581  0.19815076  1  1.546051  0  0.236536  0.636391  0  4.10113  0
C  C41  1  0.30679479  0.99751313  0.49753571  1  1.544379  0  0.236546  0.636292  0  4.101127  0
C  C42  1  0.30680550  0.69814677  0.49751773  1  1.546303  0  0.2365  0.636382  0  4.101013  0
C  C43  1  0.99752185  0.99752715  0.80680025  1  1.544439  0  0.236606  0.636456  0  4.10082  0
C  C44  1  0.69814769  0.30680613  0.49753013  1  1.545657  0  0.236447  0.636355  0  4.101138  0
C  C45  1  0.99752534  0.99752073  0.19815168  1  1.547231  0  0.236632  0.636545  0  4.10085  0
C  C46  1  0.99828634  0.40716859  0.49826889  1  -0.016565  0  -0.012078  -0.032194  0  3.956996  0
C  C47  1  0.99826887  0.59627605  0.49828225  1  0.093933  0  -0.012098  -0.03222  0  3.957144  0
C  C48  1  0.08093872  0.45423447  0.41649163  1  -0.034577  0  -0.080182  -0.091712  0  3.973513  0
C  C49  1  0.91649499  0.54833246  0.58093583  1  -0.086363  0  -0.080116  -0.091472  0  3.973582  0
C  C50  1  0.08094147  0.54833466  0.41648481  1  -0.086517  0  -0.080174  -0.091761  0  3.972789  0
C  C51  1  0.91648554  0.45423776  0.58093970  1  -0.035031  0  -0.08018  -0.091846  0  3.972867  0
C  C52  1  0.40717406  0.99828305  0.09627444  1  0.007285  0  -0.012106  -0.032193  0  3.957075  0
C  C53  1  0.59627882  0.99826591  0.90717449  1  0.007945  0  -0.012123  -0.03227  0  3.957106  0
C  C54  1  0.45423394  0.08094037  0.04833373  1  -0.016489  0  -0.080172  -0.091696  0  3.973607  0
C  C55  1  0.54834054  0.91648802  0.95423472  1  -0.030424  0  -0.080171  -0.09168  0  3.973636  0
C  C56  1  0.54833517  0.08094090  0.95423815  1  -0.104148  0  -0.080198  -0.091776  0  3.972676  0
C  C57  1  0.45424234  0.91648510  0.04833297  1  -0.118058  0  -0.080204  -0.091768  0  3.972882  0
C  C58  1  0.99827697  0.99827197  0.90717553  1  -0.016499  0  -0.012223  -0.032403  0  3.957279  0
C  C59  1  0.99827212  0.99828054  0.09627124  1  0.093654  0  -0.012181  -0.03238  0  3.95722  0
C  C60  1  0.91648897  0.08094446  0.95423380  1  -0.034943  0  -0.080079  -0.091604  0  3.973026  0
C  C61  1  0.08094263  0.91648813  0.04833174  1  -0.086513  0  -0.080213  -0.091827  0  3.973114  0
C  C62  1  0.91649048  0.08094256  0.04832846  1  -0.086359  0  -0.080172  -0.091691  0  3.973397  0
C  C63  1  0.08094161  0.91649322  0.95423423  1  -0.03464  0  -0.080133  -0.091599  0  3.973495  0
C  C64  1  0.40717278  0.59627241  0.49828218  1  0.007055  0  -0.012085  -0.032173  0  3.957199  0
C  C65  1  0.59627850  0.40717044  0.49827047  1  0.007815  0  -0.012093  -0.032277  0  3.957354  0
C  C66  1  0.45424572  0.54832941  0.41648954  1  -0.118101  0  -0.080119  -0.091619  0  3.973088  0
C  C67  1  0.54833776  0.45424156  0.58093315  1  -0.10428  0  -0.080172  -0.091667  0  3.972883  0
C  C68  1  0.54834146  0.45423714  0.41648623  1  -0.03023  0  -0.080147  -0.091693  0  3.973551  0
C  C69  1  0.45424200  0.54833652  0.58093544  1  -0.016167  0  -0.080156  -0.091657  0  3.973504  0
C  C70  1  0.99828540  0.40716418  0.09628053  1  0.007223  0  -0.012094  -0.032241  0  3.957129  0
C  C71  1  0.99827107  0.59627897  0.90716659  1  0.008012  0  -0.01216  -0.03233  0  3.957116  0
C  C72  1  0.91649021  0.45423596  0.04833755  1  -0.030185  0  -0.08023  -0.091898  0  3.972944  0
C  C73  1  0.08093791  0.54833753  0.95423961  1  -0.104217  0  -0.08021  -0.091857  0  3.972848  0
C  C74  1  0.91649243  0.54833497  0.95423736  1  -0.118328  0  -0.080111  -0.091509  0  3.973456  0
C  C75  1  0.08093878  0.45423620  0.04833901  1  -0.016383  0  -0.080138  -0.091664  0  3.973292  0
C  C76  1  0.40717013  0.99828530  0.49826983  1  -0.016265  0  -0.012081  -0.032224  0  3.956958  0
C  C77  1  0.59628400  0.99826767  0.49827976  1  0.093654  0  -0.012127  -0.03227  0  3.957214  0
C  C78  1  0.45424195  0.91648847  0.58093922  1  -0.034872  0  -0.08021  -0.091829  0  3.972924  0
C  C79  1  0.54834024  0.08093819  0.41648418  1  -0.086562  0  -0.080197  -0.091877  0  3.972919  0
C  C80  1  0.54834047  0.91648966  0.58093746  1  -0.086494  0  -0.080154  -0.091623  0  3.973454  0
C  C81  1  0.45423905  0.08093976  0.41648833  1  -0.034729  0  -0.080173  -0.091614  0  3.973413  0
O  O82  1  0.92066498  0.73770824  0.57454110  1  -1.178072  0  -0.355217  -0.619168  0  2.282829  0
O  O83  1  0.26708911  0.07453744  0.23771287  1  -1.17519  0  -0.355276  -0.619213  0  2.282741  0
O  O84  1  0.07454684  0.26708400  0.42066282  1  -1.177041  0  -0.355231  -0.619198  0  2.282819  0
O  O85  1  0.73771090  0.92066116  0.76708573  1  -1.179237  0  -0.355304  -0.619229  0  2.28278  0
O  O86  1  0.07456063  0.73769723  0.76709960  1  -1.175907  0  -0.355114  -0.61893  0  2.283384  0
O  O87  1  0.73770059  0.07455784  0.42064639  1  -1.178646  0  -0.355225  -0.619103  0  2.283214  0
O  O88  1  0.92065386  0.26709218  0.23769453  1  -1.17924  0  -0.355176  -0.618996  0  2.283181  0
O  O89  1  0.26709997  0.92064139  0.57456016  1  -1.177161  0  -0.355126  -0.618947  0  2.283311  0
O  O90  1  0.26710365  0.73769194  0.42064636  1  -1.17929  0  -0.355202  -0.619153  0  2.283127  0
O  O91  1  0.92065129  0.07456099  0.76709623  1  -1.177218  0  -0.355221  -0.619167  0  2.283095  0
O  O92  1  0.73768904  0.26710586  0.57455791  1  -1.175589  0  -0.355128  -0.619067  0  2.283122  0
O  O93  1  0.07455995  0.92064716  0.23768569  1  -1.178387  0  -0.355152  -0.619135  0  2.283045  0
O  O94  1  0.07455970  0.92064934  0.76710129  1  -1.177233  0  -0.355213  -0.619167  0  2.282799  0
O  O95  1  0.73769659  0.26709843  0.42065606  1  -1.179347  0  -0.355238  -0.619244  0  2.282807  0
O  O96  1  0.92065452  0.07455637  0.23770083  1  -1.178198  0  -0.35532  -0.619276  0  2.282884  0
O  O97  1  0.26710491  0.73769465  0.57454910  1  -1.175229  0  -0.355166  -0.619164  0  2.282784  0
O  O98  1  0.92066220  0.73771471  0.76708038  1  -1.179228  0  -0.355244  -0.619205  0  2.283036  0
O  O99  1  0.26708320  0.07454222  0.42065945  1  -1.177074  0  -0.355252  -0.619203  0  2.282976  0
O  O100  1  0.07454722  0.26708859  0.23770410  1  -1.175302  0  -0.355262  -0.619271  0  2.282877  0
O  O101  1  0.73770957  0.92066005  0.57454356  1  -1.178364  0  -0.355269  -0.619218  0  2.282983  0
O  O102  1  0.73769507  0.07456573  0.76709866  1  -1.175974  0  -0.355103  -0.618893  0  2.283607  0
O  O103  1  0.07456592  0.73769047  0.42064310  1  -1.1787  0  -0.355109  -0.618955  0  2.283398  0
O  O104  1  0.26710303  0.92063638  0.23769254  1  -1.179277  0  -0.355134  -0.61892  0  2.283487  0
O  O105  1  0.92064791  0.26709972  0.57456666  1  -1.177143  0  -0.355086  -0.618943  0  2.283389  0
O  O106  1  0.79786221  0.06738248  0.56738021  1  -1.223062  0  -0.694724  -1.066937  0  2.361551  0
O  O107  1  0.06737804  0.06738564  0.56737822  1  -1.21819  0  -0.694826  -1.06709  0  2.361552  0
O  O108  1  0.06738451  0.06737808  0.29785646  1  -1.222948  0  -0.694897  -1.067318  0  2.361743  0
O  O109  1  0.06738193  0.79785736  0.56737933  1  -1.237151  0  -0.694768  -1.067048  0  2.361659  0
O  O110  1  0.14878061  0.95040113  0.45040215  1  -1.193401  0  -0.79142  -1.147991  0  2.127829  0
O  O111  1  0.95041755  0.95041219  0.45039527  1  -1.200596  0  -0.791456  -1.148005  0  2.127889  0
O  O112  1  0.95039146  0.14878371  0.45041760  1  -1.195938  0  -0.791367  -1.14793  0  2.127672  0
O  O113  1  0.95040335  0.95042072  0.64878018  1  -1.198034  0  -0.791406  -1.148025  0  2.127883  0
