# generated using pymatgen
data_DyH13(C9O7)2
_symmetry_space_group_name_H-M   'P 1'
_cell_length_a   9.36707284
_cell_length_b   10.44166762
_cell_length_c   11.09249897
_cell_angle_alpha   77.62511572
_cell_angle_beta   70.51275557
_cell_angle_gamma   92.55959324
_symmetry_Int_Tables_number   1
_chemical_formula_structural   DyH13(C9O7)2
_chemical_formula_sum   'Dy2 H26 C36 O28'
_cell_volume   991.04134301
_cell_formula_units_Z   2
loop_
 _symmetry_equiv_pos_site_id
 _symmetry_equiv_pos_as_xyz
  1  'x, y, z'
loop_
 _atom_site_type_symbol
 _atom_site_label
 _atom_site_symmetry_multiplicity
 _atom_site_fract_x
 _atom_site_fract_y
 _atom_site_fract_z
 _atom_site_occupancy
 _atom_site_hle17_bader_spin_density
 _atom_site_hle17_ddec_charge
 _atom_site_hle17_ddec_spin_density
 _atom_site_hle17_ddec_sum_bond_order
 _atom_site_hle17_magmom
 _atom_site_hse06_10hf_bader_spin_density
 _atom_site_hse06_10hf_ddec_charge
 _atom_site_hse06_10hf_ddec_spin_density
 _atom_site_hse06_10hf_ddec_sum_bond_order
 _atom_site_hse06_10hf_magmom
 _atom_site_hse06_bader_spin_density
 _atom_site_hse06_ddec_charge
 _atom_site_hse06_ddec_spin_density
 _atom_site_hse06_ddec_sum_bond_order
 _atom_site_hse06_magmom
 _atom_site_pbe_bader_spin_density
 _atom_site_pbe_cm5_charge
 _atom_site_pbe_ddec_charge
 _atom_site_pbe_ddec_spin_density
 _atom_site_pbe_ddec_sum_bond_order
 _atom_site_pbe_magmom
Dy  Dy0  1  0.76624347  0.03039339  0.49809749  1  0  2.329459  0  1.53736  0  0  2.259535  0  1.857485  0  0  2.305472  0  1.816868  0  0  1.493743  2.149394  0  2.028196  0
Dy  Dy1  1  0.23375079  0.96960037  0.50190309  1  0  2.329509  0  1.537226  0  0  2.259624  0  1.857336  0  0  2.30556  0  1.816721  0  0  1.493762  2.149489  0  2.028029  0
H  H2  1  0.01396606  0.62565899  0.32980035  1  0  0.108211  0  0.923834  0  0  0.121669  0  0.975513  0  0  0.125881  0  0.972371  0  0  0.110888  0.118042  0  0.978746  0
H  H3  1  0.98604714  0.37435299  0.67019433  1  0  0.10819  0  0.923885  0  0  0.121648  0  0.975561  0  0  0.125861  0  0.972417  0  0  0.110912  0.118023  0  0.978794  0
H  H4  1  0.94237086  0.52978069  0.16965488  1  0  0.12849  0  0.981099  0  0  0.133681  0  1.041359  0  0  0.13891  0  1.03797  0  0  0.111411  0.129508  0  1.044231  0
H  H5  1  0.05763194  0.47022917  0.83033678  1  0  0.128483  0  0.981037  0  0  0.133739  0  1.041226  0  0  0.138964  0  1.037848  0  0  0.111479  0.129568  0  1.0441  0
H  H6  1  0.67141176  0.34011324  0.16884234  1  0  0.135978  0  0.91681  0  0  0.144225  0  0.97406  0  0  0.148781  0  0.970485  0  0  0.121437  0.14065  0  0.977386  0
H  H7  1  0.32860047  0.65987907  0.83115437  1  0  0.136142  0  0.916703  0  0  0.144293  0  0.974055  0  0  0.148845  0  0.970479  0  0  0.121505  0.140725  0  0.977378  0
H  H8  1  0.35506875  0.54035867  0.03708567  1  0  0.134625  0  0.971217  0  0  0.140324  0  1.034714  0  0  0.144941  0  1.031595  0  0  0.115725  0.137313  0  1.036077  0
H  H9  1  0.64492726  0.45963023  0.96291531  1  0  0.134566  0  0.971149  0  0  0.140233  0  1.034765  0  0  0.144849  0  1.031644  0  0  0.115691  0.137226  0  1.036125  0
H  H10  1  0.28759177  0.74439137  0.30293286  1  0  0.39439  0  0.900241  0  0  0.363567  0  0.980969  0  0  0.374143  0  0.970303  0  0  0.305264  0.355819  0  0.98887  0
H  H11  1  0.71241096  0.25559674  0.69706637  1  0  0.394115  0  0.900534  0  0  0.3633  0  0.98127  0  0  0.373875  0  0.970608  0  0  0.305134  0.355554  0  0.989158  0
H  H12  1  0.73117140  0.73263671  0.42953104  1  0  0.439503  0  0.802387  0  0  0.426244  0  0.847613  0  0  0.432887  0  0.840621  0  0  0.337678  0.42081  0  0.853007  0
H  H13  1  0.26883967  0.26734471  0.57046887  1  0  0.439454  0  0.802056  0  0  0.426204  0  0.847293  0  0  0.432845  0  0.840302  0  0  0.337665  0.420771  0  0.852681  0
H  H14  1  0.68537254  0.84280131  0.33502342  1  0  0.448747  0  0.824374  0  0  0.418013  0  0.897274  0  0  0.426604  0  0.884669  0  0  0.322481  0.41175  0  0.906284  0
H  H15  1  0.31465218  0.15719129  0.66497244  1  0  0.448821  0  0.824409  0  0  0.418112  0  0.897159  0  0  0.426701  0  0.884558  0  0  0.322484  0.411842  0  0.906181  0
H  H16  1  0.68101227  0.76480019  0.71097265  1  0  0.455951  0  0.785122  0  0  0.438968  0  0.836276  0  0  0.446378  0  0.828285  0  0  0.339994  0.433109  0  0.841996  0
H  H17  1  0.31899826  0.23520847  0.28903510  1  0  0.455844  0  0.78527  0  0  0.438867  0  0.836413  0  0  0.446276  0  0.828423  0  0  0.339935  0.433009  0  0.842129  0
H  H18  1  0.79147109  0.85046972  0.75055191  1  0  0.463419  0  0.825806  0  0  0.429708  0  0.8929  0  0  0.439869  0  0.877935  0  0  0.322252  0.422323  0  0.903581  0
H  H19  1  0.20854274  0.14954819  0.24944151  1  0  0.46338  0  0.82583  0  0  0.429692  0  0.892872  0  0  0.439851  0  0.877911  0  0  0.322235  0.422309  0  0.90355  0
H  H20  1  0.93679673  0.27590325  0.30055434  1  0  0.447353  0  0.854984  0  0  0.413545  0  0.92268  0  0  0.426149  0  0.904505  0  0  0.291851  0.404392  0  0.93559  0
H  H21  1  0.06319031  0.72410790  0.69945052  1  0  0.447305  0  0.855064  0  0  0.413488  0  0.922778  0  0  0.426096  0  0.904597  0  0  0.291814  0.404334  0  0.935689  0
H  H22  1  0.04253709  0.21801824  0.38084341  1  0  0.427746  0  0.871941  0  0  0.401704  0  0.928007  0  0  0.412054  0  0.912556  0  0  0.297895  0.393888  0  0.939467  0
H  H23  1  0.95746810  0.78199272  0.61914557  1  0  0.427701  0  0.872031  0  0  0.401697  0  0.928025  0  0  0.412042  0  0.912584  0  0  0.297922  0.393882  0  0.939482  0
H  H24  1  0.52011836  0.20926523  0.50760911  1  0  0.438347  0  0.858452  0  0  0.410658  0  0.91643  0  0  0.421112  0  0.900984  0  0  0.301982  0.402666  0  0.928073  0
H  H25  1  0.47989179  0.79072891  0.49239055  1  0  0.438383  0  0.858392  0  0  0.410707  0  0.916343  0  0  0.42116  0  0.900901  0  0  0.302046  0.402719  0  0.927982  0
H  H26  1  0.65092848  0.28783593  0.53092344  1  0  0.439851  0  0.844783  0  0  0.415645  0  0.895661  0  0  0.425686  0  0.880714  0  0  0.311587  0.408115  0  0.906685  0
H  H27  1  0.34908899  0.71215246  0.46907792  1  0  0.439814  0  0.844811  0  0  0.415535  0  0.895793  0  0  0.425575  0  0.88085  0  0  0.311528  0.408004  0  0.906819  0
C  C28  1  0.07840971  0.88734434  0.31897623  1  0  0.733834  0  3.842926  0  0  0.680245  0  4.146741  0  0  0.71747  0  4.131027  0  0  0.235035  0.653966  0  4.150779  0
C  C29  1  0.92160258  0.11266964  0.68101563  1  0  0.733835  0  3.842408  0  0  0.68008  0  4.14651  0  0  0.717298  0  4.130805  0  0  0.234933  0.653783  0  4.150584  0
C  C30  1  0.03225988  0.82876043  0.22294401  1  0  -0.071792  0  3.721898  0  0  -0.061239  0  3.968028  0  0  -0.065506  0  3.987141  0  0  -0.00504  -0.05892  0  3.956935  0
C  C31  1  0.96772825  0.17124998  0.77705166  1  0  -0.071958  0  3.722095  0  0  -0.061393  0  3.968325  0  0  -0.065658  0  3.987457  0  0  -0.005056  -0.05908  0  3.957252  0
C  C32  1  0.00151688  0.69146729  0.24394194  1  0  -0.079922  0  3.716591  0  0  -0.105814  0  3.975257  0  0  -0.10488  0  3.991094  0  0  -0.079501  -0.10608  0  3.965105  0
C  C33  1  0.99849024  0.30855140  0.75605322  1  0  -0.079861  0  3.716534  0  0  -0.105718  0  3.975218  0  0  -0.104779  0  3.991048  0  0  -0.079469  -0.105985  0  3.965075  0
C  C34  1  0.95976527  0.63713798  0.15403304  1  0  -0.046796  0  3.637841  0  0  -0.069466  0  3.889256  0  0  -0.07035  0  3.904049  0  0  -0.064989  -0.068853  0  3.879432  0
C  C35  1  0.04021430  0.36286698  0.84597773  1  0  -0.0468  0  3.637843  0  0  -0.069575  0  3.889318  0  0  -0.070459  0  3.90411  0  0  -0.065099  -0.068961  0  3.8795  0
C  C36  1  0.94507669  0.71832960  0.04141811  1  0  0.010644  0  3.600534  0  0  0.019206  0  3.842898  0  0  0.020309  0  3.857476  0  0  0.023904  0.018137  0  3.833941  0
C  C37  1  0.05491186  0.28168533  0.95859376  1  0  0.010546  0  3.600937  0  0  0.019173  0  3.843281  0  0  0.020277  0  3.857844  0  0  0.023883  0.018099  0  3.834338  0
C  C38  1  0.96767051  0.85636329  0.02386429  1  0  -0.055939  0  3.717437  0  0  -0.056552  0  3.962184  0  0  -0.061507  0  3.982136  0  0  -0.003559  -0.053639  0  3.949814  0
C  C39  1  0.03231206  0.14365934  0.97614785  1  0  -0.056245  0  3.717788  0  0  -0.056772  0  3.962467  0  0  -0.061719  0  3.982414  0  0  -0.003595  -0.05386  0  3.950103  0
C  C40  1  0.01618998  0.91093895  0.11160097  1  0  -0.057959  0  3.746728  0  0  -0.060615  0  3.993431  0  0  -0.065179  0  4.015201  0  0  -0.009408  -0.057762  0  3.979519  0
C  C41  1  0.98379791  0.08909086  0.88840297  1  0  -0.057514  0  3.746852  0  0  -0.060201  0  3.993486  0  0  -0.064768  0  4.015267  0  0  -0.00925  -0.057344  0  3.979574  0
C  C42  1  0.92226142  0.66138060  0.93310033  1  0  0.644874  0  3.971568  0  0  0.587529  0  4.288525  0  0  0.621875  0  4.279654  0  0  0.199181  0.563372  0  4.294214  0
C  C43  1  0.07771360  0.33863437  0.06689728  1  0  0.645217  0  3.970459  0  0  0.587763  0  4.287647  0  0  0.622108  0  4.278767  0  0  0.199307  0.563606  0  4.293347  0
C  C44  1  0.06167970  0.05390906  0.08394947  1  0  0.416351  0  3.717469  0  0  0.386982  0  3.988651  0  0  0.413039  0  3.986245  0  0  0.167654  0.368179  0  3.991515  0
C  C45  1  0.93831673  0.94611594  0.91605836  1  0  0.415958  0  3.71726  0  0  0.386735  0  3.988239  0  0  0.4128  0  3.985835  0  0  0.167494  0.367926  0  3.991105  0
C  C46  1  0.60708213  0.08071507  0.28167151  1  0  0.744638  0  3.85963  0  0  0.694914  0  4.158248  0  0  0.731852  0  4.14288  0  0  0.23971  0.669012  0  4.163079  0
C  C47  1  0.39291813  0.91927111  0.71832426  1  0  0.744638  0  3.860442  0  0  0.694929  0  4.15902  0  0  0.731854  0  4.143677  0  0  0.239693  0.669029  0  4.16385  0
C  C48  1  0.60342094  0.14728074  0.14929119  1  0  -0.045356  0  3.688665  0  0  -0.034256  0  3.929228  0  0  -0.038022  0  3.947933  0  0  0.007458  -0.032952  0  3.919657  0
C  C49  1  0.39658728  0.85269493  0.85070064  1  0  -0.045501  0  3.688627  0  0  -0.034367  0  3.92909  0  0  -0.038128  0  3.947795  0  0  0.007465  -0.033064  0  3.919522  0
C  C50  1  0.63301741  0.28505421  0.10996135  1  0  -0.034464  0  3.633567  0  0  -0.063463  0  3.892549  0  0  -0.062705  0  3.907347  0  0  -0.057419  -0.064782  0  3.885042  0
C  C51  1  0.36698778  0.71492516  0.89003698  1  0  -0.034518  0  3.633827  0  0  -0.063484  0  3.892749  0  0  -0.062716  0  3.907537  0  0  -0.0575  -0.064808  0  3.885254  0
C  C52  1  0.55571301  0.07609991  0.07258328  1  0  -0.059214  0  3.711385  0  0  -0.063008  0  3.958748  0  0  -0.068602  0  3.982379  0  0  -0.008227  -0.060749  0  3.944318  0
C  C53  1  0.44428775  0.92388031  0.92741613  1  0  -0.059041  0  3.711221  0  0  -0.062805  0  3.958453  0  0  -0.068397  0  3.9821  0  0  -0.00815  -0.06056  0  3.944011  0
C  C54  1  0.53663853  0.92970164  0.11196581  1  0  0.402093  0  3.723239  0  0  0.377833  0  3.99462  0  0  0.401161  0  3.995855  0  0  0.161884  0.361887  0  3.994005  0
C  C55  1  0.46335178  0.07028702  0.88803951  1  0  0.402052  0  3.723138  0  0  0.377893  0  3.994371  0  0  0.401213  0  3.995612  0  0  0.161951  0.361953  0  3.993772  0
C  C56  1  0.46683009  0.85494432  0.04278199  1  0  -0.047463  0  3.715393  0  0  -0.050753  0  3.961697  0  0  -0.054416  0  3.983823  0  0  -0.004374  -0.047905  0  3.946273  0
C  C57  1  0.53315181  0.14504003  0.95723188  1  0  -0.047265  0  3.715285  0  0  -0.050608  0  3.961639  0  0  -0.054254  0  3.983743  0  0  -0.004251  -0.047811  0  3.946292  0
C  C58  1  0.43236872  0.71601169  0.08403207  1  0  -0.055163  0  3.6759  0  0  -0.043658  0  3.915495  0  0  -0.048241  0  3.935565  0  0  0.007591  -0.039575  0  3.901034  0
C  C59  1  0.56761964  0.28397991  0.91597145  1  0  -0.055408  0  3.675997  0  0  -0.043741  0  3.915634  0  0  -0.048326  0  3.935688  0  0  0.007585  -0.039646  0  3.901201  0
C  C60  1  0.38409678  0.64748929  0.00626842  1  0  -0.028205  0  3.636516  0  0  -0.054832  0  3.889727  0  0  -0.054776  0  3.906934  0  0  -0.056003  -0.05472  0  3.877456  0
C  C61  1  0.61590543  0.35250464  0.99373261  1  0  -0.028016  0  3.636205  0  0  -0.054722  0  3.88947  0  0  -0.054666  0  3.906676  0  0  -0.055971  -0.054612  0  3.877198  0
C  C62  1  0.43106872  0.63171526  0.21331969  1  0  0.664857  0  3.797538  0  0  0.612958  0  4.106994  0  0  0.645647  0  4.095809  0  0  0.234227  0.590194  0  4.114751  0
C  C63  1  0.56893949  0.36826093  0.78669099  1  0  0.665208  0  3.79683  0  0  0.613048  0  4.106659  0  0  0.645739  0  4.095472  0  0  0.234389  0.590285  0  4.114422  0
O  O64  1  0.98250991  0.93731214  0.40142989  1  0  -0.792022  0  2.143129  0  0  -0.756535  0  2.413913  0  0  -0.781479  0  2.401516  0  0  -0.404572  -0.722439  0  2.421437  0
O  O65  1  0.01751567  0.06269915  0.59856415  1  0  -0.792041  0  2.143019  0  0  -0.756423  0  2.413747  0  0  -0.781383  0  2.401406  0  0  -0.404548  -0.722286  0  2.42121  0
O  O66  1  0.21229381  0.87665359  0.32376724  1  0  -0.717993  0  2.08312  0  0  -0.673005  0  2.333139  0  0  -0.69889  0  2.322799  0  0  -0.360608  -0.645427  0  2.340774  0
O  O67  1  0.78769777  0.12334639  0.67621763  1  0  -0.717916  0  2.082542  0  0  -0.672864  0  2.332613  0  0  -0.69875  0  2.322298  0  0  -0.360617  -0.645289  0  2.340269  0
O  O68  1  0.04971652  0.66114124  0.84161966  1  0  -0.642069  0  1.974699  0  0  -0.582526  0  2.194952  0  0  -0.61276  0  2.186629  0  0  -0.316941  -0.55817  0  2.19962  0
O  O69  1  0.95026049  0.33888169  0.15837505  1  0  -0.642199  0  1.974349  0  0  -0.582595  0  2.194648  0  0  -0.612828  0  2.186323  0  0  -0.316901  -0.558236  0  2.199314  0
O  O70  1  0.79142456  0.62252861  0.94007295  1  0  -0.599003  0  1.916947  0  0  -0.560366  0  2.143183  0  0  -0.588724  0  2.137373  0  0  -0.323186  -0.539479  0  2.145941  0
O  O71  1  0.20855514  0.37749888  0.05993821  1  0  -0.599172  0  1.916113  0  0  -0.560498  0  2.142381  0  0  -0.588855  0  2.136563  0  0  -0.323352  -0.539603  0  2.145145  0
O  O72  1  0.13425261  0.09446200  0.14706062  1  0  -0.470034  0  2.058015  0  0  -0.408867  0  2.272463  0  0  -0.427849  0  2.268394  0  0  -0.228881  -0.396306  0  2.275643  0
O  O73  1  0.86573828  0.90556343  0.85292433  1  0  -0.469869  0  2.057435  0  0  -0.408758  0  2.271874  0  0  -0.427748  0  2.267812  0  0  -0.228717  -0.396193  0  2.275048  0
O  O74  1  0.73449220  0.07039515  0.29693031  1  0  -0.701795  0  2.033451  0  0  -0.665742  0  2.288926  0  0  -0.691632  0  2.277864  0  0  -0.391448  -0.637134  0  2.298469  0
O  O75  1  0.26552148  0.92960008  0.70306817  1  0  -0.701646  0  2.034065  0  0  -0.665726  0  2.28964  0  0  -0.691614  0  2.278584  0  0  -0.391442  -0.637124  0  2.29919  0
O  O76  1  0.47825092  0.04789847  0.37453788  1  0  -0.787722  0  2.130551  0  0  -0.751405  0  2.401782  0  0  -0.777956  0  2.389145  0  0  -0.423048  -0.718809  0  2.410132  0
O  O77  1  0.52175106  0.95208272  0.62546282  1  0  -0.787695  0  2.1306  0  0  -0.75135  0  2.401808  0  0  -0.777903  0  2.389186  0  0  -0.423063  -0.718752  0  2.410151  0
O  O78  1  0.58704045  0.87071238  0.19631398  1  0  -0.464547  0  1.97216  0  0  -0.414014  0  2.184671  0  0  -0.432093  0  2.180876  0  0  -0.239158  -0.402197  0  2.187671  0
O  O79  1  0.41294196  0.12927630  0.80368362  1  0  -0.464716  0  1.972005  0  0  -0.414254  0  2.184493  0  0  -0.432314  0  2.180681  0  0  -0.239299  -0.40243  0  2.187512  0
O  O80  1  0.33097939  0.65854565  0.32277469  1  0  -0.585128  0  2.105205  0  0  -0.534291  0  2.318622  0  0  -0.555128  0  2.300839  0  0  -0.346721  -0.519868  0  2.331685  0
O  O81  1  0.66901040  0.34143812  0.67722986  1  0  -0.584929  0  2.105424  0  0  -0.534045  0  2.318978  0  0  -0.554884  0  2.301201  0  0  -0.346677  -0.519614  0  2.33203  0
O  O82  1  0.49895517  0.53544082  0.22229416  1  0  -0.499947  0  1.884433  0  0  -0.470561  0  2.088958  0  0  -0.489272  0  2.080155  0  0  -0.279033  -0.45798  0  2.095191  0
O  O83  1  0.50102637  0.46455059  0.77771131  1  0  -0.500186  0  1.883305  0  0  -0.4707  0  2.08794  0  0  -0.48942  0  2.079139  0  0  -0.279149  -0.458106  0  2.094168  0
O  O84  1  0.68081850  0.81227439  0.42684661  1  0  -0.847399  0  1.87819  0  0  -0.803194  0  2.054349  0  0  -0.819992  0  2.03103  0  0  -0.558332  -0.784131  0  2.073914  0
O  O85  1  0.31920105  0.18771220  0.57314999  1  0  -0.847401  0  1.87792  0  0  -0.803198  0  2.053998  0  0  -0.819995  0  2.030685  0  0  -0.55831  -0.78414  0  2.073568  0
O  O86  1  0.76916384  0.83280654  0.67353616  1  0  -0.896585  0  1.877245  0  0  -0.855231  0  2.063849  0  0  -0.87273  0  2.036879  0  0  -0.591524  -0.833804  0  2.086733  0
O  O87  1  0.23084913  0.16720339  0.32646165  1  0  -0.896412  0  1.877405  0  0  -0.855058  0  2.064031  0  0  -0.872558  0  2.037067  0  0  -0.591425  -0.833636  0  2.086913  0
O  O88  1  0.93459431  0.22415487  0.39163371  1  0  -0.934918  0  1.860721  0  0  -0.892084  0  2.043797  0  0  -0.913018  0  2.01185  0  0  -0.669265  -0.867433  0  2.072687  0
O  O89  1  0.06540587  0.77585185  0.60836376  1  0  -0.934885  0  1.860859  0  0  -0.892024  0  2.043857  0  0  -0.912957  0  2.011908  0  0  -0.669271  -0.867368  0  2.072747  0
O  O90  1  0.63201908  0.22115588  0.48582453  1  0  -0.887958  0  1.873343  0  0  -0.845824  0  2.042999  0  0  -0.864657  0  2.013295  0  0  -0.639672  -0.823564  0  2.070118  0
O  O91  1  0.36799145  0.77883127  0.51418080  1  0  -0.887939  0  1.873258  0  0  -0.845732  0  2.042982  0  0  -0.864566  0  2.013282  0  0  -0.639623  -0.823477  0  2.070102  0
