# generated using pymatgen
data_AlC24(O2F5)3
_symmetry_space_group_name_H-M   'P 1'
_cell_length_a   3.95848927
_cell_length_b   29.19603384
_cell_length_c   29.19578301
_cell_angle_alpha   120.00037071
_cell_angle_beta   89.99967300
_cell_angle_gamma   90.00045498
_symmetry_Int_Tables_number   1
_chemical_formula_structural   AlC24(O2F5)3
_chemical_formula_sum   'Al2 C48 O12 F30'
_cell_volume   2922.14974196
_cell_formula_units_Z   2
loop_
 _symmetry_equiv_pos_site_id
 _symmetry_equiv_pos_as_xyz
  1  'x, y, z'
loop_
 _atom_site_type_symbol
 _atom_site_label
 _atom_site_symmetry_multiplicity
 _atom_site_fract_x
 _atom_site_fract_y
 _atom_site_fract_z
 _atom_site_occupancy
 _atom_site_pbe_bader_charge
 _atom_site_pbe_bader_spin_density
 _atom_site_pbe_cm5_charge
 _atom_site_pbe_ddec_charge
 _atom_site_pbe_ddec_spin_density
 _atom_site_pbe_ddec_sum_bond_order
 _atom_site_pbe_magmom
Al  Al0  1  0.99770824  0.49999998  0.49999945  1  2.505594  0  0.430727  1.590523  0  2.584378  0
Al  Al1  1  0.99768939  0.16666746  0.83333291  1  2.505167  0  0.430186  1.588992  0  2.586623  0
C  C2  1  0.49876091  0.46437302  0.41923563  1  1.646171  0  0.288047  0.704122  0  4.039556  0
C  C3  1  0.49876587  0.45486245  0.53562450  1  1.649854  0  0.288025  0.704028  0  4.039553  0
C  C4  1  0.49875163  0.58076263  0.54513415  1  1.656298  0  0.288044  0.704066  0  4.039285  0
C  C5  1  0.49877380  0.21180687  0.79770364  1  1.672568  0  0.288038  0.703196  0  4.04143  0
C  C6  1  0.49872236  0.08589880  0.78819639  1  1.610673  0  0.288104  0.70333  0  4.041415  0
C  C7  1  0.49874339  0.20229890  0.91410224  1  1.678632  0  0.288097  0.703244  0  4.041571  0
C  C8  1  0.50135453  0.24355235  0.77042748  1  -0.083483  0  -0.022137  -0.217164  0  4.023973  0
C  C9  1  0.49451394  0.21921190  0.71545611  1  0.61578  0  0.093265  0.158794  0  4.104503  0
C  C10  1  0.49817831  0.24781418  0.68895297  1  0.669297  0  0.092033  0.142144  0  4.059615  0
C  C11  1  0.50023573  0.30411100  0.71591461  1  0.049838  0  -0.024679  -0.152592  0  4.034841  0
C  C12  1  0.50289287  0.32796943  0.77228733  1  0.536495  0  0.092272  0.14169  0  4.037018  0
C  C13  1  0.50774689  0.29859115  0.79803542  1  0.6438  0  0.094049  0.16116  0  4.103809  0
C  C14  1  0.49988353  0.33858179  0.69235450  1  0.669612  0  0.086262  0.134967  0  4.012978  0
C  C15  1  0.49988931  0.32807410  0.64095350  1  0.479655  0  0.08636  0.136416  0  4.010726  0
C  C16  1  0.50289742  0.33869097  0.56103466  1  0.596  0  0.093107  0.142607  0  4.036434  0
C  C17  1  0.50024445  0.36253854  0.61739495  1  0.125404  0  -0.02535  -0.154042  0  4.036548  0
C  C18  1  0.49817404  0.41883925  0.64436640  1  0.535196  0  0.092605  0.143241  0  4.058884  0
C  C19  1  0.49450480  0.44744439  0.61786178  1  0.491597  0  0.093473  0.15941  0  4.103533  0
C  C20  1  0.50135883  0.42311448  0.56289699  1  0.266407  0  -0.021535  -0.218173  0  4.02563  0
C  C21  1  0.50775165  0.36807331  0.53529142  1  0.452926  0  0.093344  0.16093  0  4.105278  0
C  C22  1  0.50134350  0.02687654  0.75644676  1  0.179531  0  -0.022169  -0.217198  0  4.024443  0
C  C23  1  0.49450727  0.99624862  0.78079287  1  0.52941  0  0.093313  0.158622  0  4.104691  0
C  C24  1  0.49817937  0.94113845  0.75218491  1  0.565063  0  0.091982  0.142048  0  4.059806  0
C  C25  1  0.50022842  0.91180608  0.69589224  1  0.167752  0  -0.024697  -0.152407  0  4.034985  0
C  C26  1  0.50288994  0.94431923  0.67203124  1  0.574105  0  0.092225  0.141492  0  4.037093  0
C  C27  1  0.50773875  0.99944761  0.70141359  1  0.524503  0  0.094106  0.161274  0  4.104184  0
C  C28  1  0.49987376  0.85377529  0.66141797  1  0.564544  0  0.086289  0.134932  0  4.012766  0
C  C29  1  0.49987995  0.81287797  0.67192569  1  0.551706  0  0.086314  0.136243  0  4.010659  0
C  C30  1  0.50287869  0.72234586  0.66130881  1  0.501853  0  0.093121  0.142534  0  4.036411  0
C  C31  1  0.50023264  0.75485640  0.63745864  1  0.167684  0  -0.02543  -0.154011  0  4.036808  0
C  C32  1  0.49816900  0.72553045  0.58116092  1  0.480001  0  0.092592  0.143185  0  4.058852  0
C  C33  1  0.49450498  0.67041639  0.55255068  1  0.552739  0  0.093533  0.159513  0  4.103295  0
C  C34  1  0.50136733  0.63978411  0.57688457  1  0.113543  0  -0.021517  -0.218196  0  4.025771  0
C  C35  1  0.50774824  0.66721747  0.63192169  1  0.63922  0  0.093387  0.160987  0  4.105218  0
C  C36  1  0.50132984  0.22957178  0.97312097  1  0.107629  0  -0.022253  -0.21718  0  4.024061  0
C  C37  1  0.49449729  0.28454707  0.00375637  1  0.643855  0  0.093311  0.158511  0  4.104627  0
C  C38  1  0.49816249  0.31104725  0.05885737  1  0.45795  0  0.092112  0.142267  0  4.05982  0
C  C39  1  0.50022756  0.28408768  0.08819448  1  0.069349  0  -0.024664  -0.152417  0  4.0348  0
C  C40  1  0.50288922  0.22771235  0.05567624  1  0.714624  0  0.092339  0.141597  0  4.03728  0
C  C41  1  0.50773234  0.20196796  0.00055585  1  0.432848  0  0.094135  0.161288  0  4.104069  0
C  C42  1  0.49987846  0.30764774  0.14622537  1  0.579854  0  0.086229  0.134936  0  4.013009  0
C  C43  1  0.49988165  0.35904773  0.18711956  1  0.55867  0  0.086393  0.136435  0  4.010473  0
C  C44  1  0.50289086  0.43896725  0.27765717  1  0.605015  0  0.093063  0.142489  0  4.036623  0
C  C45  1  0.50023988  0.38260494  0.24514167  1  0.121858  0  -0.025263  -0.153809  0  4.036249  0
C  C46  1  0.49816702  0.35563586  0.27447322  1  0.463279  0  0.092615  0.143179  0  4.058685  0
C  C47  1  0.49449861  0.38213665  0.32957840  1  0.625158  0  0.093333  0.159317  0  4.103578  0
C  C48  1  0.50136331  0.43710432  0.36021751  1  0.114357  0  -0.021461  -0.218126  0  4.025548  0
C  C49  1  0.50775346  0.46470824  0.33277890  1  0.544596  0  0.093296  0.160824  0  4.105393  0
O  O50  1  0.73402486  0.55629414  0.55350818  1  -1.244654  0  -0.225093  -0.579469  0  2.34862  0
O  O51  1  0.73402283  0.49721488  0.44370555  1  -1.243226  0  -0.224994  -0.579395  0  2.3489  0
O  O52  1  0.73401260  0.44649117  0.50278416  1  -1.243313  0  -0.225015  -0.579395  0  2.349171  0
O  O53  1  0.26093622  0.55971004  0.51184715  1  -1.247932  0  -0.224078  -0.580517  0  2.360725  0
O  O54  1  0.26092080  0.48815275  0.54786182  1  -1.243451  0  -0.224163  -0.580631  0  2.360543  0
O  O55  1  0.26092697  0.45213749  0.44028911  1  -1.242091  0  -0.224073  -0.580531  0  2.360543  0
O  O56  1  0.73400188  0.16945805  0.88963144  1  -1.243908  0  -0.224729  -0.578669  0  2.348943  0
O  O57  1  0.73401211  0.22017557  0.83054190  1  -1.235737  0  -0.224718  -0.578628  0  2.349271  0
O  O58  1  0.73400996  0.11036922  0.77982399  1  -1.237855  0  -0.224726  -0.578704  0  2.348627  0
O  O59  1  0.26089838  0.21453313  0.89304102  1  -1.241843  0  -0.224188  -0.58041  0  2.361769  0
O  O60  1  0.26090430  0.10695799  0.82148831  1  -1.245434  0  -0.224187  -0.580405  0  2.362211  0
O  O61  1  0.26090456  0.17850990  0.78546668  1  -1.243455  0  -0.224252  -0.580534  0  2.361503  0
F  F62  1  0.50658958  0.32511924  0.85129795  1  -0.614384  0  -0.076719  -0.084986  0  1.358603  0
F  F63  1  0.49902862  0.38068638  0.80521488  1  -0.608851  0  -0.079673  -0.091555  0  1.413663  0
F  F64  1  0.49548811  0.16602519  0.68604742  1  -0.622883  0  -0.076803  -0.084767  0  1.362101  0
F  F65  1  0.50128827  0.21737889  0.63600400  1  -0.596386  0  -0.07833  -0.089214  0  1.439349  0
F  F66  1  0.50127099  0.44927801  0.69731806  1  -0.61307  0  -0.078827  -0.089884  0  1.438253  0
F  F67  1  0.49549097  0.50063179  0.64727867  1  -0.608895  0  -0.077071  -0.085025  0  1.361074  0
F  F68  1  0.49904661  0.28597100  0.52810053  1  -0.600966  0  -0.079988  -0.091962  0  1.41117  0
F  F69  1  0.50659495  0.34154388  0.48202201  1  -0.597725  0  -0.076692  -0.084704  0  1.358164  0
F  F70  1  0.49999543  0.39032834  0.72969204  1  -0.60171  0  -0.081938  -0.092395  0  1.500099  0
F  F71  1  0.49997446  0.27632600  0.60362231  1  -0.608942  0  -0.081952  -0.092832  0  1.498864  0
F  F72  1  0.50657439  0.02618015  0.67488184  1  -0.61084  0  -0.076778  -0.085053  0  1.358417  0
F  F73  1  0.49902532  0.92452974  0.61931536  1  -0.616444  0  -0.079637  -0.09147  0  1.413763  0
F  F74  1  0.49548598  0.02002411  0.83397528  1  -0.627066  0  -0.076823  -0.084675  0  1.362506  0
F  F75  1  0.50129798  0.91862739  0.78262224  1  -0.596092  0  -0.078326  -0.089189  0  1.439398  0
F  F76  1  0.50125730  0.74804133  0.55072104  1  -0.610787  0  -0.078869  -0.089927  0  1.438324  0
F  F77  1  0.49548048  0.64664759  0.49936554  1  -0.611885  0  -0.077167  -0.085125  0  1.361233  0
F  F78  1  0.49902825  0.74213008  0.71402654  1  -0.593638  0  -0.0799  -0.091845  0  1.41134  0
F  F79  1  0.50658740  0.64047910  0.65845363  1  -0.595189  0  -0.076696  -0.084693  0  1.358041  0
F  F80  1  0.50000575  0.83936590  0.60967357  1  -0.603294  0  -0.081943  -0.09238  0  1.50022  0
F  F81  1  0.49996774  0.82729656  0.72367254  1  -0.608179  0  -0.081928  -0.092749  0  1.499045  0
F  F82  1  0.50656434  0.14870201  0.97381811  1  -0.615364  0  -0.076793  -0.085068  0  1.358271  0
F  F83  1  0.49902782  0.19478688  0.07547011  1  -0.60932  0  -0.079689  -0.091538  0  1.413545  0
F  F84  1  0.49548900  0.31395316  0.97997551  1  -0.619528  0  -0.07684  -0.084674  0  1.362228  0
F  F85  1  0.50128091  0.36399859  0.08137362  1  -0.599155  0  -0.078413  -0.08929  0  1.439255  0
F  F86  1  0.50126308  0.30268196  0.25195679  1  -0.617111  0  -0.078892  -0.089964  0  1.437985  0
F  F87  1  0.49547745  0.35272142  0.35335079  1  -0.606513  0  -0.077012  -0.084965  0  1.361055  0
F  F88  1  0.49904731  0.47190036  0.25786936  1  -0.59976  0  -0.079914  -0.091849  0  1.411169  0
F  F89  1  0.50660250  0.51797881  0.35952113  1  -0.596835  0  -0.076734  -0.084741  0  1.358071  0
F  F90  1  0.50000340  0.27030970  0.16063449  1  -0.596885  0  -0.082001  -0.092511  0  1.500117  0
F  F91  1  0.49995880  0.39637918  0.17270266  1  -0.603575  0  -0.082005  -0.0929  0  1.498701  0
