# generated using pymatgen
data_CuH12C14N2ClO4
_symmetry_space_group_name_H-M   'P 1'
_cell_length_a   8.10867058
_cell_length_b   8.10865338
_cell_length_c   10.87392877
_cell_angle_alpha   101.27922855
_cell_angle_beta   101.27909660
_cell_angle_gamma   90.69874656
_symmetry_Int_Tables_number   1
_chemical_formula_structural   CuH12C14N2ClO4
_chemical_formula_sum   'Cu2 H24 C28 N4 Cl2 O8'
_cell_volume   686.66726110
_cell_formula_units_Z   2
loop_
 _symmetry_equiv_pos_site_id
 _symmetry_equiv_pos_as_xyz
  1  'x, y, z'
loop_
 _atom_site_type_symbol
 _atom_site_label
 _atom_site_symmetry_multiplicity
 _atom_site_fract_x
 _atom_site_fract_y
 _atom_site_fract_z
 _atom_site_occupancy
 _atom_site_hle17_bader_spin_density
 _atom_site_hle17_ddec_charge
 _atom_site_hle17_ddec_spin_density
 _atom_site_hle17_ddec_sum_bond_order
 _atom_site_hle17_magmom
 _atom_site_hse06_10hf_bader_spin_density
 _atom_site_hse06_10hf_ddec_charge
 _atom_site_hse06_10hf_ddec_spin_density
 _atom_site_hse06_10hf_ddec_sum_bond_order
 _atom_site_hse06_10hf_magmom
 _atom_site_hse06_bader_spin_density
 _atom_site_hse06_ddec_charge
 _atom_site_hse06_ddec_spin_density
 _atom_site_hse06_ddec_sum_bond_order
 _atom_site_hse06_magmom
 _atom_site_pbe_bader_spin_density
 _atom_site_pbe_cm5_charge
 _atom_site_pbe_ddec_charge
 _atom_site_pbe_ddec_spin_density
 _atom_site_pbe_ddec_sum_bond_order
 _atom_site_pbe_magmom
Cu  Cu0  1  0.94163108  0.05836774  0.75000007  1  0  0.428991  0  1.839168  0  0  0.30307  0  2.305989  0  0  0.300826  0  2.270444  0  0  0.468656  0.309623  0  2.327527  0
Cu  Cu1  1  0.05836902  0.94163108  0.25000053  1  0  0.428961  0  1.839196  0  0  0.303052  0  2.306044  0  0  0.300784  0  2.270446  0  0  0.468677  0.30961  0  2.32763  0
H  H2  1  0.22085223  0.88045869  0.87774932  1  0  0.093362  0  0.94814  0  0  0.097999  0  1.01855  0  0  0.101632  0  1.014529  0  0  0.116336  0.095305  0  1.021642  0
H  H3  1  0.88045316  0.22084841  0.37775174  1  0  0.093284  0  0.948278  0  0  0.097925  0  1.018682  0  0  0.101558  0  1.014662  0  0  0.116317  0.095238  0  1.021779  0
H  H4  1  0.77915067  0.11954518  0.12224785  1  0  0.093316  0  0.948275  0  0  0.097952  0  1.018678  0  0  0.101585  0  1.014658  0  0  0.116335  0.095264  0  1.021774  0
H  H5  1  0.11953799  0.77914787  0.62225084  1  0  0.093367  0  0.948139  0  0  0.098003  0  1.018549  0  0  0.101636  0  1.014528  0  0  0.116336  0.09531  0  1.021638  0
H  H6  1  0.42238860  0.94187455  0.08991228  1  0  0.117301  0  0.950797  0  0  0.125257  0  1.01261  0  0  0.12821  0  1.011863  0  0  0.110187  0.123132  0  1.013351  0
H  H7  1  0.94187428  0.42239185  0.58991270  1  0  0.117361  0  0.950754  0  0  0.125303  0  1.012583  0  0  0.128261  0  1.011826  0  0  0.110204  0.123179  0  1.013325  0
H  H8  1  0.57760781  0.05812553  0.91008705  1  0  0.117293  0  0.950782  0  0  0.125248  0  1.012615  0  0  0.1282  0  1.011864  0  0  0.110177  0.123119  0  1.013354  0
H  H9  1  0.05812470  0.57760949  0.41008811  1  0  0.117325  0  0.95083  0  0  0.125277  0  1.012637  0  0  0.12823  0  1.011889  0  0  0.110197  0.123151  0  1.013383  0
H  H10  1  0.17576515  0.40595455  0.18276727  1  0  0.125029  0  0.966381  0  0  0.127189  0  1.037541  0  0  0.131324  0  1.035036  0  0  0.104141  0.124272  0  1.039373  0
H  H11  1  0.40595530  0.17576657  0.68276409  1  0  0.125061  0  0.966376  0  0  0.127226  0  1.03753  0  0  0.131362  0  1.035021  0  0  0.104151  0.124303  0  1.039357  0
H  H12  1  0.82423249  0.59404551  0.81723683  1  0  0.125032  0  0.966399  0  0  0.127196  0  1.037556  0  0  0.131332  0  1.035045  0  0  0.104151  0.124275  0  1.039385  0
H  H13  1  0.59404607  0.82423226  0.31723394  1  0  0.125091  0  0.966312  0  0  0.127223  0  1.037501  0  0  0.131357  0  1.034994  0  0  0.104163  0.124306  0  1.039332  0
H  H14  1  0.97945479  0.32209495  0.96940545  1  0  0.084149  0  0.953158  0  0  0.089559  0  1.020245  0  0  0.092758  0  1.017824  0  0  0.108576  0.087182  0  1.022131  0
H  H15  1  0.32209249  0.97945142  0.46940654  1  0  0.084098  0  0.953079  0  0  0.089517  0  1.020175  0  0  0.092718  0  1.017752  0  0  0.108564  0.08714  0  1.022062  0
H  H16  1  0.02054922  0.67790639  0.03059518  1  0  0.084183  0  0.95315  0  0  0.0896  0  1.020221  0  0  0.092801  0  1.017799  0  0  0.108611  0.087226  0  1.022107  0
H  H17  1  0.67790504  0.02054613  0.53059257  1  0  0.084183  0  0.953153  0  0  0.089605  0  1.020212  0  0  0.092806  0  1.017791  0  0  0.1086  0.087227  0  1.022097  0
H  H18  1  0.55580761  0.32692825  0.52797162  1  0  0.075407  0  0.954371  0  0  0.082592  0  1.027664  0  0  0.083067  0  1.027363  0  0  0.09895  0.082132  0  1.027932  0
H  H19  1  0.32692604  0.55580925  0.02797136  1  0  0.075403  0  0.954335  0  0  0.082595  0  1.027627  0  0  0.083068  0  1.027326  0  0  0.098937  0.082136  0  1.027901  0
H  H20  1  0.44419395  0.67307435  0.47202883  1  0  0.075393  0  0.954386  0  0  0.082581  0  1.027699  0  0  0.083059  0  1.02739  0  0  0.098945  0.082123  0  1.027978  0
H  H21  1  0.67307043  0.44419208  0.97202816  1  0  0.075416  0  0.954384  0  0  0.0826  0  1.027661  0  0  0.083071  0  1.02737  0  0  0.098959  0.082141  0  1.027931  0
H  H22  1  0.65248484  0.44744171  0.43838440  1  0  0.06641  0  0.931855  0  0  0.080267  0  0.99482  0  0  0.079467  0  0.995861  0  0  0.105099  0.08077  0  0.994137  0
H  H23  1  0.44744162  0.65248449  0.93838757  1  0  0.066417  0  0.931816  0  0  0.080271  0  0.994799  0  0  0.07947  0  0.99584  0  0  0.105107  0.080771  0  0.994116  0
H  H24  1  0.34751793  0.55255964  0.56161329  1  0  0.066425  0  0.931828  0  0  0.080322  0  0.994773  0  0  0.079522  0  0.995813  0  0  0.105118  0.080821  0  0.994088  0
H  H25  1  0.55255603  0.34751558  0.06161378  1  0  0.066406  0  0.931852  0  0  0.080275  0  0.994793  0  0  0.079475  0  0.995834  0  0  0.105104  0.080776  0  0.994108  0
C  C26  1  0.21575340  0.99542117  0.94768306  1  0  0.118606  0  3.659556  0  0  0.08998  0  3.912821  0  0  0.095171  0  3.927691  0  0  0.042309  0.086465  0  3.903272  0
C  C27  1  0.99541643  0.21575275  0.44768599  1  0  0.11865  0  3.659799  0  0  0.090046  0  3.913055  0  0  0.095238  0  3.927923  0  0  0.042329  0.086521  0  3.903533  0
C  C28  1  0.78424705  0.00458395  0.05231485  1  0  0.118566  0  3.659753  0  0  0.089972  0  3.913012  0  0  0.095161  0  3.927878  0  0  0.042286  0.08645  0  3.90349  0
C  C29  1  0.00457856  0.78424479  0.55231643  1  0  0.118624  0  3.6596  0  0  0.089988  0  3.912864  0  0  0.09518  0  3.927731  0  0  0.042309  0.086474  0  3.903319  0
C  C30  1  0.32748948  0.02977890  0.06496910  1  0  -0.113096  0  3.724744  0  0  -0.136508  0  3.975417  0  0  -0.13951  0  3.9932  0  0  -0.075425  -0.13506  0  3.964304  0
C  C31  1  0.02977908  0.32749093  0.56496989  1  0  -0.113076  0  3.724879  0  0  -0.136488  0  3.975548  0  0  -0.139488  0  3.993333  0  0  -0.075432  -0.135043  0  3.964441  0
C  C32  1  0.67251189  0.97021992  0.93502985  1  0  -0.113038  0  3.724844  0  0  -0.136475  0  3.975549  0  0  -0.139468  0  3.993325  0  0  -0.075392  -0.135025  0  3.964435  0
C  C33  1  0.97021983  0.67250914  0.43503072  1  0  -0.113107  0  3.724868  0  0  -0.136512  0  3.975521  0  0  -0.139506  0  3.99331  0  0  -0.075445  -0.135065  0  3.964413  0
C  C34  1  0.31648545  0.17950844  0.15167780  1  0  -0.036894  0  3.774827  0  0  -0.022224  0  4.020256  0  0  -0.022686  0  4.034005  0  0  -0.005004  -0.022079  0  4.012012  0
C  C35  1  0.17950787  0.31649197  0.65167635  1  0  -0.03683  0  3.774988  0  0  -0.022181  0  4.020414  0  0  -0.022648  0  4.034156  0  0  -0.004955  -0.02203  0  4.012152  0
C  C36  1  0.68351240  0.82049541  0.84832413  1  0  -0.036788  0  3.774974  0  0  -0.022173  0  4.020432  0  0  -0.022636  0  4.034167  0  0  -0.004998  -0.022023  0  4.012175  0
C  C37  1  0.82049244  0.68351063  0.34832208  1  0  -0.036881  0  3.774775  0  0  -0.022193  0  4.020181  0  0  -0.022681  0  4.033948  0  0  -0.004974  -0.022048  0  4.011945  0
C  C38  1  0.18945445  0.28780331  0.11872116  1  0  -0.102108  0  3.671645  0  0  -0.128219  0  3.928471  0  0  -0.130604  0  3.944064  0  0  -0.074765  -0.12694  0  3.918424  0
C  C39  1  0.28780399  0.18945780  0.61872019  1  0  -0.10224  0  3.671493  0  0  -0.12835  0  3.928321  0  0  -0.13075  0  3.94395  0  0  -0.074813  -0.127064  0  3.918254  0
C  C40  1  0.81054432  0.71219424  0.88128090  1  0  -0.102078  0  3.671366  0  0  -0.128167  0  3.928166  0  0  -0.130566  0  3.943795  0  0  -0.074729  -0.126882  0  3.918107  0
C  C41  1  0.71219612  0.81054102  0.38127766  1  0  -0.102181  0  3.671412  0  0  -0.128267  0  3.928227  0  0  -0.13066  0  3.943864  0  0  -0.074814  -0.126983  0  3.91818  0
C  C42  1  0.08192414  0.24383344  0.99987422  1  0  0.120686  0  3.664284  0  0  0.092961  0  3.913461  0  0  0.097869  0  3.929455  0  0  0.039182  0.089675  0  3.903174  0
C  C43  1  0.24383136  0.08192515  0.49987545  1  0  0.120886  0  3.664089  0  0  0.093162  0  3.91329  0  0  0.098068  0  3.92928  0  0  0.039242  0.089874  0  3.903002  0
C  C44  1  0.91807741  0.75616915  0.00012807  1  0  0.120619  0  3.664157  0  0  0.092888  0  3.913374  0  0  0.097791  0  3.929363  0  0  0.039125  0.089602  0  3.903094  0
C  C45  1  0.75616630  0.91807492  0.50012497  1  0  0.120653  0  3.664235  0  0  0.092929  0  3.913399  0  0  0.097838  0  3.929381  0  0  0.039166  0.089644  0  3.90311  0
C  C46  1  0.44597648  0.22275106  0.27217653  1  0  0.579268  0  3.810915  0  0  0.525239  0  4.111821  0  0  0.559104  0  4.100956  0  0  0.23634  0.501872  0  4.119421  0
C  C47  1  0.22276011  0.44596458  0.77217292  1  0  0.578986  0  3.81108  0  0  0.525006  0  4.111882  0  0  0.558887  0  4.101  0  0  0.236298  0.501631  0  4.119474  0
C  C48  1  0.55404678  0.77723390  0.72782729  1  0  0.579053  0  3.810954  0  0  0.525131  0  4.111676  0  0  0.559009  0  4.100803  0  0  0.23633  0.501752  0  4.11927  0
C  C49  1  0.77724577  0.55402418  0.22782429  1  0  0.579163  0  3.810923  0  0  0.525096  0  4.111863  0  0  0.558986  0  4.100973  0  0  0.236304  0.501728  0  4.119465  0
C  C50  1  0.53361784  0.42055540  0.46661617  1  0  0.071272  0  3.583442  0  0  0.006301  0  3.856569  0  0  0.015265  0  3.859613  0  0  -0.06999  0.000245  0  3.8546  0
C  C51  1  0.42055479  0.53361769  0.96661831  1  0  0.071283  0  3.583297  0  0  0.00627  0  3.856411  0  0  0.015237  0  3.859452  0  0  -0.069991  0.000209  0  3.854443  0
C  C52  1  0.46638618  0.57944595  0.53338171  1  0  0.071286  0  3.583355  0  0  0.006219  0  3.856587  0  0  0.015187  0  3.85963  0  0  -0.069991  0.000154  0  3.85462  0
C  C53  1  0.57944537  0.46638238  0.03338340  1  0  0.071223  0  3.583436  0  0  0.006256  0  3.856511  0  0  0.015219  0  3.859553  0  0  -0.070003  0.000197  0  3.854541  0
N  N54  1  0.09497976  0.10144416  0.91429219  1  0  -0.28147  0  3.404587  0  0  -0.205234  0  3.70326  0  0  -0.213804  0  3.710535  0  0  -0.368518  -0.200494  0  3.698566  0
N  N55  1  0.10143939  0.09497723  0.41429353  1  0  -0.281532  0  3.404633  0  0  -0.205335  0  3.703352  0  0  -0.213898  0  3.710599  0  0  -0.368543  -0.200603  0  3.698697  0
N  N56  1  0.90502194  0.89856096  0.08570774  1  0  -0.281379  0  3.404447  0  0  -0.205173  0  3.703146  0  0  -0.21373  0  3.710391  0  0  -0.368485  -0.200443  0  3.698496  0
N  N57  1  0.89855554  0.90501906  0.58570777  1  0  -0.28148  0  3.404622  0  0  -0.205239  0  3.70329  0  0  -0.213806  0  3.710564  0  0  -0.368492  -0.2005  0  3.698598  0
Cl  Cl58  1  0.74122452  0.25877692  0.75000060  1  0  -0.63137  0  0.938632  0  0  -0.562171  0  1.226048  0  0  -0.578521  0  1.203563  0  0  -0.358332  -0.549675  0  1.240545  0
Cl  Cl59  1  0.25877559  0.74122189  0.25000000  1  0  -0.631373  0  0.938653  0  0  -0.56216  0  1.226068  0  0  -0.578501  0  1.203558  0  0  -0.358315  -0.549644  0  1.240572  0
O  O60  1  0.57627209  0.14888411  0.29365941  1  0  -0.512016  0  1.955343  0  0  -0.468095  0  2.180049  0  0  -0.48796  0  2.1734  0  0  -0.265211  -0.45456  0  2.184579  0
O  O61  1  0.14888210  0.57628800  0.79366302  1  0  -0.51211  0  1.954978  0  0  -0.468165  0  2.179598  0  0  -0.488036  0  2.172942  0  0  -0.265334  -0.454631  0  2.184123  0
O  O62  1  0.42370937  0.85111850  0.70633439  1  0  -0.512244  0  1.954742  0  0  -0.468286  0  2.179286  0  0  -0.488157  0  2.172634  0  0  -0.265376  -0.45475  0  2.183811  0
O  O63  1  0.85112091  0.42371837  0.20633913  1  0  -0.512088  0  1.955188  0  0  -0.468122  0  2.179864  0  0  -0.487994  0  2.173203  0  0  -0.265265  -0.454584  0  2.184392  0
O  O64  1  0.40624307  0.35781701  0.35321584  1  0  -0.304657  0  2.294241  0  0  -0.22747  0  2.529646  0  0  -0.250408  0  2.5302  0  0  -0.15736  -0.211843  0  2.529154  0
O  O65  1  0.35781592  0.40624617  0.85321651  1  0  -0.304435  0  2.294425  0  0  -0.227267  0  2.529818  0  0  -0.250208  0  2.530369  0  0  -0.157266  -0.211642  0  2.529316  0
O  O66  1  0.59375823  0.64218055  0.64678292  1  0  -0.304474  0  2.294514  0  0  -0.227319  0  2.52992  0  0  -0.250264  0  2.530478  0  0  -0.157297  -0.211686  0  2.529417  0
O  O67  1  0.64218431  0.59375515  0.14678540  1  0  -0.304542  0  2.294351  0  0  -0.227355  0  2.529748  0  0  -0.250296  0  2.530294  0  0  -0.157304  -0.211728  0  2.529256  0
