# generated using pymatgen
data_H12RuC22SN4(ClO3)2
_symmetry_space_group_name_H-M   'P 1'
_cell_length_a   10.49531549
_cell_length_b   10.72686314
_cell_length_c   11.73200453
_cell_angle_alpha   114.87273388
_cell_angle_beta   94.21799670
_cell_angle_gamma   93.42723622
_symmetry_Int_Tables_number   1
_chemical_formula_structural   H12RuC22SN4(ClO3)2
_chemical_formula_sum   'H24 Ru2 C44 S2 N8 Cl4 O12'
_cell_volume   1189.02999752
_cell_formula_units_Z   2
loop_
 _symmetry_equiv_pos_site_id
 _symmetry_equiv_pos_as_xyz
  1  'x, y, z'
loop_
 _atom_site_type_symbol
 _atom_site_label
 _atom_site_symmetry_multiplicity
 _atom_site_fract_x
 _atom_site_fract_y
 _atom_site_fract_z
 _atom_site_occupancy
 _atom_site_pbe_cm5_charge
 _atom_site_pbe_ddec_charge
 _atom_site_pbe_ddec_spin_density
 _atom_site_pbe_ddec_sum_bond_order
 _atom_site_pbe_magmom
H  H0  1  0.62561176  0.26328509  0.66009975  1  0.092646  0.097773  1.8e-05  1.041657  0.0
H  H1  1  0.37433421  0.73673241  0.33984314  1  0.092722  0.097784  1.8e-05  1.041836  0.0
H  H2  1  0.59934518  0.09351799  0.53043981  1  0.099508  0.112957  -0.000194  1.035182  0.0
H  H3  1  0.40058833  0.90648922  0.46950595  1  0.09951  0.112987  -0.000193  1.034884  0.0
H  H4  1  0.65556416  0.11242680  0.68414902  1  0.096271  0.103975  0.000297  1.04124  0.0
H  H5  1  0.34442404  0.88760202  0.31578582  1  0.09633  0.104025  0.000299  1.041581  0.0
H  H6  1  0.61911461  0.28466708  0.86219610  1  0.110497  0.141746  0.000187  1.007406  0.0
H  H7  1  0.38089830  0.71529185  0.13777102  1  0.110489  0.141655  0.000188  1.007482  0.0
H  H8  1  0.32120604  0.35033539  0.10967466  1  0.103511  0.123728  -2e-05  1.025386  0.0
H  H9  1  0.67888957  0.64953224  0.89035733  1  0.103523  0.123782  -2e-05  1.025349  0.0
H  H10  1  0.16111680  0.21745863  0.92305908  1  0.111895  0.121698  -0.000127  0.989954  0.0
H  H11  1  0.83894306  0.78248744  0.07700108  1  0.111904  0.12146  -0.000126  0.990328  0.0
H  H12  1  0.97394711  0.38660464  0.77666100  1  0.094125  0.100329  -4e-06  1.025736  0.0
H  H13  1  0.02600438  0.61335337  0.22333296  1  0.094142  0.100349  -4e-06  1.025712  0.0
H  H14  1  0.88502520  0.46890895  0.90761622  1  0.105641  0.114661  -6e-06  0.975859  0.0
H  H15  1  0.11494059  0.53112946  0.09238036  1  0.105569  0.114498  -6e-06  0.975915  0.0
H  H16  1  0.96717033  0.57175047  0.84246020  1  0.094413  0.103385  0.000526  1.035327  0.0
H  H17  1  0.03283405  0.42821873  0.15749913  1  0.09442  0.103424  0.000526  1.035358  0.0
H  H18  1  0.67767064  0.61705504  0.67531710  1  0.108282  0.138348  0.000107  1.006258  0.0
H  H19  1  0.32229692  0.38295029  0.32465934  1  0.10825  0.138207  0.000108  1.006264  0.0
H  H20  1  0.81044142  0.48513868  0.30660626  1  0.099186  0.11893  4.7e-05  1.008401  0.0
H  H21  1  0.18959020  0.51490909  0.69339768  1  0.09922  0.118915  4.7e-05  1.008094  0.0
H  H22  1  0.93254004  0.31397009  0.34606165  1  0.111669  0.126695  -0.000128  1.002242  0.0
H  H23  1  0.06749549  0.68607872  0.65394381  1  0.111628  0.126729  -0.000129  1.002205  0.0
Ru  Ru24  1  0.06716539  0.00353814  0.42725998  1  0.81123  0.854957  -1.309432  3.968246  -1.195
Ru  Ru25  1  0.93282814  0.99651284  0.57276976  1  0.81128  0.854749  -1.309359  3.968406  -1.194
C  C26  1  0.20492112  0.98754088  0.17455843  1  0.211753  0.294069  -0.017982  4.014698  -0.03
C  C27  1  0.79506946  0.01248728  0.82544367  1  0.211817  0.294113  -0.017971  4.015219  -0.03
C  C28  1  0.23730166  0.95171926  0.05153521  1  0.002684  -0.069738  0.11508  4.090795  0.07
C  C29  1  0.76268034  0.04827903  0.94847111  1  0.002751  -0.069835  0.115104  4.090682  0.07
C  C30  1  0.13354929  0.87569177  0.95840294  1  0.181221  0.257978  -0.002729  4.059068  -0.013
C  C31  1  0.86640959  0.12433539  0.04160932  1  0.181103  0.257922  -0.002732  4.05857  -0.013
C  C32  1  0.36300887  0.97887206  0.02599847  1  0.007706  -0.018801  0.079525  3.985913  0.043
C  C33  1  0.63697827  0.02109940  0.97400057  1  0.007706  -0.018729  0.079487  3.985779  0.043
C  C34  1  0.40223542  0.92765917  0.90130841  1  0.106868  0.114779  0.020776  4.037021  0.008
C  C35  1  0.59775962  0.07230510  0.09869442  1  0.106819  0.114864  0.020775  4.036799  0.008
C  C36  1  0.53430419  0.94551133  0.87652621  1  0.107151  0.114622  0.024288  4.027042  0.011
C  C37  1  0.46568830  0.05446634  0.12347557  1  0.107258  0.114684  0.024275  4.027052  0.011
C  C38  1  0.19363967  0.10911710  0.68170431  1  0.212826  0.546931  0.011308  4.123003  0.007
C  C39  1  0.80636034  0.89091230  0.31833729  1  0.212959  0.546969  0.011309  4.12316  0.007
C  C40  1  0.29659563  0.17794220  0.78634369  1  -0.036455  -0.168485  -6.1e-05  3.977117  -0.001
C  C41  1  0.70341550  0.82206240  0.21368329  1  -0.036473  -0.168275  -6e-05  3.976901  -0.001
C  C42  1  0.42816675  0.19462625  0.76858805  1  0.096823  0.267595  0.003214  4.01946  0.002
C  C43  1  0.57183685  0.80536791  0.23141567  1  0.096652  0.267263  0.003212  4.019586  0.002
C  C44  1  0.59431999  0.15385931  0.63142886  1  -0.152951  -0.186411  -0.00014  3.853598  0.0
C  C45  1  0.40563092  0.84616030  0.36852114  1  -0.153049  -0.18638  -0.000138  3.853755  0.0
C  C46  1  0.51862612  0.26863709  0.87395367  1  -0.118981  -0.304469  0.000495  3.986187  0.0
C  C47  1  0.48140023  0.73132405  0.12603825  1  -0.118803  -0.304026  0.000493  3.98628  0.0
C  C48  1  0.47873985  0.32284279  0.99452098  1  0.016487  0.184673  0.003447  4.074491  0.002
C  C49  1  0.52133412  0.67708757  0.00548987  1  0.016209  0.184175  0.003445  4.074926  0.002
C  C50  1  0.35064632  0.30545421  0.01483029  1  -0.113139  -0.194093  -3.7e-05  4.015117  -0.001
C  C51  1  0.64943916  0.69444738  0.98519686  1  -0.112918  -0.193778  -3.7e-05  4.014924  -0.001
C  C52  1  0.26164345  0.23287054  0.91019366  1  -0.078472  -0.046453  0.003507  3.972794  0.002
C  C53  1  0.73841384  0.76707750  0.08984916  1  -0.078582  -0.046449  0.003506  3.972968  0.002
C  C54  1  0.92988138  0.24468283  0.53425178  1  0.215693  0.545198  0.011792  4.131607  0.007
C  C55  1  0.07010664  0.75535874  0.46575183  1  0.215582  0.545044  0.011791  4.132189  0.007
C  C56  1  0.87393091  0.36610358  0.53166543  1  -0.034966  -0.17289  0.000375  3.983657  0.0
C  C57  1  0.12606462  0.63393587  0.46832853  1  -0.034925  -0.172503  0.000374  3.983239  0.0
C  C58  1  0.80392761  0.45570486  0.62676841  1  0.096976  0.265196  0.002651  4.00618  0.002
C  C59  1  0.19606190  0.54433148  0.37322309  1  0.096988  0.265024  0.002652  4.005694  0.002
C  C60  1  0.91440750  0.47129137  0.82071451  1  -0.140901  -0.171582  0.00028  3.867128  0.0
C  C61  1  0.08557368  0.52869645  0.17926305  1  -0.140888  -0.171598  0.000282  3.867319  0.0
C  C62  1  0.73229268  0.54937195  0.60262543  1  -0.104775  -0.26973  -0.000488  3.958561  -0.001
C  C63  1  0.26769312  0.45065509  0.39736056  1  -0.104603  -0.269326  -0.000487  3.958159  -0.001
C  C64  1  0.73265654  0.55678943  0.48684743  1  0.019985  0.17698  0.002507  4.084927  0.002
C  C65  1  0.26733805  0.44322936  0.51313604  1  0.019754  0.1765  0.002508  4.084654  0.002
C  C66  1  0.80862725  0.47655365  0.39564264  1  -0.109877  -0.186422  -0.00056  4.023985  -0.001
C  C67  1  0.19139835  0.52349102  0.60436054  1  -0.10985  -0.186037  -0.00056  4.023485  -0.001
C  C68  1  0.87797485  0.38214278  0.41876460  1  -0.0762  -0.042517  0.002606  3.964399  0.002
C  C69  1  0.12205485  0.61790500  0.58124091  1  -0.076272  -0.04293  0.002604  3.964302  0.002
S  S70  1  0.40933920  0.81102129  0.67847450  1  0.405854  0.452493  -0.009286  3.389746  -0.012
S  S71  1  0.59065693  0.18893477  0.32153466  1  0.405804  0.452337  -0.009284  3.389652  -0.012
N  N72  1  0.17139548  0.00556191  0.27296438  1  -0.333491  -0.355476  0.071293  3.179612  0.064
N  N73  1  0.82858808  0.99448385  0.72705329  1  -0.333503  -0.355392  0.071214  3.180575  0.064
N  N74  1  0.04157280  0.81269980  0.89091230  1  -0.304716  -0.369199  0.063221  2.756696  0.046
N  N75  1  0.95838882  0.18734589  0.10909612  1  -0.30462  -0.369078  0.063264  2.755999  0.046
N  N76  1  0.32294584  0.85412439  0.79500493  1  -0.29833  -0.336172  0.019358  3.212999  0.015
N  N77  1  0.67704573  0.14583370  0.20499956  1  -0.298266  -0.336069  0.019342  3.212967  0.015
N  N78  1  0.54910014  0.88286962  0.75258010  1  -0.303711  -0.343075  0.018127  3.204762  0.014
N  N79  1  0.45089280  0.11710290  0.24742316  1  -0.303812  -0.343129  0.018135  3.205116  0.014
Cl  Cl80  1  0.59131073  0.41456618  0.12326462  1  0.005526  -0.073107  0.000723  1.599864  0.0
Cl  Cl81  1  0.40877571  0.58533317  0.87672680  1  0.005509  -0.073112  0.000723  1.60004  0.0
Cl  Cl82  1  0.63968959  0.66791421  0.45576985  1  0.022042  -0.036572  0.000513  1.680779  0.0
Cl  Cl83  1  0.36028980  0.33207463  0.54420456  1  0.022131  -0.03643  0.000516  1.680758  0.0
O  O84  1  0.21403271  0.08221008  0.56725143  1  -0.29199  -0.458024  -0.033486  2.519907  -0.036
O  O85  1  0.78595342  0.91781418  0.43279320  1  -0.29194  -0.457919  -0.033478  2.519886  -0.036
O  O86  1  0.08237665  0.08101511  0.71011230  1  -0.297058  -0.455208  -0.031921  2.432959  -0.036
O  O87  1  0.91760845  0.91904827  0.28992498  1  -0.297051  -0.455245  -0.031905  2.433059  -0.036
O  O88  1  0.46148417  0.13567452  0.64985212  1  -0.175805  -0.142463  0.001737  2.62775  0.001
O  O89  1  0.53848548  0.86432368  0.35013966  1  -0.175785  -0.142522  0.001737  2.627523  0.001
O  O90  1  0.01731372  0.19431189  0.46130922  1  -0.289491  -0.440857  -0.025823  2.450641  -0.029
O  O91  1  0.98270369  0.80573913  0.53872478  1  -0.289279  -0.440704  -0.025809  2.450703  -0.029
O  O92  1  0.88422548  0.18748808  0.60173951  1  -0.292065  -0.454996  -0.025941  2.462954  -0.028
O  O93  1  0.11574875  0.81254824  0.39825005  1  -0.291983  -0.454892  -0.025939  2.462772  -0.028
O  O94  1  0.79604425  0.45475729  0.74252280  1  -0.195222  -0.183036  0.000331  2.559129  0.0
O  O95  1  0.20393907  0.54526355  0.25746065  1  -0.195301  -0.183023  0.000333  2.558822  0.0
