# generated using pymatgen
data_CdH13C8S2N3O2
_symmetry_space_group_name_H-M   'P 1'
_cell_length_a   7.55739090
_cell_length_b   8.70001016
_cell_length_c   9.93265713
_cell_angle_alpha   81.92345287
_cell_angle_beta   74.24477108
_cell_angle_gamma   89.51167142
_symmetry_Int_Tables_number   1
_chemical_formula_structural   CdH13C8S2N3O2
_chemical_formula_sum   'Cd2 H26 C16 S4 N6 O4'
_cell_volume   621.99555862
_cell_formula_units_Z   2
loop_
 _symmetry_equiv_pos_site_id
 _symmetry_equiv_pos_as_xyz
  1  'x, y, z'
loop_
 _atom_site_type_symbol
 _atom_site_label
 _atom_site_symmetry_multiplicity
 _atom_site_fract_x
 _atom_site_fract_y
 _atom_site_fract_z
 _atom_site_occupancy
 _atom_site_hle17_bader_spin_density
 _atom_site_hle17_ddec_charge
 _atom_site_hle17_ddec_spin_density
 _atom_site_hle17_ddec_sum_bond_order
 _atom_site_hle17_magmom
 _atom_site_hse06_10hf_bader_spin_density
 _atom_site_hse06_10hf_ddec_charge
 _atom_site_hse06_10hf_ddec_spin_density
 _atom_site_hse06_10hf_ddec_sum_bond_order
 _atom_site_hse06_10hf_magmom
 _atom_site_hse06_bader_spin_density
 _atom_site_hse06_ddec_charge
 _atom_site_hse06_ddec_spin_density
 _atom_site_hse06_ddec_sum_bond_order
 _atom_site_hse06_magmom
 _atom_site_pbe_bader_spin_density
 _atom_site_pbe_cm5_charge
 _atom_site_pbe_ddec_charge
 _atom_site_pbe_ddec_spin_density
 _atom_site_pbe_ddec_sum_bond_order
 _atom_site_pbe_magmom
Cd  Cd0  1  0.00761302  0.20674817  0.39917997  1  0  1.11018  0  1.843057  0  0  0.937708  0  2.31004  0  0  0.989056  0  2.2616  0  0  0.763449  0.901666  0  2.342884  0
Cd  Cd1  1  0.99237248  0.79324587  0.60082559  1  0  1.110303  0  1.843137  0  0  0.937871  0  2.310111  0  0  0.989212  0  2.261678  0  0  0.763484  0.901826  0  2.342946  0
H  H2  1  0.57127541  0.98933073  0.36633495  1  0  0.127686  0  0.934369  0  0  0.141479  0  0.994487  0  0  0.143489  0  0.994607  0  0  0.10933  0.140001  0  0.994511  0
H  H3  1  0.42871297  0.01066571  0.63366372  1  0  0.127638  0  0.934346  0  0  0.141548  0  0.994341  0  0  0.143559  0  0.994453  0  0  0.109341  0.140069  0  0.994371  0
H  H4  1  0.43814186  0.81666058  0.43819975  1  0  0.115007  0  0.932561  0  0  0.128979  0  0.992843  0  0  0.130848  0  0.992658  0  0  0.104014  0.127873  0  0.992671  0
H  H5  1  0.56185742  0.18333486  0.56180193  1  0  0.114941  0  0.932596  0  0  0.128954  0  0.992859  0  0  0.130807  0  0.992693  0  0  0.104022  0.127862  0  0.992672  0
H  H6  1  0.56099012  0.94518539  0.11960839  1  0  0.090315  0  0.934751  0  0  0.098889  0  1.005054  0  0  0.10033  0  1.003888  0  0  0.110808  0.097311  0  1.006083  0
H  H7  1  0.43901338  0.05481129  0.88038828  1  0  0.090283  0  0.934741  0  0  0.09886  0  1.005031  0  0  0.100297  0  1.003875  0  0  0.11081  0.097286  0  1.006066  0
H  H8  1  0.44415590  0.76378869  0.19506716  1  0  0.087262  0  0.941568  0  0  0.10262  0  1.001452  0  0  0.102525  0  1.002223  0  0  0.106596  0.102182  0  1.001212  0
H  H9  1  0.55585593  0.23621047  0.80492455  1  0  0.08731  0  0.941441  0  0  0.102647  0  1.00135  0  0  0.102554  0  1.002117  0  0  0.106594  0.102212  0  1.001105  0
H  H10  1  0.90414095  0.65948873  0.03100401  1  0  0.111944  0  0.955222  0  0  0.128753  0  1.018654  0  0  0.128984  0  1.019586  0  0  0.104219  0.128136  0  1.018174  0
H  H11  1  0.09586123  0.34051142  0.96899150  1  0  0.1119  0  0.955246  0  0  0.128722  0  1.018666  0  0  0.128952  0  1.019592  0  0  0.104213  0.128107  0  1.018183  0
H  H12  1  0.76419658  0.80474470  0.96596198  1  0  0.135373  0  0.94241  0  0  0.153539  0  1.001385  0  0  0.154932  0  1.00058  0  0  0.11137  0.151929  0  1.002705  0
H  H13  1  0.23580406  0.19525076  0.03404044  1  0  0.135366  0  0.942428  0  0  0.153515  0  1.001419  0  0  0.154907  0  1.000609  0  0  0.111372  0.1519  0  1.002748  0
H  H14  1  0.66391975  0.61916579  0.05540204  1  0  0.114642  0  0.961838  0  0  0.124601  0  1.038108  0  0  0.125701  0  1.038097  0  0  0.098965  0.123365  0  1.038103  0
H  H15  1  0.33608646  0.38083093  0.94459611  1  0  0.114683  0  0.96182  0  0  0.124632  0  1.038088  0  0  0.125731  0  1.03807  0  0  0.098956  0.123397  0  1.038081  0
H  H16  1  0.87037741  0.98407379  0.10483926  1  0  0.11129  0  0.9522  0  0  0.12934  0  1.013751  0  0  0.129539  0  1.014779  0  0  0.106745  0.128634  0  1.013249  0
H  H17  1  0.12963020  0.01592181  0.89515673  1  0  0.111289  0  0.95217  0  0  0.129344  0  1.01372  0  0  0.129543  0  1.014745  0  0  0.106769  0.128637  0  1.013218  0
H  H18  1  0.00570024  0.82814672  0.15922391  1  0  0.114725  0  0.969742  0  0  0.127057  0  1.04068  0  0  0.128145  0  1.040817  0  0  0.100129  0.125533  0  1.041334  0
H  H19  1  0.99430035  0.17184642  0.84077980  1  0  0.114699  0  0.969786  0  0  0.12703  0  1.040737  0  0  0.128119  0  1.040872  0  0  0.100107  0.125503  0  1.041385  0
H  H20  1  0.84747968  0.92261051  0.28924038  1  0  0.126925  0  0.957795  0  0  0.142916  0  1.02093  0  0  0.143932  0  1.020407  0  0  0.109194  0.14153  0  1.021761  0
H  H21  1  0.15252249  0.07739311  0.71075773  1  0  0.126915  0  0.957805  0  0  0.142898  0  1.020972  0  0  0.143912  0  1.02045  0  0  0.109195  0.141511  0  1.021799  0
H  H22  1  0.60200051  0.55881468  0.30943465  1  0  0.114518  0  0.9571  0  0  0.129282  0  1.022045  0  0  0.12987  0  1.022537  0  0  0.101485  0.128428  0  1.02178  0
H  H23  1  0.39800012  0.44118309  0.69056950  1  0  0.114523  0  0.957076  0  0  0.12929  0  1.022024  0  0  0.129879  0  1.022514  0  0  0.101464  0.128431  0  1.021755  0
H  H24  1  0.69810250  0.68276921  0.40469632  1  0  0.113305  0  0.950529  0  0  0.128061  0  1.017214  0  0  0.128489  0  1.017658  0  0  0.106256  0.126608  0  1.01831  0
H  H25  1  0.30190222  0.31722978  0.59530991  1  0  0.113378  0  0.950508  0  0  0.128134  0  1.017186  0  0  0.128562  0  1.017628  0  0  0.106282  0.126675  0  1.018288  0
H  H26  1  0.84578312  0.57780685  0.27872789  1  0  0.122015  0  0.937225  0  0  0.140497  0  0.995189  0  0  0.14038  0  0.996555  0  0  0.111477  0.140081  0  0.994305  0
H  H27  1  0.15422578  0.42219106  0.72127360  1  0  0.122106  0  0.937228  0  0  0.140549  0  0.995234  0  0  0.140432  0  0.996598  0  0  0.111459  0.14013  0  0.994346  0
C  C28  1  0.81647959  0.43556276  0.63828323  1  0  0.299799  0  4.012643  0  0  0.280671  0  4.309644  0  0  0.303203  0  4.32453  0  0  0.150412  0.265743  0  4.299485  0
C  C29  1  0.18351993  0.56445010  0.36171530  1  0  0.299876  0  4.012986  0  0  0.280747  0  4.309985  0  0  0.303276  0  4.324866  0  0  0.15041  0.265828  0  4.299821  0
C  C30  1  0.76421718  0.26978260  0.17043598  1  0  0.304897  0  4.094398  0  0  0.288333  0  4.388103  0  0  0.312462  0  4.402484  0  0  0.141413  0.271939  0  4.377448  0
C  C31  1  0.23579557  0.73022343  0.82958493  1  0  0.304928  0  4.093539  0  0  0.288377  0  4.387285  0  0  0.312513  0  4.401684  0  0  0.141428  0.271993  0  4.376599  0
C  C32  1  0.29718312  0.00180992  0.35256813  1  0  0.699422  0  3.838723  0  0  0.651357  0  4.133779  0  0  0.684281  0  4.12922  0  0  0.199731  0.628904  0  4.135975  0
C  C33  1  0.70281467  0.99818895  0.64744249  1  0  0.699743  0  3.838535  0  0  0.65168  0  4.133605  0  0  0.6846  0  4.129039  0  0  0.199953  0.629234  0  4.135794  0
C  C34  1  0.47007907  0.91014727  0.34785796  1  0  -0.285599  0  3.655142  0  0  -0.322382  0  3.895967  0  0  -0.329792  0  3.905222  0  0  -0.165431  -0.317596  0  3.889034  0
C  C35  1  0.52990931  0.08985148  0.65214245  1  0  -0.285625  0  3.654848  0  0  -0.322505  0  3.895618  0  0  -0.329902  0  3.904877  0  0  -0.165509  -0.317745  0  3.888718  0
C  C36  1  0.54135774  0.84974811  0.20760037  1  0  -0.013381  0  3.529388  0  0  -0.066467  0  3.765709  0  0  -0.061247  0  3.776914  0  0  -0.062357  -0.068188  0  3.757239  0
C  C37  1  0.45863884  0.15025192  0.79240230  1  0  -0.013335  0  3.529137  0  0  -0.066405  0  3.765448  0  0  -0.061179  0  3.776639  0  0  -0.062319  -0.068147  0  3.757001  0
C  C38  1  0.76734112  0.70904159  0.04959355  1  0  -0.219093  0  3.508758  0  0  -0.313845  0  3.74403  0  0  -0.310512  0  3.752048  0  0  -0.141286  -0.314385  0  3.738859  0
C  C39  1  0.23266652  0.29095518  0.95040128  1  0  -0.219117  0  3.508952  0  0  -0.313798  0  3.744054  0  0  -0.31049  0  3.752148  0  0  -0.141235  -0.31433  0  3.738879  0
C  C40  1  0.87337243  0.88499515  0.18539948  1  0  -0.209648  0  3.500833  0  0  -0.299831  0  3.72667  0  0  -0.296357  0  3.734693  0  0  -0.140856  -0.299946  0  3.721009  0
C  C41  1  0.12662829  0.11500264  0.81459962  1  0  -0.209586  0  3.500874  0  0  -0.29978  0  3.726722  0  0  -0.296303  0  3.734746  0  0  -0.140852  -0.299897  0  3.721057  0
C  C42  1  0.71615017  0.63821286  0.30431402  1  0  -0.199989  0  3.500969  0  0  -0.287147  0  3.723897  0  0  -0.283479  0  3.732915  0  0  -0.136604  -0.287485  0  3.717979  0
C  C43  1  0.28385330  0.36178730  0.69568626  1  0  -0.200128  0  3.500994  0  0  -0.28731  0  3.723943  0  0  -0.283629  0  3.732941  0  0  -0.136609  -0.287646  0  3.718042  0
S  S44  1  0.71326503  0.58046244  0.71145681  1  0  -0.32982  0  2.197596  0  0  -0.296496  0  2.52841  0  0  -0.31426  0  2.521831  0  0  -0.122667  -0.28537  0  2.534213  0
S  S45  1  0.28673567  0.41954114  0.28854663  1  0  -0.329874  0  2.19736  0  0  -0.296555  0  2.528178  0  0  -0.314318  0  2.521595  0  0  -0.122666  -0.285426  0  2.533982  0
S  S46  1  0.69802015  0.28215848  0.02862768  1  0  -0.337966  0  2.066487  0  0  -0.315931  0  2.36668  0  0  -0.330984  0  2.363392  0  0  -0.146385  -0.304976  0  2.368949  0
S  S47  1  0.30196413  0.71784831  0.97137659  1  0  -0.337652  0  2.067558  0  0  -0.315633  0  2.367761  0  0  -0.33068  0  2.36448  0  0  -0.146223  -0.304706  0  2.37003  0
N  N48  1  0.88716884  0.32593996  0.59025879  1  0  -0.547751  0  2.889408  0  0  -0.486528  0  3.167892  0  0  -0.509484  0  3.174861  0  0  -0.395919  -0.470751  0  3.162661  0
N  N49  1  0.11283193  0.67406016  0.40973901  1  0  -0.547809  0  2.88997  0  0  -0.486598  0  3.168473  0  0  -0.509552  0  3.175442  0  0  -0.395918  -0.470826  0  3.16324  0
N  N50  1  0.81124072  0.26162458  0.27630965  1  0  -0.614476  0  2.958588  0  0  -0.548615  0  3.246185  0  0  -0.573987  0  3.25015  0  0  -0.43569  -0.530645  0  3.242336  0
N  N51  1  0.18876195  0.73839421  0.72367043  1  0  -0.614876  0  2.956871  0  0  -0.549026  0  3.244531  0  0  -0.574399  0  3.24847  0  0  -0.435856  -0.531051  0  3.240656  0
N  N52  1  0.72433383  0.77072037  0.18860759  1  0  0.163659  0  3.368107  0  0  0.270228  0  3.583404  0  0  0.258418  0  3.606481  0  0  -0.228336  0.27588  0  3.568156  0
N  N53  1  0.27566553  0.22927740  0.81139077  1  0  0.163598  0  3.368254  0  0  0.270186  0  3.583504  0  0  0.258357  0  3.606621  0  0  -0.228424  0.275836  0  3.568255  0
O  O54  1  0.25202965  0.05242831  0.24223394  1  0  -0.609082  0  1.924506  0  0  -0.548034  0  2.149894  0  0  -0.574053  0  2.142949  0  0  -0.313683  -0.529874  0  2.154924  0
O  O55  1  0.74795897  0.94756702  0.75775072  1  0  -0.609082  0  1.925086  0  0  -0.54808  0  2.150519  0  0  -0.574089  0  2.143572  0  0  -0.31378  -0.529923  0  2.155539  0
O  O56  1  0.20214535  0.02866090  0.47694672  1  0  -0.696165  0  2.031273  0  0  -0.619057  0  2.293682  0  0  -0.650437  0  2.282544  0  0  -0.346397  -0.596522  0  2.300352  0
O  O57  1  0.79785008  0.97134148  0.52304481  1  0  -0.696395  0  2.030825  0  0  -0.619273  0  2.29322  0  0  -0.650665  0  2.282097  0  0  -0.346449  -0.596744  0  2.299896  0
