# generated using pymatgen
data_Zn2H15C30N2(ClO3)3
_symmetry_space_group_name_H-M   'P 1'
_cell_length_a   9.88168404
_cell_length_b   10.84083103
_cell_length_c   11.03436346
_cell_angle_alpha   94.32397839
_cell_angle_beta   90.57736951
_cell_angle_gamma   93.37986602
_symmetry_Int_Tables_number   1
_chemical_formula_structural   Zn2H15C30N2(ClO3)3
_chemical_formula_sum   'Zn2 H15 C30 N2 Cl3 O9'
_cell_volume   1176.52355905
_cell_formula_units_Z   1
loop_
 _symmetry_equiv_pos_site_id
 _symmetry_equiv_pos_as_xyz
  1  'x, y, z'
loop_
 _atom_site_type_symbol
 _atom_site_label
 _atom_site_symmetry_multiplicity
 _atom_site_fract_x
 _atom_site_fract_y
 _atom_site_fract_z
 _atom_site_occupancy
 _atom_site_pbe_bader_charge
 _atom_site_pbe_bader_spin_density
 _atom_site_pbe_cm5_charge
 _atom_site_pbe_ddec_charge
 _atom_site_pbe_ddec_spin_density
 _atom_site_pbe_ddec_sum_bond_order
 _atom_site_pbe_magmom
Zn  Zn0  1  0.64650982  0.50746392  0.49912571  1  1.304114  0  0.670357  0.849323  0  2.370723  0
Zn  Zn1  1  0.35802113  0.49288417  0.49687061  1  1.296354  0  0.671642  0.827153  0  2.372667  0
H  H2  1  0.97613034  0.51089421  0.90355293  1  0.063918  0  0.099507  0.111633  0  1.000335  0
H  H3  1  0.76196896  0.47635537  0.78457964  1  0.103161  0  0.098558  0.112288  0  1.044985  0
H  H4  1  0.28905191  0.49361217  0.87959889  1  0.094182  0  0.101445  0.108138  0  1.00709  0
H  H5  1  0.15279587  0.63959968  0.61498503  1  0.15287  0  0.138353  0.133335  0  0.971948  0
H  H6  1  0.23844884  0.31236057  0.33886960  1  0.160989  0  0.115071  0.138763  0  1.030046  0
H  H7  1  0.09660465  0.17142405  0.19463222  1  0.069668  0  0.113695  0.111165  0  0.975437  0
H  H8  1  0.84567940  0.18642529  0.18821145  1  0.101266  0  0.113287  0.108171  0  0.972272  0
H  H9  1  0.73560756  0.34117273  0.32300287  1  0.155526  0  0.115099  0.139462  0  1.041783  0
H  H10  1  0.62411366  0.06254771  0.32734319  1  0.048859  0  0.102309  0.101613  0  0.985654  0
H  H11  1  0.73536705  0.93176883  0.51656256  1  0.081698  0  0.096732  0.089036  0  1.000324  0
H  H12  1  0.61910763  0.10272090  0.69028564  1  0.081111  0  0.102001  0.10514  0  0.986577  0
H  H13  1  0.26977157  0.06772023  0.49639360  1  0.078111  0  0.103371  0.120286  0  0.982608  0
H  H14  1  0.28417014  0.49473494  0.10682132  1  0.111476  0  0.093788  0.098987  0  1.046526  0
H  H15  1  0.75029406  0.57640084  0.23046329  1  0.142522  0  0.104449  0.131222  0  1.027189  0
H  H16  1  0.33468270  0.99414980  0.75615295  1  0.594926  0  0.329875  0.35848  0  0.889196  0
C  C17  1  0.48763526  0.50378190  0.26299155  1  1.558325  0  0.216515  0.597047  0  4.153412  0
C  C18  1  0.43566411  0.96691154  0.60822316  1  0.581699  0  0.0847  0.297083  0  3.737319  0
C  C19  1  0.37299274  0.03730379  0.50287635  1  -0.04994  0  -0.092153  -0.204733  0  3.647735  0
C  C20  1  0.50394728  0.12516739  0.50487144  1  -0.017072  0  -0.008662  -0.002369  0  3.668275  0
C  C21  1  0.75184137  0.55273062  0.13329138  1  0.012311  0  -0.103011  -0.206057  0  3.957742  0
C  C22  1  0.87335363  0.55161406  0.07356049  1  -0.054337  0  0.004417  0.146783  0  4.094797  0
C  C23  1  0.87856510  0.51817868  0.94782219  1  0.015681  0  -0.105583  -0.165012  0  4.052648  0
C  C24  1  0.75913461  0.49818573  0.88203850  1  0.003223  0  -0.096784  -0.116999  0  3.996404  0
C  C25  1  0.63028775  0.50723983  0.93763816  1  -0.026421  0  -0.001136  0.057102  0  3.920767  0
C  C26  1  0.62737131  0.52385481  0.06849886  1  0.004552  0  0.003697  0.082008  0  3.919541  0
C  C27  1  0.49928755  0.51303414  0.12841300  1  -0.053175  0  -0.010939  -0.069808  0  3.902104  0
C  C28  1  0.50984059  0.26202056  0.49890985  1  1.579016  0  0.214809  0.596225  0  4.169967  0
C  C29  1  0.38041865  0.50132810  0.05969421  1  0.005998  0  -0.085815  -0.091249  0  3.997716  0
C  C30  1  0.38319088  0.49803436  0.93241612  1  -0.049124  0  -0.08648  -0.093785  0  3.999297  0
C  C31  1  0.50451289  0.49928852  0.87025265  1  0.012432  0  -0.009671  -0.066437  0  3.896672  0
C  C32  1  0.12901547  0.31773352  0.33465659  1  -0.010125  0  -0.07741  -0.145118  0  3.937429  0
C  C33  1  0.04927947  0.23963453  0.25543579  1  -0.01449  0  -0.072787  -0.057943  0  3.99114  0
C  C34  1  0.90728074  0.24813548  0.25220212  1  -0.03255  0  -0.068326  -0.045199  0  3.978116  0
C  C35  1  0.84451005  0.33370709  0.32788803  1  0.000996  0  -0.081518  -0.152674  0  3.933676  0
C  C36  1  0.92332178  0.41595481  0.40950094  1  0.396835  0  0.123185  0.18282  0  3.937656  0
C  C37  1  0.06781092  0.40740954  0.41212740  1  0.438964  0  0.120394  0.155944  0  3.960945  0
C  C38  1  0.08832503  0.57414351  0.55690530  1  0.63968  0  0.074989  0.010964  0  3.867672  0
C  C39  1  0.49597589  0.50043978  0.73385874  1  1.554274  0  0.216022  0.6009  0  4.145947  0
C  C40  1  0.94538640  0.58201486  0.55408076  1  0.657956  0  0.164565  0.243439  0  4.056027  0
C  C41  1  0.50280523  0.73747605  0.50953126  1  1.59892  0  0.215771  0.623423  0  4.149618  0
C  C42  1  0.57185268  0.03390346  0.40835070  1  6.9e-05  0  -0.073141  -0.101288  0  3.609012  0
C  C43  1  0.44020874  0.94650703  0.40831341  1  0.134535  0  0.026785  0.160231  0  3.69484  0
C  C44  1  0.50354203  0.87501662  0.51351879  1  -0.008018  0  -0.009858  -0.118498  0  3.61672  0
C  C45  1  0.63305034  0.96461382  0.51342780  1  -0.022285  0  -0.07957  -0.047098  0  3.661272  0
C  C46  1  0.56807843  0.05605660  0.60957042  1  -0.053125  0  -0.083702  -0.150429  0  3.625851  0
N  N47  1  0.14640129  0.48782700  0.48869075  1  -1.20862  0  -0.284853  -0.163226  0  3.473668  0
N  N48  1  0.86398149  0.50456723  0.48444481  1  -1.186491  0  -0.285796  -0.263775  0  3.395307  0
Cl  Cl49  1  0.35868173  0.87327379  0.27860032  1  -0.228675  0  -0.058387  -0.138518  0  1.361399  0
Cl  Cl50  1  0.88023900  0.69650686  0.64663665  1  -0.111851  0  0.07789  0.004489  0  1.540792  0
Cl  Cl51  1  0.02411714  0.59032555  0.15394723  1  -0.224239  0  -0.012011  -0.090322  0  1.499322  0
O  O52  1  0.59202235  0.47229522  0.31985122  1  -1.1873  0  -0.317576  -0.565282  0  2.435657  0
O  O53  1  0.37399635  0.52186999  0.31201998  1  -1.158731  0  -0.312488  -0.542955  0  2.323564  0
O  O54  1  0.62405662  0.31965877  0.52327973  1  -1.164843  0  -0.319241  -0.546661  0  2.305341  0
O  O55  1  0.40099325  0.31035312  0.46887493  1  -1.171744  0  -0.315609  -0.550468  0  2.364024  0
O  O56  1  0.60285869  0.53540061  0.67880408  1  -1.180464  0  -0.318423  -0.561705  0  2.41936  0
O  O57  1  0.38148553  0.46993171  0.68252613  1  -1.169365  0  -0.322195  -0.552126  0  2.284643  0
O  O58  1  0.61340391  0.68967111  0.47877386  1  -1.160008  0  -0.322867  -0.561633  0  2.3301  0
O  O59  1  0.39156897  0.67958485  0.53330722  1  -1.161429  0  -0.314357  -0.538207  0  2.316849  0
O  O60  1  0.36862647  0.92369874  0.70799876  1  -1.131796  0  -0.382929  -0.493079  0  2.227056  0
