# generated using pymatgen
data_CdH16C16N2(ClO2)2
_symmetry_space_group_name_H-M   'P 1'
_cell_length_a   7.02576968
_cell_length_b   10.24249749
_cell_length_c   13.99644645
_cell_angle_alpha   95.53022659
_cell_angle_beta   104.53422013
_cell_angle_gamma   110.08883542
_symmetry_Int_Tables_number   1
_chemical_formula_structural   CdH16C16N2(ClO2)2
_chemical_formula_sum   'Cd2 H32 C32 N4 Cl4 O8'
_cell_volume   897.00144781
_cell_formula_units_Z   2
loop_
 _symmetry_equiv_pos_site_id
 _symmetry_equiv_pos_as_xyz
  1  'x, y, z'
loop_
 _atom_site_type_symbol
 _atom_site_label
 _atom_site_symmetry_multiplicity
 _atom_site_fract_x
 _atom_site_fract_y
 _atom_site_fract_z
 _atom_site_occupancy
 _atom_site_hle17_bader_spin_density
 _atom_site_hle17_ddec_charge
 _atom_site_hle17_ddec_spin_density
 _atom_site_hle17_ddec_sum_bond_order
 _atom_site_hle17_magmom
 _atom_site_hse06_10hf_bader_spin_density
 _atom_site_hse06_10hf_ddec_charge
 _atom_site_hse06_10hf_ddec_spin_density
 _atom_site_hse06_10hf_ddec_sum_bond_order
 _atom_site_hse06_10hf_magmom
 _atom_site_hse06_bader_spin_density
 _atom_site_hse06_ddec_charge
 _atom_site_hse06_ddec_spin_density
 _atom_site_hse06_ddec_sum_bond_order
 _atom_site_hse06_magmom
 _atom_site_pbe_bader_spin_density
 _atom_site_pbe_cm5_charge
 _atom_site_pbe_ddec_charge
 _atom_site_pbe_ddec_spin_density
 _atom_site_pbe_ddec_sum_bond_order
 _atom_site_pbe_magmom
Cd  Cd0  1  0.57350392  0.75004275  0.74992866  1  0  1.050011  0  1.828162  0  0  0.88146  0  2.310943  0  0  0.936933  0  2.255303  0  0  0.625091  0.841679  0  2.349283  0
Cd  Cd1  1  0.42649872  0.24996104  0.25007146  1  0  1.049979  0  1.828218  0  0  0.881432  0  2.311017  0  0  0.936902  0  2.255378  0  0  0.62509  0.841649  0  2.349361  0
H  H2  1  0.07930902  0.70102409  0.62123345  1  0  0.088429  0  0.937269  0  0  0.093934  0  1.006546  0  0  0.096147  0  1.005232  0  0  0.114417  0.092297  0  1.007568  0
H  H3  1  0.25665154  0.79915632  0.87871569  1  0  0.08848  0  0.935914  0  0  0.094989  0  1.004856  0  0  0.097194  0  1.003568  0  0  0.115177  0.093309  0  1.006  0
H  H4  1  0.92069048  0.29897971  0.37876794  1  0  0.088447  0  0.937167  0  0  0.093936  0  1.006458  0  0  0.096145  0  1.005148  0  0  0.114395  0.092305  0  1.00747  0
H  H5  1  0.74334415  0.20084003  0.12128215  1  0  0.088504  0  0.935907  0  0  0.094981  0  1.004852  0  0  0.097185  0  1.003566  0  0  0.115172  0.093303  0  1.005995  0
H  H6  1  0.75572664  0.44688921  0.45635753  1  0  0.075313  0  0.946183  0  0  0.08991  0  1.017946  0  0  0.090792  0  1.0176  0  0  0.088384  0.089128  0  1.0183  0
H  H7  1  0.35271290  0.05313920  0.04374638  1  0  0.074005  0  0.94713  0  0  0.088765  0  1.018599  0  0  0.08961  0  1.018275  0  0  0.087756  0.088008  0  1.019024  0
H  H8  1  0.24427554  0.55311352  0.54364406  1  0  0.075361  0  0.946082  0  0  0.089931  0  1.017893  0  0  0.090815  0  1.01755  0  0  0.088393  0.089144  0  1.018245  0
H  H9  1  0.64728247  0.94685611  0.95625454  1  0  0.073983  0  0.947173  0  0  0.088741  0  1.018655  0  0  0.089584  0  1.018329  0  0  0.087771  0.087985  0  1.019081  0
H  H10  1  0.89482417  0.44215890  0.57980522  1  0  0.094612  0  0.941599  0  0  0.107371  0  1.007489  0  0  0.109223  0  1.006742  0  0  0.093363  0.106088  0  1.00799  0
H  H11  1  0.37290672  0.05795231  0.92028111  1  0  0.094468  0  0.941467  0  0  0.107413  0  1.00694  0  0  0.109256  0  1.006173  0  0  0.093531  0.106051  0  1.007575  0
H  H12  1  0.10517851  0.55784595  0.42019595  1  0  0.094658  0  0.941567  0  0  0.107442  0  1.007422  0  0  0.109296  0  1.006675  0  0  0.093393  0.106152  0  1.007926  0
H  H13  1  0.62708676  0.94204193  0.07971984  1  0  0.094448  0  0.941461  0  0  0.107402  0  1.006954  0  0  0.10924  0  1.006189  0  0  0.093532  0.106039  0  1.007592  0
H  H14  1  0.25533709  0.85825109  0.55503630  1  0  0.101093  0  0.979419  0  0  0.106928  0  1.047623  0  0  0.110534  0  1.044021  0  0  0.113115  0.104232  0  1.050255  0
H  H15  1  0.34127823  0.64176916  0.94460971  1  0  0.101687  0  0.979582  0  0  0.107358  0  1.048062  0  0  0.110961  0  1.04445  0  0  0.113344  0.104649  0  1.050688  0
H  H16  1  0.74466623  0.14175163  0.44496349  1  0  0.101104  0  0.979407  0  0  0.106932  0  1.047619  0  0  0.110537  0  1.044018  0  0  0.113132  0.104237  0  1.05025  0
H  H17  1  0.65872471  0.35822614  0.05538849  1  0  0.101636  0  0.97968  0  0  0.107334  0  1.048135  0  0  0.110939  0  1.044518  0  0  0.11336  0.104626  0  1.050761  0
H  H18  1  0.28218597  0.01104788  0.42321270  1  0  0.127035  0  0.941977  0  0  0.135151  0  1.000065  0  0  0.138872  0  0.998632  0  0  0.113643  0.132447  0  1.001325  0
H  H19  1  0.34772649  0.48901852  0.07642680  1  0  0.127588  0  0.941705  0  0  0.135657  0  0.999743  0  0  0.139348  0  0.998362  0  0  0.113889  0.132929  0  1.001058  0
H  H20  1  0.71781735  0.98895485  0.57678709  1  0  0.127009  0  0.942062  0  0  0.13518  0  1.000077  0  0  0.138904  0  0.998638  0  0  0.113653  0.132468  0  1.001346  0
H  H21  1  0.65227271  0.51097572  0.92357252  1  0  0.127592  0  0.94181  0  0  0.13567  0  0.999841  0  0  0.139361  0  0.998459  0  0  0.113872  0.132941  0  1.001156  0
H  H22  1  0.95356766  0.97270143  0.28432613  1  0  0.1267  0  0.955609  0  0  0.132386  0  1.019624  0  0  0.13606  0  1.015973  0  0  0.112012  0.129552  0  1.022361  0
H  H23  1  0.19703981  0.52720162  0.21556933  1  0  0.126035  0  0.955412  0  0  0.13173  0  1.019797  0  0  0.135434  0  1.016146  0  0  0.111758  0.128981  0  1.022294  0
H  H24  1  0.04643388  0.02729918  0.71567427  1  0  0.126671  0  0.955622  0  0  0.132344  0  1.019651  0  0  0.13602  0  1.015995  0  0  0.111996  0.12951  0  1.022388  0
H  H25  1  0.80295953  0.47279262  0.78443160  1  0  0.126021  0  0.955481  0  0  0.131756  0  1.019827  0  0  0.135461  0  1.016175  0  0  0.111756  0.129006  0  1.022324  0
H  H26  1  0.61110036  0.77750890  0.27723090  1  0  0.115922  0  0.95145  0  0  0.125751  0  1.007435  0  0  0.128105  0  1.008611  0  0  0.109699  0.124078  0  1.006914  0
H  H27  1  0.05671258  0.72218482  0.22290377  1  0  0.115323  0  0.951373  0  0  0.125174  0  1.007568  0  0  0.127524  0  1.00874  0  0  0.109633  0.123244  0  1.007398  0
H  H28  1  0.38890364  0.22249702  0.72277113  1  0  0.115858  0  0.951498  0  0  0.125727  0  1.00742  0  0  0.128083  0  1.008593  0  0  0.109703  0.124054  0  1.006898  0
H  H29  1  0.94329214  0.27781259  0.77709383  1  0  0.115274  0  0.951324  0  0  0.12512  0  1.007531  0  0  0.12747  0  1.008703  0  0  0.109602  0.123185  0  1.007365  0
H  H30  1  0.61037742  0.62628984  0.40705328  1  0  0.119277  0  0.964797  0  0  0.126116  0  1.02812  0  0  0.12938  0  1.024804  0  0  0.130079  0.123572  0  1.030683  0
H  H31  1  0.07703544  0.87351506  0.09310777  1  0  0.119438  0  0.96441  0  0  0.125988  0  1.028016  0  0  0.129347  0  1.024572  0  0  0.130228  0.123512  0  1.030561  0
H  H32  1  0.38962082  0.37371502  0.59294934  1  0  0.119264  0  0.964827  0  0  0.126107  0  1.028163  0  0  0.129375  0  1.02484  0  0  0.130076  0.123562  0  1.030726  0
H  H33  1  0.92295840  0.12647704  0.90688858  1  0  0.119382  0  0.964408  0  0  0.125966  0  1.027966  0  0  0.129308  0  1.024543  0  0  0.130225  0.123494  0  1.030513  0
C  C34  1  0.75705765  0.64890834  0.61248941  1  0  0.630674  0  3.895969  0  0  0.580568  0  4.199281  0  0  0.613534  0  4.194022  0  0  0.198309  0.558122  0  4.201838  0
C  C35  1  0.99531931  0.85101134  0.88750803  1  0  0.630855  0  3.89642  0  0  0.581042  0  4.200229  0  0  0.614001  0  4.195009  0  0  0.198743  0.558798  0  4.202736  0
C  C36  1  0.24294288  0.35109650  0.38750962  1  0  0.630811  0  3.895656  0  0  0.580661  0  4.198997  0  0  0.613627  0  4.19374  0  0  0.198373  0.558216  0  4.201554  0
C  C37  1  0.00467788  0.14898290  0.11249075  1  0  0.630979  0  3.896035  0  0  0.581149  0  4.199843  0  0  0.614105  0  4.194628  0  0  0.198785  0.558904  0  4.202352  0
C  C38  1  0.92671092  0.64835680  0.56070779  1  0  -0.019213  0  3.555784  0  0  -0.038915  0  3.79051  0  0  -0.039647  0  3.801999  0  0  0.019038  -0.038146  0  3.782306  0
C  C39  1  0.21733974  0.85169720  0.93931934  1  0  -0.018619  0  3.554972  0  0  -0.041289  0  3.794079  0  0  -0.042071  0  3.805587  0  0  0.018085  -0.040729  0  3.786206  0
C  C40  1  0.07329055  0.35164593  0.43929309  1  0  -0.019321  0  3.555782  0  0  -0.038963  0  3.790457  0  0  -0.03969  0  3.801948  0  0  0.019025  -0.038201  0  3.782245  0
C  C41  1  0.78265606  0.14829809  0.06067907  1  0  -0.018687  0  3.55498  0  0  -0.041221  0  3.793906  0  0  -0.042  0  3.80541  0  0  0.018083  -0.04066  0  3.78603  0
C  C42  1  0.90617394  0.49973336  0.51795550  1  0  -0.146991  0  3.698072  0  0  -0.195135  0  3.959285  0  0  -0.19671  0  3.973737  0  0  -0.170261  -0.193699  0  3.948591  0
C  C43  1  0.38850822  0.00031100  0.98209865  1  0  -0.145825  0  3.69437  0  0  -0.193396  0  3.955967  0  0  -0.194904  0  3.970283  0  0  -0.169917  -0.192109  0  3.94591  0
C  C44  1  0.09382544  0.50027149  0.48204532  1  0  -0.147145  0  3.69802  0  0  -0.195357  0  3.95932  0  0  -0.196946  0  3.973783  0  0  -0.170348  -0.19389  0  3.948606  0
C  C45  1  0.61148901  0.99968430  0.01790119  1  0  -0.145752  0  3.694438  0  0  -0.193378  0  3.955985  0  0  -0.194873  0  3.970292  0  0  -0.169956  -0.192093  0  3.945929  0
C  C46  1  0.12076089  0.84308667  0.48967639  1  0  0.087241  0  3.589999  0  0  0.047586  0  3.8354  0  0  0.054786  0  3.852481  0  0  0.062287  0.043099  0  3.824245  0
C  C47  1  0.28759147  0.65692078  0.01009076  1  0  0.087923  0  3.588038  0  0  0.048564  0  3.833614  0  0  0.055872  0  3.850495  0  0  0.062015  0.043596  0  3.823131  0
C  C48  1  0.87924236  0.15691818  0.51032389  1  0  0.087187  0  3.590138  0  0  0.047526  0  3.835547  0  0  0.054727  0  3.85263  0  0  0.062218  0.043028  0  3.824408  0
C  C49  1  0.71240993  0.34307560  0.98991280  1  0  0.088046  0  3.587945  0  0  0.048676  0  3.833503  0  0  0.055974  0  3.850404  0  0  0.062017  0.043705  0  3.823021  0
C  C50  1  0.13191969  0.92722858  0.41799874  1  0  -0.10262  0  3.707195  0  0  -0.117484  0  3.966145  0  0  -0.125607  0  3.986497  0  0  -0.071545  -0.112542  0  3.952486  0
C  C51  1  0.28653015  0.57278936  0.08176339  1  0  -0.107464  0  3.707149  0  0  -0.122408  0  3.966731  0  0  -0.130543  0  3.987069  0  0  -0.07365  -0.117245  0  3.953248  0
C  C52  1  0.86808092  0.07277414  0.58199981  1  0  -0.102553  0  3.707193  0  0  -0.117438  0  3.966088  0  0  -0.125561  0  3.986438  0  0  -0.071501  -0.112488  0  3.952431  0
C  C53  1  0.71347089  0.42720913  0.91823743  1  0  -0.10748  0  3.706886  0  0  -0.122463  0  3.966537  0  0  -0.130596  0  3.98687  0  0  -0.073651  -0.1173  0  3.953053  0
C  C54  1  0.94780918  0.90598863  0.34063500  1  0  0.026991  0  3.636205  0  0  0.001346  0  3.892649  0  0  0.008959  0  3.905852  0  0  -0.048202  -0.003251  0  3.884128  0
C  C55  1  0.20130674  0.59390988  0.15926109  1  0  0.030884  0  3.632002  0  0  0.005311  0  3.888686  0  0  0.012852  0  3.901851  0  0  -0.046229  0.000446  0  3.879816  0
C  C56  1  0.05219025  0.09401303  0.65936429  1  0  0.026951  0  3.636121  0  0  0.001287  0  3.892606  0  0  0.0089  0  3.905809  0  0  -0.048239  -0.00331  0  3.884081  0
C  C57  1  0.79869609  0.40608647  0.84073654  1  0  0.030902  0  3.63196  0  0  0.00528  0  3.888678  0  0  0.012821  0  3.901842  0  0  -0.046223  0.000417  0  3.879803  0
C  C58  1  0.75772321  0.79769244  0.33636053  1  0  -0.098286  0  3.700441  0  0  -0.110611  0  3.953998  0  0  -0.11891  0  3.97391  0  0  -0.071001  -0.106282  0  3.94201  0
C  C59  1  0.12374158  0.70209132  0.16364987  1  0  -0.095807  0  3.697905  0  0  -0.108604  0  3.952064  0  0  -0.116874  0  3.971953  0  0  -0.069657  -0.103656  0  3.939371  0
C  C60  1  0.24227761  0.20231242  0.66364172  1  0  -0.098194  0  3.700469  0  0  -0.110519  0  3.953996  0  0  -0.118815  0  3.973904  0  0  -0.070979  -0.10619  0  3.942006  0
C  C61  1  0.87625696  0.29790504  0.83635083  1  0  -0.095739  0  3.698036  0  0  -0.108518  0  3.952191  0  0  -0.116787  0  3.972075  0  0  -0.06962  -0.103565  0  3.9395  0
C  C62  1  0.75394102  0.71407273  0.40845606  1  0  0.110364  0  3.560712  0  0  0.067295  0  3.809478  0  0  0.076599  0  3.8232  0  0  0.070673  0.061416  0  3.800971  0
C  C63  1  0.13132699  0.78576297  0.09160542  1  0  0.109021  0  3.562954  0  0  0.066772  0  3.811353  0  0  0.076007  0  3.825014  0  0  0.06988  0.060644  0  3.802518  0
C  C64  1  0.24605722  0.28593213  0.59154657  1  0  0.11044  0  3.560708  0  0  0.067331  0  3.809517  0  0  0.076633  0  3.823235  0  0  0.070721  0.061452  0  3.801009  0
C  C65  1  0.86867567  0.21423231  0.90838955  1  0  0.109124  0  3.563044  0  0  0.066866  0  3.811409  0  0  0.076116  0  3.825073  0  0  0.069891  0.06073  0  3.802578  0
N  N66  1  0.93357597  0.73910647  0.48407717  1  0  -0.008616  0  3.532392  0  0  0.084718  0  3.735068  0  0  0.071124  0  3.761653  0  0  -0.202051  0.09303  0  3.716983  0
N  N67  1  0.21011082  0.76086654  0.01587793  1  0  -0.00917  0  3.531991  0  0  0.084465  0  3.734959  0  0  0.070896  0  3.76152  0  0  -0.201876  0.093262  0  3.717073  0
N  N68  1  0.06642474  0.26089945  0.51592452  1  0  -0.008633  0  3.532514  0  0  0.084699  0  3.735185  0  0  0.071103  0  3.761772  0  0  -0.202061  0.093013  0  3.717098  0
N  N69  1  0.78989409  0.23912769  0.98411975  1  0  -0.009294  0  3.532121  0  0  0.084305  0  3.735099  0  0  0.070731  0  3.761661  0  0  -0.201854  0.093103  0  3.717213  0
Cl  Cl70  1  0.44495172  0.94715296  0.73544823  1  0  -0.608947  0  0.863828  0  0  -0.546784  0  1.122492  0  0  -0.566061  0  1.102243  0  0  -0.325072  -0.532475  0  1.136693  0
Cl  Cl71  1  0.26237276  0.55271479  0.76442666  1  0  -0.608901  0  0.864451  0  0  -0.546722  0  1.123095  0  0  -0.566  0  1.102853  0  0  -0.325006  -0.53214  0  1.137107  0
Cl  Cl72  1  0.55504635  0.05285083  0.26455173  1  0  -0.608938  0  0.863861  0  0  -0.54677  0  1.122527  0  0  -0.56604  0  1.102265  0  0  -0.325068  -0.532461  0  1.136728  0
Cl  Cl73  1  0.73762992  0.44729006  0.23557451  1  0  -0.608885  0  0.864447  0  0  -0.546714  0  1.1231  0  0  -0.565991  0  1.102857  0  0  -0.325008  -0.532132  0  1.137115  0
O  O74  1  0.71889114  0.76243031  0.62054108  1  0  -0.637706  0  2.007971  0  0  -0.57697  0  2.262602  0  0  -0.60663  0  2.253801  0  0  -0.335055  -0.555557  0  2.267573  0
O  O75  1  0.83541588  0.73756161  0.87959964  1  0  -0.638583  0  2.0088  0  0  -0.577321  0  2.262811  0  0  -0.607046  0  2.254074  0  0  -0.335108  -0.556281  0  2.267758  0
O  O76  1  0.28110169  0.23757028  0.37945647  1  0  -0.637749  0  2.007858  0  0  -0.577001  0  2.262495  0  0  -0.606661  0  2.253695  0  0  -0.335104  -0.55559  0  2.267474  0
O  O77  1  0.16457956  0.26243583  0.12040337  1  0  -0.638607  0  2.00861  0  0  -0.577385  0  2.262668  0  0  -0.607111  0  2.253933  0  0  -0.335143  -0.556345  0  2.267615  0
O  O78  1  0.67918634  0.54340475  0.64913620  1  0  -0.606267  0  1.971051  0  0  -0.553969  0  2.199723  0  0  -0.579067  0  2.191682  0  0  -0.314361  -0.535896  0  2.204348  0
O  O79  1  0.98638471  0.95639801  0.85070260  1  0  -0.606309  0  1.970608  0  0  -0.554077  0  2.199448  0  0  -0.579226  0  2.191484  0  0  -0.315121  -0.536099  0  2.204022  0
O  O80  1  0.32081563  0.45660010  0.35086425  1  0  -0.606326  0  1.970973  0  0  -0.553998  0  2.199673  0  0  -0.579081  0  2.191594  0  0  -0.314377  -0.535927  0  2.204298  0
O  O81  1  0.01361042  0.04358984  0.14929098  1  0  -0.60637  0  1.970413  0  0  -0.554119  0  2.199225  0  0  -0.57926  0  2.191246  0  0  -0.315136  -0.536137  0  2.203797  0
