# generated using pymatgen
data_AgH23C19(N2O)2
_symmetry_space_group_name_H-M   'P 1'
_cell_length_a   8.95652873
_cell_length_b   10.40212702
_cell_length_c   10.54822361
_cell_angle_alpha   68.53971597
_cell_angle_beta   77.61282967
_cell_angle_gamma   82.81305190
_symmetry_Int_Tables_number   1
_chemical_formula_structural   AgH23C19(N2O)2
_chemical_formula_sum   'Ag2 H46 C38 N8 O4'
_cell_volume   892.14563375
_cell_formula_units_Z   2
loop_
 _symmetry_equiv_pos_site_id
 _symmetry_equiv_pos_as_xyz
  1  'x, y, z'
loop_
 _atom_site_type_symbol
 _atom_site_label
 _atom_site_symmetry_multiplicity
 _atom_site_fract_x
 _atom_site_fract_y
 _atom_site_fract_z
 _atom_site_occupancy
 _atom_site_hle17_bader_spin_density
 _atom_site_hle17_ddec_charge
 _atom_site_hle17_ddec_spin_density
 _atom_site_hle17_ddec_sum_bond_order
 _atom_site_hle17_magmom
 _atom_site_hse06_10hf_bader_spin_density
 _atom_site_hse06_10hf_ddec_charge
 _atom_site_hse06_10hf_ddec_spin_density
 _atom_site_hse06_10hf_ddec_sum_bond_order
 _atom_site_hse06_10hf_magmom
 _atom_site_hse06_bader_spin_density
 _atom_site_hse06_ddec_charge
 _atom_site_hse06_ddec_spin_density
 _atom_site_hse06_ddec_sum_bond_order
 _atom_site_hse06_magmom
 _atom_site_pbe_bader_spin_density
 _atom_site_pbe_cm5_charge
 _atom_site_pbe_ddec_charge
 _atom_site_pbe_ddec_spin_density
 _atom_site_pbe_ddec_sum_bond_order
 _atom_site_pbe_magmom
Ag  Ag0  1  0.31275652  0.36735679  0.01358969  1  0  0.493725  0  1.439691  0  0  0.344993  0  1.882527  0  0  0.379251  0  1.835624  0  0  0.432082  0.323406  0  1.910968  0
Ag  Ag1  1  0.68724230  0.63264116  0.98641275  1  0  0.49372  0  1.439755  0  0  0.344996  0  1.882579  0  0  0.379253  0  1.835677  0  0  0.432097  0.323409  0  1.911033  0
H  H2  1  0.37916984  0.53120123  0.20781775  1  0  0.109212  0  0.980604  0  0  0.115149  0  1.050123  0  0  0.118677  0  1.045734  0  0  0.131052  0.112792  0  1.053226  0
H  H3  1  0.62083106  0.46879983  0.79218319  1  0  0.109219  0  0.980611  0  0  0.115153  0  1.050129  0  0  0.11868  0  1.045743  0  0  0.131049  0.112792  0  1.053238  0
H  H4  1  0.96528318  0.77473243  0.15719352  1  0  0.122061  0  0.967236  0  0  0.131963  0  1.027387  0  0  0.134589  0  1.026446  0  0  0.123673  0.130099  0  1.027878  0
H  H5  1  0.03471880  0.22526967  0.84280686  1  0  0.122  0  0.967318  0  0  0.131916  0  1.027441  0  0  0.134536  0  1.026502  0  0  0.12366  0.130051  0  1.027931  0
H  H6  1  0.98177679  0.58418368  0.03121220  1  0  0.08454  0  0.999607  0  0  0.091322  0  1.076724  0  0  0.094849  0  1.072285  0  0  0.102731  0.089034  0  1.079228  0
H  H7  1  0.01822398  0.41581944  0.96878804  1  0  0.084516  0  0.999609  0  0  0.091302  0  1.076728  0  0  0.094831  0  1.072287  0  0  0.102709  0.08901  0  1.079235  0
H  H8  1  0.30232828  0.84169695  0.19368877  1  0  0.079617  0  0.936765  0  0  0.094443  0  1.000505  0  0  0.094922  0  1.000585  0  0  0.110708  0.093752  0  1.000942  0
H  H9  1  0.69767256  0.15830515  0.80631087  1  0  0.079661  0  0.936758  0  0  0.094486  0  1.00049  0  0  0.094967  0  1.000568  0  0  0.110738  0.093788  0  1.000929  0
H  H10  1  0.30516140  0.69218771  0.34299867  1  0  0.092648  0  0.930466  0  0  0.11091  0  0.988218  0  0  0.111253  0  0.988782  0  0  0.120647  0.110638  0  0.987712  0
H  H11  1  0.69483836  0.30781335  0.65700154  1  0  0.092632  0  0.930499  0  0  0.110885  0  0.988259  0  0  0.111228  0  0.988823  0  0  0.120635  0.110611  0  0.987748  0
H  H12  1  0.84793774  0.71979054  0.65822400  1  0  0.091513  0  0.974073  0  0  0.098844  0  1.045532  0  0  0.10186  0  1.044259  0  0  0.093163  0.096415  0  1.047154  0
H  H13  1  0.15206202  0.28021052  0.34177621  1  0  0.091497  0  0.974068  0  0  0.098828  0  1.045529  0  0  0.101844  0  1.044256  0  0  0.093134  0.096397  0  1.047147  0
H  H14  1  0.17060664  0.11714781  0.14310219  1  0  0.106068  0  0.953371  0  0  0.126562  0  1.025902  0  0  0.128977  0  1.022674  0  0  0.086959  0.125619  0  1.026865  0
H  H15  1  0.82939204  0.88285221  0.85689669  1  0  0.106062  0  0.953344  0  0  0.126556  0  1.025883  0  0  0.128969  0  1.022656  0  0  0.086947  0.125613  0  1.026848  0
H  H16  1  0.00654335  0.10105157  0.08396346  1  0  0.102906  0  0.982937  0  0  0.121846  0  1.049453  0  0  0.122788  0  1.050705  0  0  0.088789  0.12064  0  1.049806  0
H  H17  1  0.99345647  0.89894846  0.91603521  1  0  0.102903  0  0.982933  0  0  0.121836  0  1.049474  0  0  0.122778  0  1.050726  0  0  0.088793  0.120633  0  1.049826  0
H  H18  1  0.16470479  0.98326282  0.07926932  1  0  0.106403  0  0.979787  0  0  0.124265  0  1.045787  0  0  0.125715  0  1.046234  0  0  0.089127  0.122902  0  1.04636  0
H  H19  1  0.83529496  0.01673825  0.92072804  1  0  0.106385  0  0.979818  0  0  0.124246  0  1.04582  0  0  0.125695  0  1.046267  0  0  0.089102  0.122885  0  1.046395  0
H  H20  1  0.03373108  0.54184554  0.65585778  1  0  0.109799  0  0.98242  0  0  0.130404  0  1.043738  0  0  0.131023  0  1.045736  0  0  0.08844  0.12969  0  1.042666  0
H  H21  1  0.96626861  0.45815655  0.34414112  1  0  0.109784  0  0.982433  0  0  0.130388  0  1.043753  0  0  0.131008  0  1.04575  0  0  0.088429  0.129672  0  1.042685  0
H  H22  1  0.21725650  0.60489533  0.57660388  1  0  0.117127  0  0.949127  0  0  0.13773  0  1.011387  0  0  0.139238  0  1.011017  0  0  0.092807  0.136567  0  1.011424  0
H  H23  1  0.78274428  0.39510780  0.42339540  1  0  0.117133  0  0.949152  0  0  0.137739  0  1.011405  0  0  0.139248  0  1.011035  0  0  0.092815  0.136576  0  1.011441  0
H  H24  1  0.12282690  0.52907105  0.49329646  1  0  0.110836  0  0.957115  0  0  0.1329  0  1.017783  0  0  0.133736  0  1.018827  0  0  0.092664  0.131717  0  1.018172  0
H  H25  1  0.87717393  0.47093106  0.50670223  1  0  0.110796  0  0.957193  0  0  0.132878  0  1.017835  0  0  0.133715  0  1.018879  0  0  0.092668  0.131694  0  1.018223  0
H  H26  1  0.63629025  0.87783277  0.66016749  1  0  0.110305  0  0.985462  0  0  0.129019  0  1.049787  0  0  0.130008  0  1.050666  0  0  0.088973  0.128295  0  1.049199  0
H  H27  1  0.36371072  0.12216726  0.33983286  1  0  0.110272  0  0.985486  0  0  0.129014  0  1.049781  0  0  0.130002  0  1.050661  0  0  0.088977  0.128291  0  1.049185  0
H  H28  1  0.60307397  0.01287265  0.50494536  1  0  0.104107  0  0.975818  0  0  0.124942  0  1.037507  0  0  0.126551  0  1.036925  0  0  0.08889  0.122982  0  1.039361  0
H  H29  1  0.39692586  0.98712737  0.49505521  1  0  0.104114  0  0.975796  0  0  0.124949  0  1.037489  0  0  0.126557  0  1.036908  0  0  0.088898  0.12299  0  1.039344  0
H  H30  1  0.71369199  0.04118326  0.61113004  1  0  0.104421  0  0.972939  0  0  0.126448  0  1.035416  0  0  0.1269  0  1.037057  0  0  0.088816  0.125672  0  1.035308  0
H  H31  1  0.28630663  0.95881779  0.38887038  1  0  0.10439  0  0.972941  0  0  0.126412  0  1.035438  0  0  0.126863  0  1.037079  0  0  0.088792  0.125636  0  1.035332  0
H  H32  1  0.78071341  0.18626610  0.37907785  1  0  0.08431  0  0.936765  0  0  0.101813  0  0.995436  0  0  0.102205  0  0.995838  0  0  0.115885  0.101516  0  0.994966  0
H  H33  1  0.21928634  0.81373497  0.62092046  1  0  0.084294  0  0.936747  0  0  0.101787  0  0.995418  0  0  0.102179  0  0.995821  0  0  0.115864  0.101493  0  0.994948  0
H  H34  1  0.91941979  0.21285483  0.22672898  1  0  0.079191  0  0.929382  0  0  0.097515  0  0.989575  0  0  0.097351  0  0.99023  0  0  0.111688  0.097537  0  0.989203  0
H  H35  1  0.08057996  0.78714624  0.77326933  1  0  0.079151  0  0.9294  0  0  0.097492  0  0.989562  0  0  0.09734  0  0.990205  0  0  0.111676  0.097518  0  0.989189  0
H  H36  1  0.60562563  0.35286979  0.20796593  1  0  0.106853  0  0.970755  0  0  0.112847  0  1.041444  0  0  0.116802  0  1.036035  0  0  0.128265  0.109907  0  1.045393  0
H  H37  1  0.39437431  0.64712819  0.79203060  1  0  0.106799  0  0.970765  0  0  0.112829  0  1.041407  0  0  0.116789  0  1.035994  0  0  0.128276  0.109893  0  1.045353  0
H  H38  1  0.50485113  0.06710513  0.04338554  1  0  0.094662  0  0.978746  0  0  0.106148  0  1.039776  0  0  0.108702  0  1.03838  0  0  0.111771  0.104222  0  1.040887  0
H  H39  1  0.49515050  0.93288455  0.95662028  1  0  0.094659  0  0.978839  0  0  0.106182  0  1.039823  0  0  0.108739  0  1.038422  0  0  0.111741  0.104256  0  1.040933  0
H  H40  1  0.74339668  0.95391125  0.18731243  1  0  0.120562  0  0.977516  0  0  0.12775  0  1.042559  0  0  0.130919  0  1.040886  0  0  0.120416  0.125063  0  1.044337  0
H  H41  1  0.25660684  0.04608465  0.81269082  1  0  0.120608  0  0.977452  0  0  0.127786  0  1.042501  0  0  0.130953  0  1.040831  0  0  0.120436  0.125095  0  1.044281  0
H  H42  1  0.45132840  0.21044592  0.62824854  1  0  0.119531  0  0.957409  0  0  0.139233  0  1.019102  0  0  0.141213  0  1.019238  0  0  0.089009  0.138099  0  1.018682  0
H  H43  1  0.54867028  0.78955409  0.37175318  1  0  0.119519  0  0.957442  0  0  0.139227  0  1.019123  0  0  0.141208  0  1.019259  0  0  0.089007  0.138096  0  1.018698  0
H  H44  1  0.44312965  0.38967322  0.52071979  1  0  0.133704  0  0.963331  0  0  0.148506  0  1.02865  0  0  0.151656  0  1.026567  0  0  0.087656  0.146295  0  1.030114  0
H  H45  1  0.55686675  0.61032679  0.47928142  1  0  0.133761  0  0.963347  0  0  0.148556  0  1.028667  0  0  0.151707  0  1.026587  0  0  0.087684  0.146347  0  1.030133  0
H  H46  1  0.27309607  0.29539615  0.59761155  1  0  0.125421  0  0.964731  0  0  0.143697  0  1.028232  0  0  0.145337  0  1.029517  0  0  0.090152  0.142561  0  1.02756  0
H  H47  1  0.72690154  0.70460282  0.40239074  1  0  0.125448  0  0.964698  0  0  0.143703  0  1.028215  0  0  0.145343  0  1.029499  0  0  0.090152  0.142565  0  1.027549  0
C  C48  1  0.26883137  0.56706739  0.17607561  1  0  0.149753  0  3.642139  0  0  0.08902  0  3.90634  0  0  0.10234  0  3.919753  0  0  0.13391  0.080178  0  3.897409  0
C  C49  1  0.73116839  0.43293367  0.82392365  1  0  0.149682  0  3.642099  0  0  0.08896  0  3.906293  0  0  0.102281  0  3.919707  0  0  0.133884  0.080124  0  3.897365  0
C  C50  1  0.05539688  0.69830097  0.14517806  1  0  -0.059098  0  3.675164  0  0  -0.0989  0  3.929637  0  0  -0.09647  0  3.948439  0  0  0.001212  -0.100414  0  3.91679  0
C  C51  1  0.94460395  0.30170113  0.85482158  1  0  -0.058997  0  3.675184  0  0  -0.098795  0  3.929663  0  0  -0.096355  0  3.948458  0  0  0.001282  -0.100306  0  3.91681  0
C  C52  1  0.06508003  0.60076872  0.08401634  1  0  -0.016809  0  3.784861  0  0  -0.047424  0  4.048905  0  0  -0.046466  0  4.069187  0  0  -0.011767  -0.047953  0  4.034903  0
C  C53  1  0.93492074  0.39923441  0.91598295  1  0  -0.016804  0  3.784847  0  0  -0.047429  0  4.0489  0  0  -0.046473  0  4.06918  0  0  -0.01177  -0.047955  0  4.034898  0
C  C54  1  0.23154068  0.75990063  0.27207187  1  0  -0.028793  0  3.649114  0  0  -0.095165  0  3.895817  0  0  -0.090078  0  3.90664  0  0  -0.047885  -0.098423  0  3.888324  0
C  C55  1  0.76846136  0.24010045  0.72792696  1  0  -0.028866  0  3.649119  0  0  -0.09522  0  3.895821  0  0  -0.090127  0  3.906647  0  0  -0.047921  -0.098458  0  3.888304  0
C  C56  1  0.09428502  0.81764851  0.34882550  1  0  -0.068861  0  3.713997  0  0  -0.061652  0  3.958281  0  0  -0.0659  0  3.981956  0  0  -0.024554  -0.058569  0  3.942109  0
C  C57  1  0.90571481  0.18235152  0.65117507  1  0  -0.068808  0  3.713967  0  0  -0.061669  0  3.958267  0  0  -0.065937  0  3.981965  0  0  -0.024608  -0.058595  0  3.94209  0
C  C58  1  0.03095763  0.73473356  0.48467737  1  0  0.115575  0  3.763371  0  0  0.131229  0  4.011279  0  0  0.134292  0  4.034073  0  0  -0.009928  0.129406  0  3.995964  0
C  C59  1  0.96904328  0.26526751  0.51532262  1  0  0.115482  0  3.763381  0  0  0.131225  0  4.01121  0  0  0.134293  0  4.03401  0  0  -0.009923  0.129408  0  3.995884  0
C  C60  1  0.89896052  0.78462977  0.55378258  1  0  -0.192613  0  3.725164  0  0  -0.216344  0  3.969326  0  0  -0.22251  0  3.991167  0  0  -0.099592  -0.212003  0  3.955536  0
C  C61  1  0.10103918  0.21537233  0.44621632  1  0  -0.192544  0  3.725109  0  0  -0.216317  0  3.969233  0  0  -0.222482  0  3.991071  0  0  -0.09956  -0.211973  0  3.955434  0
C  C62  1  0.83053771  0.91521316  0.49325513  1  0  0.127374  0  3.75322  0  0  0.144141  0  3.996767  0  0  0.146884  0  4.020535  0  0  -0.005783  0.142533  0  3.980288  0
C  C63  1  0.16946319  0.08478790  0.50674391  1  0  0.127321  0  3.753214  0  0  0.144141  0  3.99671  0  0  0.146889  0  4.020478  0  0  -0.005785  0.142533  0  3.980231  0
C  C64  1  0.89770963  0.99924806  0.35981401  1  0  -0.058717  0  3.701464  0  0  -0.051164  0  3.944431  0  0  -0.05591  0  3.969694  0  0  -0.020914  -0.048601  0  3.927994  0
C  C65  1  0.10229134  0.00075198  0.64018540  1  0  -0.058707  0  3.701472  0  0  -0.051209  0  3.944439  0  0  -0.055966  0  3.969721  0  0  -0.020929  -0.048642  0  3.928002  0
C  C66  1  0.02834918  0.95030248  0.28560110  1  0  0.069158  0  3.719912  0  0  0.083131  0  3.964075  0  0  0.084822  0  3.987938  0  0  -0.007747  0.081992  0  3.948509  0
C  C67  1  0.97164937  0.04969961  0.71439801  1  0  0.069117  0  3.719874  0  0  0.083127  0  3.964021  0  0  0.084827  0  3.987888  0  0  -0.007704  0.081983  0  3.948463  0
C  C68  1  0.09571661  0.04124017  0.14143040  1  0  -0.332582  0  3.723162  0  0  -0.411776  0  3.957858  0  0  -0.414011  0  3.966738  0  0  -0.245226  -0.41047  0  3.952371  0
C  C69  1  0.90428315  0.95876089  0.85856791  1  0  -0.332524  0  3.723164  0  0  -0.411755  0  3.9579  0  0  -0.41399  0  3.966781  0  0  -0.245198  -0.410436  0  3.952381  0
C  C70  1  0.10430314  0.59596090  0.55574630  1  0  -0.345704  0  3.717172  0  0  -0.425068  0  3.951486  0  0  -0.427796  0  3.961516  0  0  -0.246345  -0.422862  0  3.945195  0
C  C71  1  0.89569655  0.40404120  0.44425260  1  0  -0.3456  0  3.717218  0  0  -0.425007  0  3.951518  0  0  -0.427735  0  3.961548  0  0  -0.246313  -0.422799  0  3.945224  0
C  C72  1  0.68817721  0.96388507  0.57137056  1  0  -0.341034  0  3.71982  0  0  -0.421049  0  3.953158  0  0  -0.423536  0  3.962818  0  0  -0.246861  -0.41886  0  3.947808  0
C  C73  1  0.31182255  0.03611600  0.42862870  1  0  -0.340964  0  3.719816  0  0  -0.421017  0  3.953137  0  0  -0.423504  0  3.962797  0  0  -0.246858  -0.41883  0  3.947786  0
C  C74  1  0.83049811  0.14360255  0.29755318  1  0  -0.02573  0  3.655003  0  0  -0.091686  0  3.899868  0  0  -0.086478  0  3.911587  0  0  -0.047848  -0.09466  0  3.891507  0
C  C75  1  0.16950279  0.85639851  0.70244586  1  0  -0.025671  0  3.654939  0  0  -0.09159  0  3.899761  0  0  -0.086384  0  3.911468  0  0  -0.047825  -0.094571  0  3.891406  0
C  C76  1  0.60764843  0.26074202  0.18143868  1  0  0.139436  0  3.656561  0  0  0.084069  0  3.917399  0  0  0.096104  0  3.930873  0  0  0.131289  0.076431  0  3.908274  0
C  C77  1  0.39235266  0.73925596  0.81855953  1  0  0.139509  0  3.656564  0  0  0.084123  0  3.917388  0  0  0.096152  0  3.930863  0  0  0.131282  0.076484  0  3.908267  0
C  C78  1  0.56252521  0.11000574  0.09804590  1  0  -0.016646  0  3.782627  0  0  -0.052412  0  4.054878  0  0  -0.051034  0  4.074659  0  0  -0.013281  -0.052846  0  4.040973  0
C  C79  1  0.43747615  0.88998808  0.90195659  1  0  -0.016567  0  3.782598  0  0  -0.052364  0  4.054819  0  0  -0.050987  0  4.074603  0  0  -0.013169  -0.052794  0  4.040905  0
C  C80  1  0.68114098  0.05328364  0.16873797  1  0  -0.071571  0  3.686902  0  0  -0.109404  0  3.945127  0  0  -0.107421  0  3.963439  0  0  -0.003404  -0.109746  0  3.932387  0
C  C81  1  0.31886140  0.94671226  0.83126265  1  0  -0.071616  0  3.686751  0  0  -0.109436  0  3.944996  0  0  -0.107454  0  3.96331  0  0  -0.003431  -0.109768  0  3.932246  0
C  C82  1  0.36854216  0.34748984  0.74275938  1  0  0.715756  0  3.89194  0  0  0.677455  0  4.17812  0  0  0.710942  0  4.173584  0  0  0.182514  0.655278  0  4.179994  0
C  C83  1  0.63145539  0.65251017  0.25724256  1  0  0.715726  0  3.891932  0  0  0.677464  0  4.178051  0  0  0.71095  0  4.173513  0  0  0.182521  0.655288  0  4.179923  0
C  C84  1  0.38617778  0.31010363  0.61352249  1  0  -0.458149  0  3.670855  0  0  -0.52655  0  3.897008  0  0  -0.534193  0  3.900279  0  0  -0.255855  -0.521377  0  3.89434  0
C  C85  1  0.61382097  0.68989534  0.38647959  1  0  -0.458209  0  3.670907  0  0  -0.52661  0  3.897074  0  0  -0.534255  0  3.900345  0  0  -0.255881  -0.521437  0  3.894408  0
N  N86  1  0.19835451  0.51913209  0.10402855  1  0  -0.378052  0  3.387117  0  0  -0.296244  0  3.697673  0  0  -0.317417  0  3.713515  0  0  -0.379835  -0.282394  0  3.686503  0
N  N87  1  0.80164626  0.48087104  0.89597074  1  0  -0.378026  0  3.387019  0  0  -0.296226  0  3.697582  0  0  -0.317399  0  3.713427  0  0  -0.379845  -0.282381  0  3.686425  0
N  N88  1  0.18523410  0.67569193  0.20259790  1  0  -0.058391  0  3.550493  0  0  0.038545  0  3.765571  0  0  0.023497  0  3.79224  0  0  -0.242449  0.048296  0  3.747206  0
N  N89  1  0.81476673  0.32431016  0.79740174  1  0  -0.058365  0  3.550427  0  0  0.038565  0  3.76549  0  0  0.023515  0  3.792156  0  0  -0.242449  0.048307  0  3.747121  0
N  N90  1  0.70822360  0.15023673  0.22116011  1  0  -0.068996  0  3.556065  0  0  0.028871  0  3.767606  0  0  0.013586  0  3.795057  0  0  -0.244838  0.038488  0  3.748768  0
N  N91  1  0.29177863  0.84976125  0.77883790  1  0  -0.069029  0  3.556087  0  0  0.028818  0  3.767635  0  0  0.013532  0  3.795089  0  0  -0.244857  0.038428  0  3.748805  0
N  N92  1  0.51779613  0.23889721  0.10638818  1  0  -0.366793  0  3.30208  0  0  -0.294335  0  3.607129  0  0  -0.313088  0  3.621677  0  0  -0.367612  -0.282363  0  3.596379  0
N  N93  1  0.48220295  0.76109662  0.89361189  1  0  -0.366877  0  3.302059  0  0  -0.294419  0  3.607122  0  0  -0.313171  0  3.621674  0  0  -0.367667  -0.282449  0  3.596373  0
O  O94  1  0.30678553  0.25880479  0.85764300  1  0  -0.655654  0  1.946934  0  0  -0.574871  0  2.18822  0  0  -0.606151  0  2.179918  0  0  -0.351676  -0.553076  0  2.191821  0
O  O95  1  0.69321315  0.74119522  0.14235778  1  0  -0.655643  0  1.94695  0  0  -0.574856  0  2.188199  0  0  -0.606134  0  2.179898  0  0  -0.351675  -0.553064  0  2.191813  0
O  O96  1  0.41496252  0.46218501  0.73188191  1  0  -0.682366  0  1.922612  0  0  -0.621656  0  2.153129  0  0  -0.648521  0  2.14224  0  0  -0.34989  -0.603407  0  2.159688  0
O  O97  1  0.58503502  0.53781500  0.26811908  1  0  -0.682353  0  1.922578  0  0  -0.621659  0  2.153095  0  0  -0.648526  0  2.142207  0  0  -0.349878  -0.603408  0  2.159649  0
