# generated using pymatgen
data_YH15C11(NO3)3
_symmetry_space_group_name_H-M   'P 1'
_cell_length_a   7.50887188
_cell_length_b   8.99441959
_cell_length_c   13.02564315
_cell_angle_alpha   92.25191938
_cell_angle_beta   94.34492902
_cell_angle_gamma   112.10127212
_symmetry_Int_Tables_number   1
_chemical_formula_structural   YH15C11(NO3)3
_chemical_formula_sum   'Y2 H30 C22 N6 O18'
_cell_volume   810.54923693
_cell_formula_units_Z   2
loop_
 _symmetry_equiv_pos_site_id
 _symmetry_equiv_pos_as_xyz
  1  'x, y, z'
loop_
 _atom_site_type_symbol
 _atom_site_label
 _atom_site_symmetry_multiplicity
 _atom_site_fract_x
 _atom_site_fract_y
 _atom_site_fract_z
 _atom_site_occupancy
 _atom_site_hle17_bader_spin_density
 _atom_site_hle17_ddec_charge
 _atom_site_hle17_ddec_spin_density
 _atom_site_hle17_ddec_sum_bond_order
 _atom_site_hle17_magmom
 _atom_site_hse06_10hf_bader_spin_density
 _atom_site_hse06_10hf_ddec_charge
 _atom_site_hse06_10hf_ddec_spin_density
 _atom_site_hse06_10hf_ddec_sum_bond_order
 _atom_site_hse06_10hf_magmom
 _atom_site_hse06_bader_spin_density
 _atom_site_hse06_ddec_charge
 _atom_site_hse06_ddec_spin_density
 _atom_site_hse06_ddec_sum_bond_order
 _atom_site_hse06_magmom
 _atom_site_pbe_bader_spin_density
 _atom_site_pbe_cm5_charge
 _atom_site_pbe_ddec_charge
 _atom_site_pbe_ddec_spin_density
 _atom_site_pbe_ddec_sum_bond_order
 _atom_site_pbe_magmom
Y  Y0  1  0.74728120  0.49936146  0.64964797  1  0  2.007194  0  1.95119  0  0  1.808649  0  2.464144  0  0  1.883949  0  2.394013  0  0  1.303162  1.754403  0  2.512255  0
Y  Y1  1  0.25271603  0.50063705  0.35035281  1  0  2.007205  0  1.951193  0  0  1.808642  0  2.464199  0  0  1.884012  0  2.393942  0  0  1.30319  1.754401  0  2.512327  0
H  H2  1  0.71765373  0.06016150  0.54369415  1  0  0.109189  0  0.950357  0  0  0.117664  0  1.015222  0  0  0.121489  0  1.012888  0  0  0.110346  0.11447  0  1.017571  0
H  H3  1  0.28234119  0.93984065  0.45630355  1  0  0.109209  0  0.950253  0  0  0.117654  0  1.015141  0  0  0.121478  0  1.01281  0  0  0.110359  0.114447  0  1.017503  0
H  H4  1  0.19681471  0.30904393  0.03161050  1  0  0.117768  0  0.962558  0  0  0.13208  0  1.030337  0  0  0.134139  0  1.028702  0  0  0.105173  0.130316  0  1.031937  0
H  H5  1  0.80319034  0.69094252  0.96839029  1  0  0.117786  0  0.962478  0  0  0.132129  0  1.03023  0  0  0.134189  0  1.028597  0  0  0.105201  0.130363  0  1.031835  0
H  H6  1  0.23655892  0.29936421  0.89802018  1  0  0.111707  0  0.955419  0  0  0.128277  0  1.022762  0  0  0.129561  0  1.022038  0  0  0.110418  0.127149  0  1.023477  0
H  H7  1  0.76344666  0.70062343  0.10198220  1  0  0.111741  0  0.955383  0  0  0.128293  0  1.022753  0  0  0.129578  0  1.02203  0  0  0.110442  0.127167  0  1.02347  0
H  H8  1  0.08577615  0.12320098  0.95565085  1  0  0.083119  0  0.943725  0  0  0.102464  0  1.009235  0  0  0.103091  0  1.008975  0  0  0.096971  0.102056  0  1.009235  0
H  H9  1  0.91422069  0.87678792  0.04434732  1  0  0.083136  0  0.943712  0  0  0.102452  0  1.009277  0  0  0.10308  0  1.00902  0  0  0.096958  0.102041  0  1.009276  0
H  H10  1  0.29820948  0.68117143  0.66447703  1  0  0.070963  0  0.921176  0  0  0.075923  0  0.99248  0  0  0.078333  0  0.98722  0  0  0.136925  0.073825  0  0.996578  0
H  H11  1  0.70178337  0.31883196  0.33551678  1  0  0.07092  0  0.921292  0  0  0.075874  0  0.9926  0  0  0.078282  0  0.987343  0  0  0.136935  0.073785  0  0.996689  0
H  H12  1  0.60277949  0.07494457  0.69601626  1  0  0.11025  0  0.951179  0  0  0.126784  0  1.019315  0  0  0.128034  0  1.018327  0  0  0.109931  0.12573  0  1.020139  0
H  H13  1  0.39722491  0.92505509  0.30398949  1  0  0.110186  0  0.951179  0  0  0.126734  0  1.019299  0  0  0.127985  0  1.018312  0  0  0.109914  0.125695  0  1.020103  0
H  H14  1  0.58883716  0.87209262  0.70719000  1  0  0.116298  0  0.963932  0  0  0.132309  0  1.031222  0  0  0.133228  0  1.031727  0  0  0.110937  0.131469  0  1.031048  0
H  H15  1  0.41115383  0.12790106  0.29281265  1  0  0.116279  0  0.963961  0  0  0.132273  0  1.031265  0  0  0.133192  0  1.031771  0  0  0.1109  0.131432  0  1.031095  0
H  H16  1  0.59464653  0.99402421  0.81937952  1  0  0.098373  0  0.927023  0  0  0.119977  0  0.986784  0  0  0.121146  0  0.986039  0  0  0.102845  0.118943  0  0.987496  0
H  H17  1  0.40534067  0.00596706  0.18062441  1  0  0.098388  0  0.926947  0  0  0.119973  0  0.986733  0  0  0.121141  0  0.985989  0  0  0.10284  0.118946  0  0.987439  0
H  H18  1  0.07027426  0.38103935  0.79077045  1  0  0.054936  0  0.937867  0  0  0.059113  0  1.012999  0  0  0.061435  0  1.007125  0  0  0.130569  0.057295  0  1.017132  0
H  H19  1  0.92974386  0.61896394  0.20923144  1  0  0.054877  0  0.937942  0  0  0.059103  0  1.013018  0  0  0.061426  0  1.007139  0  0  0.130538  0.057286  0  1.017152  0
H  H20  1  0.33918100  0.14088045  0.74885740  1  0  0.117886  0  0.945119  0  0  0.135821  0  1.011218  0  0  0.137099  0  1.01035  0  0  0.113445  0.134699  0  1.012067  0
H  H21  1  0.66081717  0.85912292  0.25113742  1  0  0.117926  0  0.945034  0  0  0.135871  0  1.011116  0  0  0.137152  0  1.010243  0  0  0.113496  0.134745  0  1.011977  0
H  H22  1  0.21741136  0.00496157  0.84112341  1  0  0.08378  0  0.951104  0  0  0.104482  0  1.017193  0  0  0.10482  0  1.017212  0  0  0.099717  0.104164  0  1.01715  0
H  H23  1  0.78259753  0.99504777  0.15887669  1  0  0.083775  0  0.951088  0  0  0.104492  0  1.01716  0  0  0.104832  0  1.017181  0  0  0.099728  0.104173  0  1.01712  0
H  H24  1  0.10380896  0.98830452  0.71377612  1  0  0.114299  0  0.936591  0  0  0.134613  0  0.996241  0  0  0.134859  0  0.997331  0  0  0.112624  0.13442  0  0.995488  0
H  H25  1  0.89618646  0.01169880  0.28622548  1  0  0.114283  0  0.93661  0  0  0.134596  0  0.996265  0  0  0.134842  0  0.997354  0  0  0.112594  0.134402  0  0.99551  0
H  H26  1  0.88128386  0.30948562  0.07510827  1  0  0.111502  0  0.930021  0  0  0.132696  0  0.990591  0  0  0.132883  0  0.991281  0  0  0.111805  0.132488  0  0.990119  0
H  H27  1  0.11871419  0.69051170  0.92488943  1  0  0.111501  0  0.929997  0  0  0.132723  0  0.990565  0  0  0.132909  0  0.991257  0  0  0.111802  0.132516  0  0.990088  0
H  H28  1  0.74292326  0.12626075  0.99991818  1  0  0.083884  0  0.933981  0  0  0.104499  0  0.999489  0  0  0.104915  0  0.999092  0  0  0.100636  0.104199  0  0.999654  0
H  H29  1  0.25707936  0.87373779  0.00007748  1  0  0.083768  0  0.934025  0  0  0.104464  0  0.999463  0  0  0.104883  0  0.999065  0  0  0.100583  0.104162  0  0.999628  0
H  H30  1  0.70865915  0.30767514  0.97172706  1  0  0.127021  0  0.931836  0  0  0.146702  0  0.989644  0  0  0.148982  0  0.987526  0  0  0.115646  0.144887  0  0.991366  0
H  H31  1  0.29134940  0.69232462  0.02826660  1  0  0.127045  0  0.931854  0  0  0.146755  0  0.989655  0  0  0.14902  0  0.987555  0  0  0.115651  0.14494  0  0.991382  0
C  C32  1  0.84095473  0.03205137  0.52475401  1  0  -0.084226  0  3.708563  0  0  -0.120057  0  3.965383  0  0  -0.119245  0  3.981668  0  0  -0.078793  -0.120612  0  3.955293  0
C  C33  1  0.15903449  0.96794715  0.47524640  1  0  -0.084146  0  3.708478  0  0  -0.119904  0  3.965328  0  0  -0.119094  0  3.981616  0  0  -0.078759  -0.120449  0  3.955235  0
C  C34  1  0.62343719  0.74228535  0.50419393  1  0  0.728673  0  3.847027  0  0  0.67395  0  4.145097  0  0  0.710568  0  4.133028  0  0  0.245978  0.648872  0  4.153158  0
C  C35  1  0.37656226  0.25771798  0.49580556  1  0  0.728755  0  3.847045  0  0  0.674008  0  4.145159  0  0  0.710631  0  4.133091  0  0  0.24595  0.648916  0  4.15325  0
C  C36  1  0.81926560  0.87323385  0.50080572  1  0  -0.061583  0  3.719184  0  0  -0.049925  0  3.960775  0  0  -0.052269  0  3.977046  0  0  -0.000869  -0.048674  0  3.950822  0
C  C37  1  0.18072706  0.12676345  0.49919557  1  0  -0.061652  0  3.719121  0  0  -0.050062  0  3.960764  0  0  -0.052411  0  3.977044  0  0  -0.000881  -0.048806  0  3.950813  0
C  C38  1  0.03356948  0.32695933  0.55409972  1  0  0.707259  0  3.859768  0  0  0.65496  0  4.153678  0  0  0.691317  0  4.142333  0  0  0.237335  0.631578  0  4.159089  0
C  C39  1  0.96642807  0.67304279  0.44590117  1  0  0.707265  0  3.859747  0  0  0.655011  0  4.153633  0  0  0.691368  0  4.142286  0  0  0.237346  0.63163  0  4.159037  0
C  C40  1  0.13093817  0.25459565  0.95429910  1  0  -0.18178  0  3.657063  0  0  -0.28113  0  3.903859  0  0  -0.278287  0  3.91398  0  0  -0.134778  -0.282608  0  3.897013  0
C  C41  1  0.86906321  0.74539443  0.04570086  1  0  -0.181786  0  3.65702  0  0  -0.281173  0  3.903863  0  0  -0.278348  0  3.913957  0  0  -0.134819  -0.282648  0  3.897015  0
C  C42  1  0.01965169  0.15935222  0.52485928  1  0  -0.074678  0  3.731064  0  0  -0.063347  0  3.970814  0  0  -0.067467  0  3.988562  0  0  -0.006677  -0.062006  0  3.959823  0
C  C43  1  0.98034016  0.84064628  0.47514355  1  0  -0.074754  0  3.731205  0  0  -0.063537  0  3.971039  0  0  -0.067656  0  3.988782  0  0  -0.006751  -0.062196  0  3.960039  0
C  C44  1  0.22230781  0.75592259  0.69298801  1  0  0.422135  0  3.74755  0  0  0.345035  0  4.036908  0  0  0.374192  0  4.036117  0  0  0.195069  0.325378  0  4.037289  0
C  C45  1  0.77768402  0.24408441  0.30700586  1  0  0.422168  0  3.747537  0  0  0.345118  0  4.036816  0  0  0.374277  0  4.036025  0  0  0.19514  0.325456  0  4.037203  0
C  C46  1  0.54195760  0.96548251  0.73704736  1  0  -0.179556  0  3.636634  0  0  -0.281067  0  3.885411  0  0  -0.278011  0  3.895693  0  0  -0.131315  -0.282717  0  3.878611  0
C  C47  1  0.45804093  0.03451598  0.26295578  1  0  -0.179557  0  3.636537  0  0  -0.281041  0  3.885351  0  0  -0.277986  0  3.895632  0  0  -0.131286  -0.282712  0  3.878533  0
C  C48  1  0.94753300  0.35928417  0.83726797  1  0  0.412673  0  3.783211  0  0  0.337796  0  4.070904  0  0  0.367073  0  4.07055  0  0  0.187276  0.31823  0  4.07051  0
C  C49  1  0.05248491  0.64072154  0.16273244  1  0  0.412599  0  3.7833  0  0  0.337721  0  4.070901  0  0  0.366978  0  4.070544  0  0  0.187283  0.318152  0  4.070507  0
C  C50  1  0.24290810  0.01723813  0.75928392  1  0  -0.169689  0  3.635076  0  0  -0.270878  0  3.8794  0  0  -0.267172  0  3.889409  0  0  -0.131353  -0.273015  0  3.872545  0
C  C51  1  0.75709058  0.98276642  0.24071480  1  0  -0.169732  0  3.634944  0  0  -0.270929  0  3.879297  0  0  -0.267228  0  3.889296  0  0  -0.131399  -0.273068  0  3.872437  0
C  C52  1  0.81513557  0.25762435  0.99724250  1  0  -0.167667  0  3.639116  0  0  -0.269124  0  3.886627  0  0  -0.265094  0  3.895902  0  0  -0.130955  -0.271448  0  3.880149  0
C  C53  1  0.18487161  0.74237538  0.00275417  1  0  -0.167563  0  3.639102  0  0  -0.269155  0  3.886609  0  0  -0.265137  0  3.895884  0  0  -0.130914  -0.271477  0  3.880127  0
N  N54  1  0.33202370  0.90760488  0.72512974  1  0  -0.076573  0  3.49481  0  0  0.028436  0  3.728671  0  0  0.007978  0  3.75452  0  0  -0.27214  0.042016  0  3.710923  0
N  N55  1  0.66797443  0.09239847  0.27486891  1  0  -0.076469  0  3.494713  0  0  0.028523  0  3.728573  0  0  0.008068  0  3.75442  0  0  -0.272114  0.042109  0  3.710828  0
N  N56  1  0.96377298  0.29438921  0.92611444  1  0  -0.080462  0  3.496994  0  0  0.024954  0  3.727568  0  0  0.0045  0  3.753424  0  0  -0.277249  0.038382  0  3.709602  0
N  N57  1  0.03623684  0.70561050  0.07388389  1  0  -0.080512  0  3.497037  0  0  0.024928  0  3.727608  0  0  0.004539  0  3.75339  0  0  -0.277224  0.038361  0  3.709633  0
N  N58  1  0.52844824  0.57469030  0.80693248  1  0  0.718923  0  4.109044  0  0  0.734378  0  4.4234  0  0  0.76398  0  4.427969  0  0  0.08726  0.714358  0  4.420007  0
N  N59  1  0.47155140  0.42531059  0.19307078  1  0  0.718775  0  4.108905  0  0  0.734227  0  4.423297  0  0  0.763831  0  4.427871  0  0  0.087209  0.714201  0  4.419908  0
O  O60  1  0.59445549  0.66030632  0.58275674  1  0  -0.698655  0  2.052913  0  0  -0.644828  0  2.315865  0  0  -0.675026  0  2.305184  0  0  -0.364411  -0.623945  0  2.323014  0
O  O61  1  0.40553854  0.33969101  0.41724155  1  0  -0.698694  0  2.052995  0  0  -0.644841  0  2.315947  0  0  -0.675046  0  2.305253  0  0  -0.364413  -0.623964  0  2.323126  0
O  O62  1  0.15709932  0.44485599  0.51599617  1  0  -0.676364  0  2.065647  0  0  -0.619978  0  2.321831  0  0  -0.647901  0  2.311172  0  0  -0.351682  -0.599997  0  2.327804  0
O  O63  1  0.84289581  0.55514374  0.48400301  1  0  -0.676368  0  2.065639  0  0  -0.619988  0  2.32178  0  0  -0.64791  0  2.311141  0  0  -0.351697  -0.600013  0  2.327753  0
O  O64  1  0.91763567  0.33862356  0.61742948  1  0  -0.702308  0  2.065245  0  0  -0.640895  0  2.321655  0  0  -0.670549  0  2.310484  0  0  -0.372222  -0.619633  0  2.327557  0
O  O65  1  0.08236244  0.66137977  0.38257071  1  0  -0.702256  0  2.065168  0  0  -0.640844  0  2.321554  0  0  -0.670503  0  2.310379  0  0  -0.372168  -0.619583  0  2.327453  0
O  O66  1  0.49612590  0.72715491  0.43029050  1  0  -0.668429  0  1.97394  0  0  -0.603406  0  2.219357  0  0  -0.632598  0  2.207211  0  0  -0.362497  -0.582784  0  2.227343  0
O  O67  1  0.50386816  0.27284841  0.56971257  1  0  -0.668398  0  1.973899  0  0  -0.603376  0  2.219368  0  0  -0.632534  0  2.207165  0  0  -0.362417  -0.582751  0  2.22737  0
O  O68  1  0.80540805  0.39413357  0.80768433  1  0  -0.601736  0  2.098564  0  0  -0.545454  0  2.3596  0  0  -0.573303  0  2.353241  0  0  -0.352042  -0.525955  0  2.363239  0
O  O69  1  0.19460993  0.60587815  0.19231780  1  0  -0.601632  0  2.098577  0  0  -0.545384  0  2.359636  0  0  -0.573237  0  2.353271  0  0  -0.352032  -0.525893  0  2.363297  0
O  O70  1  0.04128876  0.70138762  0.69310515  1  0  -0.616232  0  2.133357  0  0  -0.554254  0  2.407503  0  0  -0.582811  0  2.399305  0  0  -0.366662  -0.534249  0  2.412314  0
O  O71  1  0.95870709  0.29861938  0.30688813  1  0  -0.616246  0  2.133163  0  0  -0.554309  0  2.407376  0  0  -0.582879  0  2.399173  0  0  -0.366732  -0.534303  0  2.412195  0
O  O72  1  0.45476770  0.44492179  0.74728245  1  0  -0.517311  0  1.756677  0  0  -0.496727  0  1.988987  0  0  -0.516115  0  1.981799  0  0  -0.212099  -0.483113  0  1.993758  0
O  O73  1  0.54523006  0.55507791  0.25271993  1  0  -0.517284  0  1.756658  0  0  -0.496662  0  1.988937  0  0  -0.516054  0  1.981748  0  0  -0.21207  -0.483046  0  1.993715  0
O  O74  1  0.70340815  0.66579451  0.79621425  1  0  -0.517395  0  1.797774  0  0  -0.494745  0  2.027993  0  0  -0.513037  0  2.020296  0  0  -0.21046  -0.482001  0  2.033214  0
O  O75  1  0.29658940  0.33420762  0.20378588  1  0  -0.517345  0  1.797647  0  0  -0.494744  0  2.027915  0  0  -0.51304  0  2.020213  0  0  -0.210491  -0.48199  0  2.033135  0
O  O76  1  0.43456960  0.61077438  0.87128378  1  0  -0.43322  0  1.724012  0  0  -0.425732  0  1.935465  0  0  -0.438705  0  1.929529  0  0  -0.167899  -0.41655  0  1.939513  0
O  O77  1  0.56543269  0.38922650  0.12872038  1  0  -0.433161  0  1.724055  0  0  -0.425628  0  1.935442  0  0  -0.438613  0  1.929524  0  0  -0.167853  -0.416446  0  1.939501  0
