# generated using pymatgen
data_Zr3H8C24(S3O8)2
_symmetry_space_group_name_H-M   'P 1'
_cell_length_a   16.47512478
_cell_length_b   16.47506333
_cell_length_c   23.29453678
_cell_angle_alpha   90.00148233
_cell_angle_beta   90.00272691
_cell_angle_gamma   90.00269776
_symmetry_Int_Tables_number   1
_chemical_formula_structural   Zr3H8C24(S3O8)2
_chemical_formula_sum   'Zr12 H32 C96 S24 O64'
_cell_volume   6322.80637886
_cell_formula_units_Z   4
loop_
 _symmetry_equiv_pos_site_id
 _symmetry_equiv_pos_as_xyz
  1  'x, y, z'
loop_
 _atom_site_type_symbol
 _atom_site_label
 _atom_site_symmetry_multiplicity
 _atom_site_fract_x
 _atom_site_fract_y
 _atom_site_fract_z
 _atom_site_occupancy
 _atom_site_pbe_bader_charge
 _atom_site_pbe_bader_spin_density
 _atom_site_pbe_cm5_charge
 _atom_site_pbe_ddec_charge
 _atom_site_pbe_ddec_spin_density
 _atom_site_pbe_ddec_sum_bond_order
 _atom_site_pbe_magmom
Zr  Zr0  1  0.39254570  0.39254738  0.49996433  1  2.635721  0  1.621537  2.378094  0  2.744707  0
Zr  Zr1  1  0.60744625  0.60746755  0.50004762  1  2.635621  0  1.621568  2.378206  0  2.744484  0
Zr  Zr2  1  0.49995619  0.49995662  0.60742193  1  2.624603  0  1.622101  2.373724  0  2.751385  0
Zr  Zr3  1  0.50004669  0.50002067  0.39256297  1  2.624017  0  1.62195  2.373711  0  2.751211  0
Zr  Zr4  1  0.39256715  0.60744306  0.50000751  1  2.635132  0  1.621845  2.376306  0  2.746472  0
Zr  Zr5  1  0.60744787  0.39254940  0.49999500  1  2.634728  0  1.621761  2.376312  0  2.746379  0
Zr  Zr6  1  0.10741166  0.89250115  0.99998822  1  2.635483  0  1.621438  2.378034  0  2.744553  0
Zr  Zr7  1  0.89257787  0.10748828  0.00000313  1  2.635773  0  1.62146  2.378132  0  2.744057  0
Zr  Zr8  1  0.10749246  0.10743702  0.00004572  1  2.635593  0  1.621773  2.376537  0  2.746054  0
Zr  Zr9  1  0.89250192  0.89258397  0.99994262  1  2.635463  0  1.621701  2.376409  0  2.746771  0
Zr  Zr10  1  0.99998923  0.99995854  0.10744043  1  2.624737  0  1.621937  2.37383  0  2.751034  0
Zr  Zr11  1  0.00003975  0.00003271  0.89255821  1  2.624391  0  1.621959  2.373975  0  2.750963  0
H  H12  1  0.33105412  0.49998075  0.58442400  1  0.597783  0  0.331639  0.424736  0  0.854932  0
H  H13  1  0.50001988  0.66894791  0.41557506  1  0.597729  0  0.331592  0.424762  0  0.854972  0
H  H14  1  0.66891681  0.49999477  0.58446231  1  0.597562  0  0.331364  0.42436  0  0.855695  0
H  H15  1  0.50000464  0.33108153  0.41553677  1  0.597515  0  0.33134  0.424252  0  0.855829  0
H  H16  1  0.16891676  0.99994887  0.08446398  1  0.597511  0  0.331309  0.42425  0  0.85576  0
H  H17  1  0.83105269  0.00002779  0.08442520  1  0.597604  0  0.331517  0.424655  0  0.855015  0
H  H18  1  0.00003782  0.16895388  0.91557245  1  0.597518  0  0.331562  0.424729  0  0.85496  0
H  H19  1  0.99998696  0.83108171  0.91553738  1  0.597517  0  0.331348  0.424245  0  0.855821  0
H  H20  1  0.88964977  0.37132031  0.49953549  1  0.09508  0  0.120246  0.146039  0  0.973853  0
H  H21  1  0.11035005  0.62868003  0.49959256  1  0.095007  0  0.120289  0.146112  0  0.973616  0
H  H22  1  0.37132055  0.88965150  0.50040725  1  0.095013  0  0.120294  0.146122  0  0.973631  0
H  H23  1  0.62868114  0.11035069  0.50046456  1  0.094999  0  0.120235  0.146039  0  0.973807  0
H  H24  1  0.62989775  0.36888253  0.75921688  1  0.107926  0  0.120089  0.145822  0  0.973136  0
H  H25  1  0.86923051  0.13021379  0.74082557  1  0.111204  0  0.119887  0.145596  0  0.973644  0
H  H26  1  0.36920315  0.63023101  0.24078388  1  0.111186  0  0.119895  0.14574  0  0.973433  0
H  H27  1  0.12987463  0.86890461  0.25917305  1  0.107213  0  0.119962  0.145642  0  0.973631  0
H  H28  1  0.36974018  0.63076554  0.75921490  1  0.111611  0  0.119899  0.145734  0  0.973373  0
H  H29  1  0.13112302  0.87015290  0.74082207  1  0.10716  0  0.120031  0.145799  0  0.973457  0
H  H30  1  0.63114527  0.37013256  0.24078162  1  0.107253  0  0.120223  0.146018  0  0.973075  0
H  H31  1  0.86975999  0.13074399  0.25916973  1  0.111366  0  0.119828  0.145564  0  0.973582  0
H  H32  1  0.75961119  0.75870883  0.36958835  1  0.115165  0  0.121053  0.14695  0  0.972377  0
H  H33  1  0.74111728  0.74057116  0.13048117  1  0.115464  0  0.120654  0.146596  0  0.972483  0
H  H34  1  0.24127118  0.24040658  0.63041115  1  0.115224  0  0.121058  0.146972  0  0.972351  0
H  H35  1  0.25976691  0.25854546  0.86951662  1  0.115918  0  0.120551  0.146359  0  0.97221  0
H  H36  1  0.63004473  0.63095983  0.75914029  1  0.106871  0  0.119701  0.145562  0  0.972544  0
H  H37  1  0.86904884  0.86991473  0.74081602  1  0.106916  0  0.119732  0.145727  0  0.972033  0
H  H38  1  0.36906774  0.36992912  0.24086049  1  0.105524  0  0.11968  0.145553  0  0.972575  0
H  H39  1  0.13005877  0.13097907  0.25918562  1  0.10716  0  0.119837  0.145862  0  0.971954  0
H  H40  1  0.61036952  0.12867920  0.99959175  1  0.095192  0  0.12063  0.1467  0  0.972785  0
H  H41  1  0.38963238  0.87132304  0.99953301  1  0.095621  0  0.120547  0.146625  0  0.97301  0
H  H42  1  0.12862188  0.38964524  0.00061660  1  0.094278  0  0.120168  0.146304  0  0.972454  0
H  H43  1  0.87137591  0.61036172  0.00025593  1  0.093481  0  0.120233  0.146132  0  0.972717  0
C  C44  1  0.22734214  0.50036823  0.49797152  1  1.503137  0  0.225641  0.644315  0  4.152042  0
C  C45  1  0.49963008  0.77265955  0.50202503  1  1.502738  0  0.225721  0.644357  0  4.152262  0
C  C46  1  0.77265818  0.49963570  0.49807556  1  1.502799  0  0.225226  0.643885  0  4.152305  0
C  C47  1  0.50036504  0.22734027  0.50192733  1  1.50292  0  0.225196  0.643798  0  4.152419  0
C  C48  1  0.36550029  0.36144708  0.63612814  1  1.547285  0  0.225267  0.643582  0  4.154229  0
C  C49  1  0.36183297  0.36586444  0.36349037  1  1.552571  0  0.225338  0.644077  0  4.153272  0
C  C50  1  0.63855527  0.63450180  0.36387268  1  1.547489  0  0.225266  0.643641  0  4.154273  0
C  C51  1  0.63414090  0.63815887  0.63650953  1  1.552195  0  0.225177  0.643693  0  4.153797  0
C  C52  1  0.36583580  0.63811795  0.63655138  1  1.552709  0  0.224905  0.642954  0  4.15404  0
C  C53  1  0.63408947  0.36181517  0.63655122  1  1.55319  0  0.224862  0.643289  0  4.154244  0
C  C54  1  0.63818111  0.36589948  0.36344394  1  1.552807  0  0.225114  0.643598  0  4.153662  0
C  C55  1  0.36188663  0.63416994  0.36344818  1  1.552598  0  0.224873  0.642924  0  4.153725  0
C  C56  1  0.13404086  0.86177290  0.13651940  1  1.551447  0  0.2251  0.64349  0  4.153765  0
C  C57  1  0.86588536  0.13815649  0.13651823  1  1.553006  0  0.225296  0.643513  0  4.153835  0
C  C58  1  0.86193039  0.13420552  0.86347914  1  1.552836  0  0.22535  0.643958  0  4.15314  0
C  C59  1  0.13814126  0.86587368  0.86348138  1  1.553424  0  0.225091  0.643787  0  4.153457  0
C  C60  1  0.27265657  0.99962812  0.99807179  1  1.502772  0  0.225321  0.643852  0  4.152571  0
C  C61  1  0.99966121  0.72733853  0.00193938  1  1.502501  0  0.225473  0.644075  0  4.152681  0
C  C62  1  0.72734219  0.00037589  0.99797156  1  1.502752  0  0.225532  0.644344  0  4.152645  0
C  C63  1  0.00033972  0.27266728  0.00202057  1  1.5036  0  0.225694  0.64419  0  4.152527  0
C  C64  1  0.13419074  0.13811985  0.13654197  1  1.551557  0  0.224932  0.643507  0  4.153743  0
C  C65  1  0.13859082  0.13447257  0.86383701  1  1.549689  0  0.225122  0.644358  0  4.154383  0
C  C66  1  0.86179709  0.86589800  0.86345707  1  1.553072  0  0.225121  0.644149  0  4.154179  0
C  C67  1  0.86546414  0.86148663  0.13615952  1  1.547561  0  0.225226  0.643824  0  4.154622  0
C  C68  1  0.91267503  0.43316159  0.49963647  1  0.082317  0  -0.089616  -0.137374  0  3.976776  0
C  C69  1  0.08732722  0.56683512  0.49966072  1  0.082695  0  -0.089622  -0.137336  0  3.976416  0
C  C70  1  0.86176225  0.49999472  0.49910434  1  -0.093855  0  -0.023955  -0.118729  0  3.978376  0
C  C71  1  0.13823874  0.50000318  0.49902691  1  -0.094897  0  -0.024027  -0.118893  0  3.978315  0
C  C72  1  0.00521560  0.54266576  0.50005492  1  -0.156855  0  -0.022066  -0.008559  0  4.068319  0
C  C73  1  0.99478607  0.45733460  0.50001241  1  -0.231704  0  -0.022016  -0.008364  0  4.068457  0
C  C74  1  0.43316342  0.91267442  0.50033810  1  0.082673  0  -0.089636  -0.137356  0  3.97635  0
C  C75  1  0.56683888  0.08732535  0.50036500  1  0.082421  0  -0.089604  -0.137359  0  3.976689  0
C  C76  1  0.49999573  0.86176208  0.50097153  1  -0.094764  0  -0.023965  -0.118838  0  3.978356  0
C  C77  1  0.50000600  0.13823770  0.50089751  1  -0.094133  0  -0.023965  -0.118794  0  3.978424  0
C  C78  1  0.54266534  0.00521522  0.49998779  1  -0.231726  0  -0.021987  -0.008322  0  4.0684  0
C  C79  1  0.45733390  0.99478635  0.49994475  1  -0.15682  0  -0.022085  -0.008557  0  4.068224  0
C  C80  1  0.67251914  0.32665937  0.73981052  1  0.090567  0  -0.090317  -0.137837  0  3.97626  0
C  C81  1  0.82679425  0.17262208  0.76022765  1  0.089192  0  -0.090395  -0.138248  0  3.977296  0
C  C82  1  0.67992874  0.31822026  0.68093453  1  -0.194429  0  -0.023697  -0.118583  0  3.980018  0
C  C83  1  0.81827689  0.17999531  0.81910404  1  -0.194768  0  -0.023376  -0.118562  0  3.979491  0
C  C84  1  0.77398036  0.22612238  0.73126123  1  -0.228175  0  -0.02302  -0.009854  0  4.071147  0
C  C85  1  0.72609541  0.27391296  0.76878339  1  -0.165785  0  -0.022342  -0.009497  0  4.069287  0
C  C86  1  0.32675838  0.67262899  0.26019068  1  0.086578  0  -0.090278  -0.138213  0  3.976881  0
C  C87  1  0.17248389  0.82666748  0.23977012  1  0.09195  0  -0.09058  -0.138593  0  3.977848  0
C  C88  1  0.31825074  0.67997187  0.31906536  1  -0.194411  0  -0.02344  -0.11769  0  3.978947  0
C  C89  1  0.17989713  0.81818467  0.18089456  1  -0.194938  0  -0.02347  -0.118326  0  3.979353  0
C  C90  1  0.22606318  0.77393382  0.26873784  1  -0.226787  0  -0.022864  -0.009388  0  4.071459  0
C  C91  1  0.27394147  0.72613657  0.23121697  1  -0.16542  0  -0.022289  -0.009748  0  4.070125  0
C  C92  1  0.32735420  0.67322351  0.73980359  1  0.085674  0  -0.090259  -0.138011  0  3.976306  0
C  C93  1  0.17333480  0.82752072  0.76022479  1  0.092454  0  -0.090802  -0.138968  0  3.977821  0
C  C94  1  0.32003715  0.68175576  0.68092922  1  -0.195303  0  -0.023448  -0.11794  0  3.978853  0
C  C95  1  0.18175293  0.82004464  0.81910390  1  -0.196155  0  -0.023401  -0.118445  0  3.979532  0
C  C96  1  0.22607753  0.77395320  0.73125530  1  -0.227488  0  -0.022649  -0.009163  0  4.071121  0
C  C97  1  0.27384058  0.72603653  0.76877477  1  -0.164327  0  -0.022511  -0.009952  0  4.069787  0
C  C98  1  0.67336008  0.32750160  0.26018864  1  0.0927  0  -0.090515  -0.138188  0  3.976941  0
C  C99  1  0.82737583  0.17320499  0.23976615  1  0.090638  0  -0.090182  -0.137871  0  3.977022  0
C  C100  1  0.68177214  0.32006132  0.31906346  1  -0.194639  0  -0.023606  -0.118305  0  3.979929  0
C  C101  1  0.82007274  0.18179915  0.18089135  1  -0.19488  0  -0.023596  -0.11879  0  3.979216  0
C  C102  1  0.77386526  0.22600831  0.26873346  1  -0.228239  0  -0.023158  -0.010136  0  4.071453  0
C  C103  1  0.72611313  0.27393590  0.23121529  1  -0.167486  0  -0.022245  -0.009649  0  4.070472  0
C  C104  1  0.74013449  0.73941419  0.32714700  1  0.021439  0  -0.089035  -0.136586  0  3.973629  0
C  C105  1  0.76053692  0.75993863  0.17291480  1  0.019123  0  -0.089825  -0.137482  0  3.976143  0
C  C106  1  0.68183039  0.67999803  0.31916764  1  -0.194647  0  -0.023612  -0.117796  0  3.978504  0
C  C107  1  0.81999729  0.81820703  0.18088429  1  -0.194081  0  -0.023749  -0.117933  0  3.97929  0
C  C108  1  0.73123264  0.73132658  0.22608488  1  -0.141924  0  -0.022703  -0.009471  0  4.072219  0
C  C109  1  0.76870495  0.76874246  0.27396704  1  -0.080755  0  -0.02255  -0.009286  0  4.070819  0
C  C110  1  0.26056821  0.25988512  0.67284993  1  0.030476  0  -0.089033  -0.136655  0  3.973735  0
C  C111  1  0.24017550  0.23936190  0.82708085  1  0.020712  0  -0.089623  -0.136686  0  3.975995  0
C  C112  1  0.32000916  0.31816262  0.68083059  1  -0.195453  0  -0.023652  -0.117881  0  3.978851  0
C  C113  1  0.18183740  0.17997123  0.81911222  1  -0.195886  0  -0.02373  -0.118647  0  3.979937  0
C  C114  1  0.26871501  0.26872840  0.77390990  1  -0.143986  0  -0.02303  -0.010127  0  4.073176  0
C  C115  1  0.23124087  0.23131556  0.72602860  1  -0.088395  0  -0.022359  -0.008929  0  4.070583  0
C  C116  1  0.67256069  0.67329112  0.73975015  1  0.091576  0  -0.09082  -0.137646  0  3.977578  0
C  C117  1  0.82670041  0.82740985  0.76021475  1  0.091306  0  -0.090474  -0.1371  0  3.976466  0
C  C118  1  0.67997736  0.68179276  0.68087303  1  -0.197769  0  -0.023593  -0.119082  0  3.979646  0
C  C119  1  0.81817785  0.82006266  0.81908929  1  -0.196848  0  -0.023664  -0.119004  0  3.979954  0
C  C120  1  0.77393620  0.77388537  0.73121816  1  -0.165455  0  -0.022316  -0.010035  0  4.07014  0
C  C121  1  0.72607631  0.72606296  0.76874203  1  -0.226492  0  -0.022995  -0.010092  0  4.071939  0
C  C122  1  0.32672780  0.32742060  0.26025364  1  0.092206  0  -0.090694  -0.137475  0  3.977573  0
C  C123  1  0.17258383  0.17330247  0.23979033  1  0.091069  0  -0.090581  -0.137294  0  3.976377  0
C  C124  1  0.31819553  0.32003395  0.31912774  1  -0.197971  0  -0.023621  -0.119234  0  3.979943  0
C  C125  1  0.17999990  0.18175313  0.18091449  1  -0.195487  0  -0.023715  -0.118734  0  3.979872  0
C  C126  1  0.22610309  0.22607735  0.26878478  1  -0.165997  0  -0.022447  -0.010174  0  4.070439  0
C  C127  1  0.27396906  0.27389430  0.23126349  1  -0.225088  0  -0.023057  -0.010197  0  4.071853  0
C  C128  1  0.58733152  0.06684096  0.99966163  1  0.082917  0  -0.089541  -0.137199  0  3.975382  0
C  C129  1  0.41267039  0.93316250  0.99963399  1  0.082688  0  -0.08935  -0.13707  0  3.975725  0
C  C130  1  0.63824123  0.00001023  0.99902610  1  -0.095003  0  -0.023945  -0.118723  0  3.978315  0
C  C131  1  0.36175943  0.99999078  0.99910143  1  -0.094524  0  -0.023869  -0.11845  0  3.978064  0
C  C132  1  0.49478055  0.95733786  0.00000979  1  -0.231526  0  -0.021996  -0.008288  0  4.068224  0
C  C133  1  0.50522025  0.04266606  0.00005440  1  -0.1568  0  -0.022006  -0.008231  0  4.067891  0
C  C134  1  0.06680498  0.41267799  0.00042345  1  0.082045  0  -0.090084  -0.137283  0  3.975726  0
C  C135  1  0.93319949  0.58733262  0.00028895  1  0.083739  0  -0.089958  -0.136864  0  3.975442  0
C  C136  1  0.99995060  0.36176966  0.00094782  1  -0.095241  0  -0.024049  -0.119173  0  3.977906  0
C  C137  1  0.00005330  0.63823672  0.00092193  1  -0.09522  0  -0.02408  -0.119103  0  3.977754  0
C  C138  1  0.95733783  0.50521582  0.99993373  1  -0.157383  0  -0.022265  -0.008747  0  4.068273  0
C  C139  1  0.04266808  0.49479789  0.00000181  1  -0.231519  0  -0.022113  -0.008514  0  4.068557  0
S  S140  1  0.91307634  0.59230453  0.49957225  1  0.257023  0  0.081006  0.117874  0  2.736551  0
S  S141  1  0.08691800  0.40769580  0.49934717  1  0.257035  0  0.08092  0.117839  0  2.736655  0
S  S142  1  0.59230336  0.91308302  0.50065245  1  0.257277  0  0.080928  0.117857  0  2.73662  0
S  S143  1  0.40769531  0.08692585  0.50042885  1  0.256995  0  0.081032  0.117897  0  2.736574  0
S  S144  1  0.75217165  0.24689196  0.66039852  1  0.274755  0  0.080395  0.118109  0  2.737164  0
S  S145  1  0.74687224  0.25215337  0.83964909  1  0.27763  0  0.082153  0.11987  0  2.73878  0
S  S146  1  0.24678963  0.75208075  0.33960182  1  0.275119  0  0.080292  0.117923  0  2.736656  0
S  S147  1  0.25207812  0.74680600  0.16035253  1  0.278302  0  0.082086  0.1198  0  2.738966  0
S  S148  1  0.24794885  0.75324476  0.66039252  1  0.275883  0  0.080211  0.117879  0  2.736424  0
S  S149  1  0.25300661  0.74773680  0.83964059  1  0.278467  0  0.082266  0.120017  0  2.738897  0
S  S150  1  0.75308045  0.24779719  0.33959757  1  0.274387  0  0.080428  0.118262  0  2.73679  0
S  S151  1  0.74803786  0.25332943  0.16034907  1  0.276693  0  0.082113  0.119932  0  2.738717  0
S  S152  1  0.66089958  0.65991133  0.24735928  1  0.25475  0  0.079206  0.115725  0  2.735552  0
S  S153  1  0.84014025  0.83904879  0.25269351  1  0.255932  0  0.079784  0.116696  0  2.735824  0
S  S154  1  0.34014788  0.33904263  0.75263895  1  0.255719  0  0.079301  0.115938  0  2.735999  0
S  S155  1  0.16089567  0.15991730  0.74730514  1  0.255502  0  0.079665  0.116677  0  2.735861  0
S  S156  1  0.75216051  0.75318380  0.66034476  1  0.280727  0  0.082981  0.119857  0  2.742287  0
S  S157  1  0.74671092  0.74794205  0.83961456  1  0.277316  0  0.08116  0.118296  0  2.739935  0
S  S158  1  0.24678808  0.24786964  0.33965816  1  0.280799  0  0.08302  0.119895  0  2.742501  0
S  S159  1  0.25224556  0.25309561  0.16039095  1  0.276353  0  0.081249  0.118285  0  2.739923  0
S  S160  1  0.58691550  0.90769962  0.99934563  1  0.256531  0  0.080275  0.116624  0  2.73726  0
S  S161  1  0.41307972  0.09230140  0.99957221  1  0.256594  0  0.08035  0.116562  0  2.737039  0
S  S162  1  0.90765446  0.41309779  0.00047925  1  0.258568  0  0.081782  0.117751  0  2.739733  0
S  S163  1  0.09234941  0.58691343  0.00060578  1  0.258758  0  0.08183  0.117682  0  2.740108  0
O  O164  1  0.26251717  0.43095324  0.49784526  1  -1.179933  0  -0.360465  -0.621418  0  2.279165  0
O  O165  1  0.56904482  0.73748439  0.50215080  1  -1.179823  0  -0.360538  -0.621444  0  2.279295  0
O  O166  1  0.73748254  0.56905129  0.49800692  1  -1.180087  0  -0.360061  -0.621051  0  2.278954  0
O  O167  1  0.43095031  0.26251544  0.50199517  1  -1.179955  0  -0.360012  -0.620967  0  2.279136  0
O  O168  1  0.41791141  0.41359835  0.65332237  1  -1.163335  0  -0.360691  -0.622577  0  2.280741  0
O  O169  1  0.41390789  0.41808367  0.34637398  1  -1.169111  0  -0.3573  -0.613012  0  2.258721  0
O  O170  1  0.58640757  0.58208711  0.34667545  1  -1.163264  0  -0.360677  -0.622652  0  2.280563  0
O  O171  1  0.58192031  0.58608956  0.65362206  1  -1.168795  0  -0.357182  -0.612791  0  2.258771  0
O  O172  1  0.34879846  0.65539180  0.58426474  1  -1.167499  0  -0.359937  -0.62153  0  2.279464  0
O  O173  1  0.65116761  0.34457887  0.58426741  1  -1.167386  0  -0.359988  -0.621701  0  2.27974  0
O  O174  1  0.65541997  0.34882898  0.41572886  1  -1.167227  0  -0.360106  -0.621824  0  2.279387  0
O  O175  1  0.34461002  0.65120897  0.41573284  1  -1.167487  0  -0.35988  -0.621584  0  2.27935  0
O  O176  1  0.58183674  0.41385107  0.65363250  1  -1.174378  0  -0.357047  -0.611494  0  2.259718  0
O  O177  1  0.58614331  0.41815631  0.34636314  1  -1.174043  0  -0.357198  -0.611744  0  2.259676  0
O  O178  1  0.41398884  0.58197803  0.34635960  1  -1.172612  0  -0.35712  -0.611693  0  2.259137  0
O  O179  1  0.41802231  0.58601287  0.65363905  1  -1.17254  0  -0.357093  -0.611609  0  2.259297  0
O  O180  1  0.34852041  0.34435504  0.58397169  1  -1.170771  0  -0.356299  -0.609864  0  2.259073  0
O  O181  1  0.65116460  0.65538981  0.58422346  1  -1.16728  0  -0.359911  -0.619109  0  2.278778  0
O  O182  1  0.65565047  0.65148094  0.41602784  1  -1.17079  0  -0.356276  -0.609838  0  2.259014  0
O  O183  1  0.34461079  0.34883744  0.41577558  1  -1.167513  0  -0.359871  -0.619094  0  2.278457  0
O  O184  1  0.56960904  0.26243190  0.50201167  1  -1.175653  0  -0.35706  -0.611259  0  2.258732  0
O  O185  1  0.26243425  0.56961006  0.49795686  1  -1.175405  0  -0.356985  -0.611087  0  2.258492  0
O  O186  1  0.43039033  0.73756792  0.50204200  1  -1.175499  0  -0.357008  -0.611112  0  2.258867  0
O  O187  1  0.73756728  0.43039022  0.49799062  1  -1.175943  0  -0.357025  -0.611265  0  2.258767  0
O  O188  1  0.50003450  0.37916797  0.43950678  1  -1.229691  0  -0.694488  -1.070001  0  2.362017  0
O  O189  1  0.62082896  0.49996650  0.56049193  1  -1.229817  0  -0.694454  -1.070158  0  2.361848  0
O  O190  1  0.50001894  0.62087752  0.43956008  1  -1.229282  0  -0.694645  -1.07054  0  2.361276  0
O  O191  1  0.37912518  0.49998144  0.56044322  1  -1.229249  0  -0.694789  -1.070494  0  2.361389  0
O  O192  1  0.49996711  0.58918001  0.54462390  1  -1.204224  0  -0.788923  -1.147768  0  2.117035  0
O  O193  1  0.41082641  0.50003065  0.45537878  1  -1.203945  0  -0.788772  -1.147851  0  2.116652  0
O  O194  1  0.58922992  0.50002514  0.45544231  1  -1.204227  0  -0.788635  -1.147611  0  2.116459  0
O  O195  1  0.49997322  0.41077099  0.54455573  1  -1.204297  0  -0.788688  -1.14751  0  2.116621  0
O  O196  1  0.15106436  0.84452446  0.08423603  1  -1.167071  0  -0.359766  -0.620017  0  2.278927  0
O  O197  1  0.84890447  0.15543641  0.08423245  1  -1.167675  0  -0.359939  -0.619951  0  2.278763  0
O  O198  1  0.84470901  0.15125791  0.91576337  1  -1.167712  0  -0.359721  -0.620312  0  2.278415  0
O  O199  1  0.15532489  0.84878194  0.91576845  1  -1.168194  0  -0.359788  -0.6204  0  2.278537  0
O  O200  1  0.23750109  0.06906941  0.99800988  1  -1.180339  0  -0.360651  -0.621914  0  2.279967  0
O  O201  1  0.93040793  0.76241173  0.00195528  1  -1.176459  0  -0.357057  -0.612262  0  2.258439  0
O  O202  1  0.76249828  0.93093703  0.99785145  1  -1.179379  0  -0.360778  -0.622092  0  2.280331  0
O  O203  1  0.06959482  0.23759530  0.00209482  1  -1.175878  0  -0.357335  -0.612209  0  2.258214  0
O  O204  1  0.08193556  0.08607482  0.15363819  1  -1.168568  0  -0.357228  -0.612787  0  2.258838  0
O  O205  1  0.08642612  0.08208276  0.84666596  1  -1.163588  0  -0.360641  -0.622694  0  2.280906  0
O  O206  1  0.91389568  0.91809599  0.84636343  1  -1.169885  0  -0.357188  -0.61309  0  2.259142  0
O  O207  1  0.91789225  0.91361847  0.15333787  1  -1.163434  0  -0.360563  -0.622524  0  2.281  0
O  O208  1  0.15576067  0.15145292  0.91598831  1  -1.172619  0  -0.356491  -0.611538  0  2.259393  0
O  O209  1  0.84451845  0.84888739  0.91573970  1  -1.167199  0  -0.360221  -0.620637  0  2.280143  0
O  O210  1  0.84841810  0.84439156  0.08400779  1  -1.171121  0  -0.356678  -0.611762  0  2.259148  0
O  O211  1  0.15126787  0.15532590  0.08425720  1  -1.167406  0  -0.360034  -0.620613  0  2.279677  0
O  O212  1  0.23755111  0.93040995  0.99797912  1  -1.175796  0  -0.356515  -0.610387  0  2.257949  0
O  O213  1  0.93093761  0.23746808  0.00210030  1  -1.179352  0  -0.360278  -0.619976  0  2.279128  0
O  O214  1  0.76245008  0.06959345  0.99795132  1  -1.175797  0  -0.356477  -0.610369  0  2.25804  0
O  O215  1  0.06906636  0.76253591  0.00206441  1  -1.179403  0  -0.360317  -0.619975  0  2.279079  0
O  O216  1  0.08613321  0.91815116  0.84637955  1  -1.17341  0  -0.357142  -0.611829  0  2.259724  0
O  O217  1  0.08181908  0.91384280  0.15362086  1  -1.174566  0  -0.357298  -0.611953  0  2.259528  0
O  O218  1  0.91804455  0.08602531  0.15362908  1  -1.171916  0  -0.357185  -0.612  0  2.259201  0
O  O219  1  0.91400285  0.08198570  0.84637424  1  -1.172837  0  -0.357509  -0.612388  0  2.259106  0
O  O220  1  0.99996158  0.87916876  0.93950481  1  -1.229856  0  -0.694494  -1.069942  0  2.36196  0
O  O221  1  0.00009273  0.12088288  0.93955660  1  -1.229181  0  -0.694597  -1.070499  0  2.361028  0
O  O222  1  0.87912072  0.00001573  0.06043755  1  -1.229218  0  -0.694571  -1.070351  0  2.360909  0
O  O223  1  0.12082891  0.99993941  0.06049446  1  -1.229819  0  -0.694469  -1.070043  0  2.361921  0
O  O224  1  0.00003274  0.08918166  0.04462287  1  -1.20399  0  -0.788658  -1.147882  0  2.116668  0
O  O225  1  0.99991158  0.91076683  0.04455878  1  -1.204771  0  -0.788487  -1.147727  0  2.116293  0
O  O226  1  0.91082343  0.00007898  0.95537582  1  -1.203888  0  -0.788859  -1.148123  0  2.11684  0
O  O227  1  0.08923134  0.99997749  0.95543896  1  -1.203923  0  -0.788518  -1.147709  0  2.116281  0
