# generated using pymatgen
data_ErH18C20N4Cl3
_symmetry_space_group_name_H-M   'P 1'
_cell_length_a   12.67047013
_cell_length_b   14.20527329
_cell_length_c   14.73898912
_cell_angle_alpha   89.99990668
_cell_angle_beta   89.99984881
_cell_angle_gamma   90.00010864
_symmetry_Int_Tables_number   1
_chemical_formula_structural   ErH18C20N4Cl3
_chemical_formula_sum   'Er4 H72 C80 N16 Cl12'
_cell_volume   2652.83367114
_cell_formula_units_Z   4
loop_
 _symmetry_equiv_pos_site_id
 _symmetry_equiv_pos_as_xyz
  1  'x, y, z'
loop_
 _atom_site_type_symbol
 _atom_site_label
 _atom_site_symmetry_multiplicity
 _atom_site_fract_x
 _atom_site_fract_y
 _atom_site_fract_z
 _atom_site_occupancy
 _atom_site_pbe_bader_charge
 _atom_site_pbe_bader_spin_density
 _atom_site_pbe_cm5_charge
 _atom_site_pbe_ddec_charge
 _atom_site_pbe_ddec_spin_density
 _atom_site_pbe_ddec_sum_bond_order
 _atom_site_pbe_magmom
Er  Er0  1  0.66587152  0.16696219  0.36481993  1  2.02504  0  1.176018  1.630592  0  2.507237  0
Er  Er1  1  0.83412883  0.83303991  0.86482230  1  2.02503  0  1.176015  1.630551  0  2.507237  0
Er  Er2  1  0.16587405  0.33304001  0.63517744  1  2.025076  0  1.176021  1.63057  0  2.507235  0
Er  Er3  1  0.33412781  0.66696094  0.13517797  1  2.025058  0  1.176029  1.630598  0  2.507259  0
H  H4  1  0.58443890  0.60065506  0.64229325  1  0.08651  0  0.110035  0.11784  0  0.997663  0
H  H5  1  0.91556213  0.39934460  0.14229335  1  0.086473  0  0.110023  0.117827  0  0.997685  0
H  H6  1  0.08443848  0.89934396  0.35770690  1  0.086497  0  0.110034  0.117846  0  0.997659  0
H  H7  1  0.41556269  0.10065661  0.85770481  1  0.086491  0  0.110035  0.117823  0  0.997701  0
H  H8  1  0.82393927  0.13667187  0.71736498  1  0.113674  0  0.100881  0.122006  0  1.008699  0
H  H9  1  0.67606153  0.86332837  0.21736421  1  0.113697  0  0.100886  0.121999  0  1.008712  0
H  H10  1  0.32393900  0.36332919  0.28263610  1  0.113704  0  0.1009  0.122016  0  1.008701  0
H  H11  1  0.17606161  0.63667150  0.78263642  1  0.113718  0  0.100899  0.121999  0  1.008732  0
H  H12  1  0.53387951  0.31183000  0.50689009  1  0.165455  0  0.105144  0.080168  0  1.042404  0
H  H13  1  0.96612036  0.68817131  0.00688825  1  0.165434  0  0.105123  0.080126  0  1.042456  0
H  H14  1  0.03387980  0.18816987  0.49311029  1  0.165458  0  0.105148  0.080158  0  1.042385  0
H  H15  1  0.46611938  0.81182976  0.99311172  1  0.165454  0  0.105142  0.080161  0  1.04242  0
H  H16  1  0.90771958  0.50496197  0.67157516  1  0.136126  0  0.100383  0.119877  0  1.05042  0
H  H17  1  0.59228137  0.49503905  0.17157516  1  0.136134  0  0.100392  0.119904  0  1.050369  0
H  H18  1  0.40771945  0.99503830  0.32842426  1  0.136134  0  0.100371  0.119908  0  1.050346  0
H  H19  1  0.09228260  0.00495880  0.82842373  1  0.136152  0  0.100382  0.119925  0  1.050335  0
H  H20  1  0.62780664  0.72961275  0.75036971  1  0.121402  0  0.104834  0.078753  0  1.043969  0
H  H21  1  0.87219327  0.27038603  0.25037011  1  0.121378  0  0.104787  0.078691  0  1.043958  0
H  H22  1  0.12780627  0.77038705  0.24963102  1  0.121394  0  0.104837  0.078756  0  1.043935  0
H  H23  1  0.37219365  0.22961512  0.74962950  1  0.121363  0  0.104814  0.078744  0  1.043935  0
H  H24  1  0.82078735  0.17543296  0.55266370  1  0.107011  0  0.104029  0.077058  0  1.040678  0
H  H25  1  0.67921395  0.82456826  0.05266298  1  0.107032  0  0.104036  0.077092  0  1.040686  0
H  H26  1  0.32078649  0.32456809  0.44733739  1  0.107011  0  0.104033  0.077088  0  1.040671  0
H  H27  1  0.17921440  0.67543373  0.94733696  1  0.106479  0  0.104025  0.077063  0  1.040689  0
H  H28  1  0.80983328  0.13651322  0.17509443  1  0.093964  0  0.108504  0.069395  0  1.032192  0
H  H29  1  0.69015975  0.86348569  0.67509436  1  0.09388  0  0.108534  0.069497  0  1.032251  0
H  H30  1  0.30983451  0.36348712  0.82490465  1  0.09395  0  0.108511  0.069448  0  1.032147  0
H  H31  1  0.19016597  0.63651351  0.32490488  1  0.093983  0  0.108501  0.069431  0  1.032191  0
H  H32  1  0.84553581  0.32922950  0.42295180  1  0.074342  0  0.111815  0.074471  0  1.028686  0
H  H33  1  0.65446436  0.67077110  0.92295280  1  0.074373  0  0.111831  0.074509  0  1.028654  0
H  H34  1  0.34553580  0.17077019  0.57704922  1  0.074358  0  0.111805  0.074466  0  1.028678  0
H  H35  1  0.15446307  0.82923015  0.07704788  1  0.074333  0  0.11181  0.07445  0  1.028686  0
H  H36  1  0.66351173  0.06507995  0.78853156  1  0.113815  0  0.101797  0.097765  0  1.023073  0
H  H37  1  0.83648885  0.93492088  0.28853032  1  0.113819  0  0.101809  0.097805  0  1.023089  0
H  H38  1  0.16351341  0.43492084  0.21146920  1  0.113842  0  0.101822  0.097777  0  1.023042  0
H  H39  1  0.33648742  0.56507857  0.71146927  1  0.113838  0  0.101816  0.097759  0  1.023058  0
H  H40  1  0.88103171  0.46302060  0.52864955  1  0.078437  0  0.107742  0.115731  0  1.028706  0
H  H41  1  0.61896888  0.53697925  0.02865077  1  0.078485  0  0.10775  0.11575  0  1.028718  0
H  H42  1  0.38103174  0.03697844  0.47135140  1  0.078449  0  0.107727  0.1157  0  1.028641  0
H  H43  1  0.11896908  0.96302264  0.97134998  1  0.078468  0  0.107749  0.115732  0  1.028721  0
H  H44  1  0.48796905  0.10701612  0.21218013  1  0.082533  0  0.107653  0.075234  0  1.035122  0
H  H45  1  0.01202309  0.89298188  0.71218178  1  0.082653  0  0.107644  0.075214  0  1.035108  0
H  H46  1  0.98796965  0.39298240  0.78781854  1  0.082581  0  0.107667  0.075256  0  1.035115  0
H  H47  1  0.51203093  0.60701843  0.28781787  1  0.082584  0  0.107671  0.075264  0  1.035089  0
H  H48  1  0.55686836  0.43956981  0.61786568  1  0.104685  0  0.098159  0.118124  0  1.033267  0
H  H49  1  0.94313275  0.56043060  0.11786478  1  0.104706  0  0.09811  0.118066  0  1.033171  0
H  H50  1  0.05686872  0.06043080  0.38213329  1  0.104709  0  0.098108  0.118044  0  1.033181  0
H  H51  1  0.44313159  0.93956973  0.88213456  1  0.104692  0  0.098154  0.118126  0  1.033294  0
H  H52  1  0.51357138  0.08135499  0.52553743  1  0.068146  0  0.106289  0.062746  0  1.064619  0
H  H53  1  0.98643001  0.91864628  0.02553587  1  0.068406  0  0.106332  0.062872  0  1.064598  0
H  H54  1  0.01357143  0.41864485  0.47446367  1  0.068139  0  0.106325  0.062867  0  1.064647  0
H  H55  1  0.48642938  0.58135553  0.97446338  1  0.068122  0  0.106339  0.062878  0  1.064653  0
H  H56  1  0.50191169  0.04014409  0.69035882  1  0.068163  0  0.102148  0.105543  0  1.005345  0
H  H57  1  0.99808919  0.95985620  0.19035784  1  0.068175  0  0.102135  0.105565  0  1.005323  0
H  H58  1  0.00191076  0.45985714  0.30964299  1  0.068187  0  0.102142  0.105565  0  1.005343  0
H  H59  1  0.49809056  0.54014281  0.80964205  1  0.06817  0  0.102162  0.105604  0  1.005317  0
H  H60  1  0.93728673  0.63953377  0.77505973  1  0.14903  0  0.111846  0.084859  0  1.024635  0
H  H61  1  0.56271310  0.36046568  0.27505933  1  0.149048  0  0.111829  0.084853  0  1.024689  0
H  H62  1  0.43728742  0.86046585  0.22494098  1  0.149017  0  0.11182  0.084836  0  1.024675  0
H  H63  1  0.06271415  0.13953213  0.72493895  1  0.149034  0  0.111838  0.084881  0  1.024594  0
H  H64  1  0.46235614  0.05183814  0.05257360  1  0.093786  0  0.10088  0.104014  0  1.015064  0
H  H65  1  0.03764123  0.94816013  0.55257578  1  0.093859  0  0.100899  0.104044  0  1.015118  0
H  H66  1  0.96235716  0.44816034  0.94742513  1  0.093802  0  0.100898  0.104028  0  1.015116  0
H  H67  1  0.53764451  0.55183881  0.44742516  1  0.093795  0  0.100883  0.104027  0  1.015053  0
H  H68  1  0.79765477  0.08621794  0.01201206  1  0.124518  0  0.096937  0.120119  0  1.030026  0
H  H69  1  0.70234114  0.91378124  0.51201121  1  0.12447  0  0.096987  0.12023  0  1.029956  0
H  H70  1  0.29765402  0.41378097  0.98798704  1  0.124531  0  0.096906  0.1201  0  1.030064  0
H  H71  1  0.20234596  0.58621798  0.48798732  1  0.124545  0  0.096935  0.120109  0  1.030014  0
H  H72  1  0.62216966  0.03955053  0.95028289  1  0.092799  0  0.098426  0.095657  0  1.031389  0
H  H73  1  0.87782806  0.96044932  0.45028354  1  0.092844  0  0.09843  0.095685  0  1.031294  0
H  H74  1  0.12216873  0.46044879  0.04971594  1  0.092819  0  0.098421  0.095653  0  1.031384  0
H  H75  1  0.37783023  0.53954949  0.54971595  1  0.092821  0  0.09842  0.095655  0  1.031355  0
C  C76  1  0.66352432  0.60521327  0.67113096  1  -0.032252  0  -0.083557  -0.173997  0  3.943918  0
C  C77  1  0.83647662  0.39478564  0.17113327  1  -0.032213  0  -0.083605  -0.174081  0  3.943994  0
C  C78  1  0.16352398  0.89478518  0.32887038  1  -0.032262  0  -0.083563  -0.174052  0  3.943867  0
C  C79  1  0.33647886  0.10521544  0.82886778  1  -0.032269  0  -0.083589  -0.174038  0  3.943921  0
C  C80  1  0.74244165  0.54066761  0.64709806  1  -0.024999  0  0.012788  0.108916  0  3.974962  0
C  C81  1  0.75755937  0.45933416  0.14709842  1  -0.024983  0  0.012851  0.109  0  3.974845  0
C  C82  1  0.24244137  0.95933097  0.35290241  1  -0.025065  0  0.012792  0.108983  0  3.974913  0
C  C83  1  0.25755824  0.04066679  0.85290077  1  -0.025003  0  0.012829  0.108955  0  3.974937  0
C  C84  1  0.72223878  0.46381168  0.58224702  1  -0.018073  0  0.012184  0.106728  0  3.977881  0
C  C85  1  0.77776322  0.53618809  0.08224654  1  -0.018095  0  0.012181  0.106759  0  3.978047  0
C  C86  1  0.22223898  0.03618851  0.41775429  1  -0.018037  0  0.012148  0.106628  0  3.978028  0
C  C87  1  0.27776279  0.96381196  0.91775251  1  -0.018038  0  0.012179  0.106735  0  3.977913  0
C  C88  1  0.75273438  0.12450101  0.67778434  1  -0.063879  0  -0.081968  -0.112163  0  3.92649  0
C  C89  1  0.74726575  0.87550000  0.17778338  1  -0.063861  0  -0.081949  -0.112087  0  3.926474  0
C  C90  1  0.25273402  0.37550134  0.32221622  1  -0.063872  0  -0.081961  -0.112137  0  3.926522  0
C  C91  1  0.24726726  0.62449929  0.82221640  1  -0.063913  0  -0.081961  -0.112127  0  3.926542  0
C  C92  1  0.60997063  0.34695856  0.51345759  1  0.47459  0  0.047307  0.115956  0  3.945895  0
C  C93  1  0.89002921  0.65304062  0.01345530  1  0.474474  0  0.047349  0.115926  0  3.945853  0
C  C94  1  0.10997166  0.15303933  0.48654398  1  0.474458  0  0.047271  0.115896  0  3.945839  0
C  C95  1  0.39002833  0.84695962  0.98654281  1  0.474215  0  0.047282  0.115904  0  3.945794  0
C  C96  1  0.84249472  0.55273430  0.68628652  1  -0.056806  0  -0.077864  -0.157022  0  3.884887  0
C  C97  1  0.65750539  0.44726529  0.18628712  1  -0.056812  0  -0.077897  -0.157099  0  3.88488  0
C  C98  1  0.34249532  0.94726445  0.31371509  1  -0.056727  0  -0.077896  -0.157163  0  3.884807  0
C  C99  1  0.15750678  0.05273338  0.81371298  1  -0.056831  0  -0.077851  -0.157067  0  3.884839  0
C  C100  1  0.68750369  0.67830933  0.73025705  1  0.420792  0  0.040528  0.091535  0  3.993839  0
C  C101  1  0.81249628  0.32169159  0.23025682  1  0.42078  0  0.040599  0.09169  0  3.993845  0
C  C102  1  0.18750416  0.82168845  0.26974491  1  0.420798  0  0.040564  0.091631  0  3.99373  0
C  C103  1  0.31249491  0.17831156  0.76974293  1  0.420863  0  0.040557  0.091633  0  3.993823  0
C  C104  1  0.75135891  0.14559325  0.58550459  1  0.491388  0  0.046182  0.110761  0  3.940981  0
C  C105  1  0.74864072  0.85440932  0.08550367  1  0.491388  0  0.046107  0.110635  0  3.941065  0
C  C106  1  0.25135979  0.35440839  0.41449801  1  0.491414  0  0.04612  0.11069  0  3.941042  0
C  C107  1  0.24864199  0.64559349  0.91449680  1  0.491966  0  0.046134  0.110709  0  3.940991  0
C  C108  1  0.73391032  0.11921890  0.14446828  1  0.433162  0  0.043995  0.1022  0  3.967283  0
C  C109  1  0.76608597  0.88077935  0.64446733  1  0.433142  0  0.043962  0.102047  0  3.967473  0
C  C110  1  0.23391149  0.38078201  0.85553029  1  0.433134  0  0.043947  0.102028  0  3.967247  0
C  C111  1  0.26609127  0.61921786  0.35553174  1  0.433147  0  0.043989  0.102073  0  3.967419  0
C  C112  1  0.78314819  0.35741754  0.46617395  1  0.452415  0  0.046751  0.109377  0  3.969064  0
C  C113  1  0.71685342  0.64258158  0.96617349  1  0.452416  0  0.046713  0.109262  0  3.969082  0
C  C114  1  0.28314589  0.14257923  0.53382858  1  0.452406  0  0.046745  0.109318  0  3.968915  0
C  C115  1  0.21685154  0.85741836  0.03382637  1  0.45243  0  0.046776  0.109426  0  3.96906  0
C  C116  1  0.66278497  0.08563153  0.71726547  1  -0.030116  0  -0.065213  -0.021846  0  3.95563  0
C  C117  1  0.83721504  0.91437012  0.21726493  1  -0.030185  0  -0.06519  -0.021861  0  3.955582  0
C  C118  1  0.16278639  0.41436996  0.28273598  1  -0.03023  0  -0.065203  -0.021795  0  3.955597  0
C  C119  1  0.33721422  0.58563003  0.78273737  1  -0.030214  0  -0.065196  -0.021749  0  3.95564  0
C  C120  1  0.80297933  0.43121897  0.52545812  1  0.046625  0  -0.079164  -0.157048  0  3.922307  0
C  C121  1  0.69702206  0.56878019  0.02545777  1  0.046613  0  -0.079155  -0.157057  0  3.922311  0
C  C122  1  0.30297705  0.06877924  0.47454368  1  0.046609  0  -0.079133  -0.156938  0  3.922203  0
C  C123  1  0.19702060  0.93122043  0.97454281  1  0.046591  0  -0.079167  -0.157066  0  3.922274  0
C  C124  1  0.55439759  0.10119866  0.16551743  1  0.490282  0  0.045977  0.108777  0  3.955785  0
C  C125  1  0.94559547  0.89879815  0.66551876  1  0.490318  0  0.04604  0.108872  0  3.955759  0
C  C126  1  0.05439807  0.39880195  0.83448019  1  0.490227  0  0.045945  0.108757  0  3.955791  0
C  C127  1  0.44560159  0.60119866  0.33448126  1  0.490215  0  0.045951  0.10875  0  3.955817  0
C  C128  1  0.62342631  0.42012994  0.57492713  1  -0.078478  0  -0.083224  -0.168513  0  3.917717  0
C  C129  1  0.87657334  0.57986914  0.07492499  1  -0.078474  0  -0.08323  -0.168498  0  3.91775  0
C  C130  1  0.12342816  0.07987008  0.42507373  1  -0.078542  0  -0.083171  -0.168398  0  3.91766  0
C  C131  1  0.37657359  0.92012967  0.92507315  1  -0.078512  0  -0.083234  -0.168526  0  3.917862  0
C  C132  1  0.57964464  0.09352091  0.57120330  1  0.417833  0  0.042037  0.098259  0  3.984356  0
C  C133  1  0.92035739  0.90648169  0.07120123  1  0.417538  0  0.042039  0.098277  0  3.984216  0
C  C134  1  0.07964244  0.40648115  0.42879833  1  0.417808  0  0.042059  0.098252  0  3.984223  0
C  C135  1  0.42035772  0.59351930  0.92879749  1  0.417786  0  0.042048  0.098234  0  3.984265  0
C  C136  1  0.57407957  0.07066101  0.66289347  1  0.020937  0  -0.089651  -0.134129  0  3.977535  0
C  C137  1  0.92592219  0.92934074  0.16289202  1  0.020984  0  -0.089679  -0.134235  0  3.977591  0
C  C138  1  0.07407928  0.42934104  0.33710818  1  0.02101  0  -0.08967  -0.134209  0  3.977642  0
C  C139  1  0.42592117  0.57065956  0.83710736  1  0.021023  0  -0.089697  -0.134302  0  3.977699  0
C  C140  1  0.85983739  0.62807812  0.74456520  1  0.473541  0  0.051739  0.118193  0  3.930123  0
C  C141  1  0.64016175  0.37192208  0.24456392  1  0.473541  0  0.05178  0.118229  0  3.930147  0
C  C142  1  0.35983880  0.87191995  0.25543637  1  0.473572  0  0.051835  0.118337  0  3.930037  0
C  C143  1  0.14016189  0.12807727  0.75543486  1  0.473551  0  0.05174  0.118188  0  3.929972  0
C  C144  1  0.54083388  0.07137952  0.07629154  1  -0.053766  0  -0.088282  -0.129365  0  3.971569  0
C  C145  1  0.95916341  0.92861885  0.57629144  1  -0.053692  0  -0.08823  -0.129399  0  3.971591  0
C  C146  1  0.04083336  0.42862036  0.92370747  1  -0.053781  0  -0.088283  -0.129355  0  3.971644  0
C  C147  1  0.45916603  0.57138010  0.42370719  1  -0.053768  0  -0.088289  -0.129394  0  3.971686  0
C  C148  1  0.72719797  0.09114559  0.05419685  1  0.020776  0  -0.085941  -0.121799  0  3.946505  0
C  C149  1  0.77280017  0.90885352  0.55419585  1  0.020692  0  -0.086005  -0.12199  0  3.946706  0
C  C150  1  0.22719892  0.40885390  0.94580241  1  0.020798  0  -0.085884  -0.121727  0  3.946486  0
C  C151  1  0.27280277  0.59114512  0.44580185  1  0.020783  0  -0.085929  -0.121746  0  3.946572  0
C  C152  1  0.62879044  0.06584930  0.01957046  1  -0.068089  0  -0.067611  -0.024254  0  3.959397  0
C  C153  1  0.87120465  0.93414776  0.51957326  1  -0.068113  0  -0.067647  -0.024212  0  3.959403  0
C  C154  1  0.12878897  0.43414932  0.98042903  1  -0.068068  0  -0.067621  -0.024291  0  3.959355  0
C  C155  1  0.37121103  0.56584893  0.48042760  1  -0.0681  0  -0.067616  -0.024265  0  3.959402  0
N  N156  1  0.68836556  0.31498885  0.45979984  1  -1.247742  0  -0.382511  -0.342102  0  3.554362  0
N  N157  1  0.81163449  0.68500957  0.95979774  1  -1.247647  0  -0.382472  -0.341941  0  3.55421  0
N  N158  1  0.18836412  0.18500776  0.54020358  1  -1.247624  0  -0.382462  -0.341996  0  3.554122  0
N  N159  1  0.31163329  0.81498983  0.04020258  1  -1.247362  0  -0.382501  -0.342043  0  3.554224  0
N  N160  1  0.66668571  0.12997579  0.53226020  1  -1.264204  0  -0.392649  -0.350266  0  3.569695  0
N  N161  1  0.83331408  0.87002758  0.03225771  1  -1.264221  0  -0.392654  -0.350307  0  3.569423  0
N  N162  1  0.16668647  0.37002501  0.46774191  1  -1.264234  0  -0.392697  -0.350365  0  3.569422  0
N  N163  1  0.33331515  0.62997608  0.96774053  1  -1.264221  0  -0.392709  -0.350324  0  3.569404  0
N  N164  1  0.64947770  0.12453441  0.19987447  1  -1.274691  0  -0.393621  -0.344963  0  3.559055  0
N  N165  1  0.85051684  0.87546375  0.69987403  1  -1.274769  0  -0.393702  -0.344976  0  3.559176  0
N  N166  1  0.14947824  0.37546776  0.80012361  1  -1.274743  0  -0.393581  -0.34487  0  3.558916  0
N  N167  1  0.35052232  0.62453361  0.30012417  1  -1.274768  0  -0.393611  -0.34491  0  3.559038  0
N  N168  1  0.78431300  0.69118066  0.76618137  1  -1.254227  0  -0.376625  -0.337806  0  3.546867  0
N  N169  1  0.71568686  0.30881739  0.26618070  1  -1.254223  0  -0.376663  -0.337881  0  3.546838  0
N  N170  1  0.28431434  0.80881658  0.23382105  1  -1.254266  0  -0.376698  -0.337939  0  3.546931  0
N  N171  1  0.21568800  0.19118349  0.73381994  1  -1.254293  0  -0.376652  -0.337922  0  3.5469  0
Cl  Cl172  1  0.86758855  0.13691085  0.36209498  1  -0.72671  0  -0.353276  -0.608648  0  1.062444  0
Cl  Cl173  1  0.63241338  0.86309196  0.86209843  1  -0.726729  0  -0.353295  -0.608662  0  1.062435  0
Cl  Cl174  1  0.36758956  0.36309029  0.63790465  1  -0.726734  0  -0.353287  -0.608659  0  1.062466  0
Cl  Cl175  1  0.13241387  0.63691136  0.13790840  1  -0.72671  0  -0.353294  -0.608652  0  1.062466  0
Cl  Cl176  1  0.47109427  0.21706807  0.36074249  1  -0.718668  0  -0.357021  -0.600283  0  1.075068  0
Cl  Cl177  1  0.02890531  0.78293179  0.86074495  1  -0.718659  0  -0.357019  -0.600281  0  1.075111  0
Cl  Cl178  1  0.97109588  0.28293535  0.63925283  1  -0.718628  0  -0.357015  -0.600266  0  1.075049  0
Cl  Cl179  1  0.52890358  0.71706784  0.13925330  1  -0.718657  0  -0.357015  -0.600286  0  1.075091  0
Cl  Cl180  1  0.61324687  0.98954963  0.36873956  1  -0.729074  0  -0.384812  -0.63644  0  1.032107  0
Cl  Cl181  1  0.88675662  0.01045458  0.86874785  1  -0.729076  0  -0.384783  -0.636419  0  1.032065  0
Cl  Cl182  1  0.11324241  0.51045014  0.63125986  1  -0.729081  0  -0.384807  -0.636424  0  1.032088  0
Cl  Cl183  1  0.38675314  0.48954940  0.13125038  1  -0.72905  0  -0.384786  -0.636433  0  1.032112  0
