# generated using pymatgen
data_CuH3C6N2ClO4
_symmetry_space_group_name_H-M   'P 1'
_cell_length_a   7.94512402
_cell_length_b   9.39432623
_cell_length_c   10.70918121
_cell_angle_alpha   90.00019476
_cell_angle_beta   89.99991820
_cell_angle_gamma   89.99975846
_symmetry_Int_Tables_number   1
_chemical_formula_structural   CuH3C6N2ClO4
_chemical_formula_sum   'Cu4 H12 C24 N8 Cl4 O16'
_cell_volume   799.32350747
_cell_formula_units_Z   4
loop_
 _symmetry_equiv_pos_site_id
 _symmetry_equiv_pos_as_xyz
  1  'x, y, z'
loop_
 _atom_site_type_symbol
 _atom_site_label
 _atom_site_symmetry_multiplicity
 _atom_site_fract_x
 _atom_site_fract_y
 _atom_site_fract_z
 _atom_site_occupancy
 _atom_site_hle17_ddec_charge
 _atom_site_hle17_ddec_spin_density
 _atom_site_hle17_ddec_sum_bond_order
 _atom_site_hle17_magmom
 _atom_site_hse06_10hf_ddec_charge
 _atom_site_hse06_10hf_ddec_spin_density
 _atom_site_hse06_10hf_ddec_sum_bond_order
 _atom_site_hse06_10hf_magmom
 _atom_site_hse06_ddec_charge
 _atom_site_hse06_ddec_spin_density
 _atom_site_hse06_ddec_sum_bond_order
 _atom_site_hse06_magmom
 _atom_site_pbe_cm5_charge
 _atom_site_pbe_ddec_charge
 _atom_site_pbe_ddec_spin_density
 _atom_site_pbe_ddec_sum_bond_order
 _atom_site_pbe_magmom
Cu  Cu0  1  0.24807964  0.24385676  0.22420784  1  0.778565  0.656762  1.966727  0.487  0.757684  0.752642  2.378534  0.6  0.839997  0.819742  2.313439  0.689  0.701153  0.71278  0.705931  2.421248  0.544
Cu  Cu1  1  0.74808012  0.75613956  0.77579391  1  0.778554  0.656746  1.966823  0.487  0.757617  0.752615  2.378646  0.6  0.839978  0.819746  2.313559  0.689  0.70116  0.712757  0.705921  2.421348  0.544
Cu  Cu2  1  0.74808646  0.25614299  0.72420472  1  0.778752  0.656753  1.966548  0.487  0.75784  0.75262  2.378352  0.6  0.840207  0.819747  2.313269  0.689  0.701203  0.712974  0.705923  2.421066  0.544
Cu  Cu3  1  0.24808211  0.74386079  0.27579423  1  0.7787  0.65676  1.966647  0.487  0.757826  0.752643  2.378483  0.6  0.840132  0.819744  2.313368  0.689  0.701178  0.712914  0.705928  2.421185  0.544
H  H4  1  0.97149652  0.43075857  0.14327996  1  0.109496  0.001102  0.960734  0.002  0.111406  0.001143  1.031625  0.002  0.115015  0.000756  1.027764  0.001  0.11915  0.108248  0.001452  1.035502  0.002
H  H5  1  0.47150082  0.56924335  0.85672154  1  0.10939  0.001103  0.960893  0.002  0.111323  0.001143  1.031742  0.002  0.114928  0.000756  1.027884  0.001  0.119124  0.108165  0.001452  1.035611  0.002
H  H6  1  0.47150227  0.06924433  0.64327964  1  0.109372  0.001104  0.960874  0.002  0.11133  0.001143  1.031708  0.002  0.114936  0.000757  1.027851  0.001  0.119127  0.10817  0.001452  1.035575  0.002
H  H7  1  0.97150010  0.93075972  0.35672466  1  0.109374  0.001103  0.960897  0.002  0.111338  0.001143  1.031727  0.002  0.114944  0.000757  1.027867  0.001  0.119108  0.108181  0.001452  1.035597  0.002
H  H8  1  0.26396884  0.07505850  0.46346303  1  0.113276  0.001319  0.928934  0.002  0.117145  0.001341  0.992502  0.002  0.119781  0.000972  0.989523  0.002  0.127299  0.1149  0.001663  0.995262  0.002
H  H9  1  0.76397015  0.92494415  0.53654337  1  0.113333  0.001318  0.928857  0.002  0.117196  0.001341  0.992413  0.002  0.119834  0.000972  0.989432  0.002  0.127322  0.114949  0.001663  0.995172  0.002
H  H10  1  0.76397229  0.42494424  0.96345761  1  0.113328  0.001316  0.92887  0.002  0.11718  0.00134  0.992428  0.002  0.119817  0.000972  0.989447  0.002  0.127315  0.114935  0.001663  0.99519  0.002
H  H11  1  0.26397048  0.57505734  0.03654132  1  0.113284  0.001321  0.928888  0.002  0.117137  0.00134  0.992464  0.002  0.119773  0.000972  0.989484  0.002  0.127306  0.114894  0.001663  0.995224  0.002
H  H12  1  0.75797904  0.50931735  0.32599071  1  0.3883  0.000209  0.931666  0.0  0.356408  0.000324  1.005985  0.0  0.369533  0.000198  0.988184  0.0  0.294943  0.347503  0.000475  1.017954  0.001
H  H13  1  0.25798784  0.49068212  0.67400450  1  0.38818  0.000209  0.932005  0.0  0.356346  0.000324  1.006109  0.0  0.369464  0.000197  0.988322  0.0  0.294905  0.347444  0.000475  1.018068  0.001
H  H14  1  0.25798770  0.99068209  0.82599352  1  0.38817  0.000208  0.931986  0.0  0.356348  0.000324  1.0061  0.0  0.369464  0.000198  0.988318  0.0  0.294911  0.347446  0.000475  1.018059  0.001
H  H15  1  0.75798799  0.00931739  0.17400729  1  0.388177  0.000209  0.931953  0.0  0.356338  0.000324  1.006109  0.0  0.369455  0.000198  0.988325  0.0  0.294916  0.347438  0.000475  1.018069  0.001
C  C16  1  0.98736814  0.35826357  0.06495266  1  0.124693  -0.0018  3.592283  0.0  0.091154  0.001416  3.849712  0.002  0.099858  -0.000567  3.85673  0.0  0.076824  0.084932  0.002809  3.847002  0.003
C  C17  1  0.48736816  0.64173617  0.93504883  1  0.124721  -0.001786  3.592418  0.0  0.091234  0.001415  3.849774  0.002  0.099948  -0.000565  3.856791  0.0  0.076875  0.085014  0.002809  3.847054  0.003
C  C18  1  0.48736975  0.14173685  0.56495349  1  0.124828  -0.001805  3.592309  0.0  0.091281  0.001416  3.849749  0.002  0.099994  -0.000567  3.856766  0.0  0.076873  0.085062  0.002809  3.847018  0.003
C  C19  1  0.98736655  0.85826502  0.43504893  1  0.124833  -0.001812  3.592343  0.0  0.09126  0.001416  3.84976  0.002  0.099971  -0.000567  3.856777  0.0  0.07688  0.085041  0.002809  3.847044  0.003
C  C20  1  0.37619726  0.14093850  0.46442206  1  0.159649  -0.003722  3.580167  -0.002  0.127634  0.000169  3.836992  0.001  0.139574  -0.001523  3.843188  -0.001  0.085331  0.119329  0.002061  3.834164  0.002
C  C21  1  0.87619764  0.85906057  0.53558235  1  0.159637  -0.003699  3.580119  -0.002  0.127683  0.000169  3.836866  0.001  0.139623  -0.001523  3.843065  -0.001  0.085365  0.119381  0.002061  3.834036  0.002
C  C22  1  0.87619978  0.35906279  0.96441924  1  0.159625  -0.003683  3.580135  -0.002  0.127697  0.000169  3.836871  0.001  0.13964  -0.001522  3.843069  -0.001  0.085354  0.119392  0.002061  3.834048  0.002
C  C23  1  0.37619764  0.64094053  0.03558143  1  0.159727  -0.003738  3.580064  -0.002  0.127749  0.000171  3.836852  0.001  0.139689  -0.001523  3.843046  -0.001  0.085353  0.119442  0.002061  3.834025  0.002
C  C24  1  0.53668024  0.31572757  0.36542680  1  0.082676  0.00372  3.621372  0.004  0.075521  0.004062  3.867217  0.004  0.079906  0.002311  3.880218  0.002  0.137186  0.071698  0.00567  3.860344  0.005
C  C25  1  0.03668058  0.68426843  0.63457146  1  0.082706  0.003736  3.621407  0.004  0.07556  0.004062  3.867221  0.004  0.079946  0.00231  3.880225  0.002  0.137206  0.071744  0.00567  3.860339  0.005
C  C26  1  0.03668289  0.18427028  0.86542590  1  0.08273  0.003733  3.621431  0.004  0.075548  0.004063  3.867252  0.004  0.079932  0.002313  3.880258  0.002  0.137218  0.071732  0.00567  3.860367  0.005
C  C27  1  0.53668170  0.81573105  0.13457143  1  0.082733  0.003712  3.621357  0.004  0.075626  0.004064  3.867184  0.004  0.08001  0.00231  3.880188  0.002  0.137237  0.071797  0.005669  3.860311  0.005
C  C28  1  0.14138855  0.17566084  0.97112952  1  0.065937  0.000974  3.608148  0.0  0.066279  0.003076  3.845971  0.002  0.067758  0.001608  3.860783  0.001  0.135383  0.064047  0.00436  3.838038  0.003
C  C29  1  0.64138624  0.82434011  0.02886862  1  0.066142  0.001001  3.607887  0.0  0.06632  0.003075  3.845926  0.002  0.067801  0.001609  3.860743  0.001  0.135412  0.064089  0.00436  3.837994  0.003
C  C30  1  0.64138837  0.32434130  0.47112858  1  0.066061  0.001023  3.607923  0.0  0.066295  0.003075  3.845897  0.002  0.067776  0.001605  3.860713  0.001  0.135376  0.064057  0.00436  3.837963  0.003
C  C31  1  0.14138517  0.67566072  0.52886956  1  0.066065  0.001003  3.607981  0.0  0.066266  0.003076  3.846001  0.002  0.067744  0.001604  3.860819  0.001  0.135414  0.064034  0.00436  3.838072  0.003
C  C32  1  0.27481152  0.06436689  0.99945170  1  0.649425  0.001991  3.812751  0.002  0.599026  0.002059  4.111104  0.003  0.634711  0.001532  4.101342  0.002  0.236498  0.575191  0.002566  4.116934  0.003
C  C33  1  0.77481122  0.93563146  0.00055002  1  0.649156  0.002005  3.812838  0.002  0.598792  0.002057  4.11124  0.003  0.634477  0.001532  4.101483  0.002  0.236425  0.574954  0.002566  4.11707  0.003
C  C34  1  0.77480574  0.43563595  0.49945016  1  0.64946  0.001987  3.812768  0.002  0.599064  0.002058  4.111156  0.003  0.634751  0.001533  4.101393  0.002  0.23653  0.57523  0.002566  4.116986  0.003
C  C35  1  0.27481070  0.56436773  0.50054783  1  0.649452  0.002004  3.812567  0.002  0.59904  0.002058  4.111003  0.003  0.634723  0.001531  4.101245  0.002  0.236519  0.575207  0.002566  4.116837  0.003
C  C36  1  0.54971833  0.39633660  0.24269671  1  0.637293  -0.00264  3.854893  -0.002  0.587187  0.000937  4.155407  0.001  0.623188  0.000326  4.148098  0.001  0.2253  0.562495  0.001584  4.16006  0.001
C  C37  1  0.04972138  0.60365616  0.75729967  1  0.637268  -0.002628  3.855025  -0.002  0.587217  0.000936  4.155446  0.001  0.623221  0.000325  4.148132  0.001  0.22526  0.562521  0.001584  4.160089  0.001
C  C38  1  0.04972517  0.10365966  0.74269650  1  0.637348  -0.002631  3.854874  -0.002  0.587255  0.000937  4.155392  0.001  0.62326  0.000327  4.148077  0.001  0.225246  0.562559  0.001584  4.160033  0.001
C  C39  1  0.54972335  0.89634375  0.25730175  1  0.637253  -0.002629  3.854979  -0.002  0.587168  0.000937  4.155462  0.001  0.62317  0.000326  4.148154  0.001  0.225255  0.562474  0.001585  4.160115  0.001
N  N40  1  0.11412335  0.26549209  0.06770019  1  -0.224379  0.065099  3.317968  0.083  -0.180909  0.051188  3.596446  0.069  -0.203047  0.040946  3.614495  0.059  -0.316277  -0.16948  0.057049  3.588072  0.073
N  N41  1  0.61412366  0.73450683  0.93229892  1  -0.224365  0.065089  3.317871  0.083  -0.180868  0.051187  3.596377  0.069  -0.203023  0.040944  3.614446  0.059  -0.316288  -0.169444  0.057047  3.588007  0.073
N  N42  1  0.61412651  0.23450752  0.56769887  1  -0.224433  0.065096  3.31786  0.083  -0.180939  0.051189  3.596367  0.069  -0.203098  0.040947  3.614441  0.059  -0.31625  -0.169504  0.05705  3.587983  0.073
N  N43  1  0.11412302  0.76549353  0.43230024  1  -0.224447  0.065095  3.317818  0.083  -0.180942  0.051185  3.596359  0.069  -0.203085  0.040945  3.61441  0.059  -0.316283  -0.169516  0.057046  3.58799  0.073
N  N44  1  0.40331691  0.22660912  0.36751560  1  -0.240624  0.067418  3.340475  0.087  -0.200438  0.052385  3.628734  0.071  -0.224596  0.042225  3.64495  0.061  -0.323599  -0.187334  0.058479  3.621049  0.075
N  N45  1  0.90331629  0.77338559  0.63248598  1  -0.240714  0.067404  3.340507  0.087  -0.200552  0.052386  3.628746  0.071  -0.22472  0.042224  3.644979  0.061  -0.323669  -0.187457  0.058478  3.621068  0.075
N  N46  1  0.90331986  0.27338850  0.86751440  1  -0.240725  0.067403  3.340511  0.087  -0.200583  0.052388  3.628768  0.071  -0.224756  0.042224  3.645004  0.061  -0.323641  -0.187484  0.05848  3.621088  0.075
N  N47  1  0.40331585  0.72661472  0.13248531  1  -0.240752  0.067426  3.34047  0.087  -0.200629  0.052385  3.62878  0.071  -0.224783  0.042227  3.644987  0.061  -0.32367  -0.187518  0.058481  3.621088  0.075
Cl  Cl48  1  0.01683214  0.20571309  0.33834643  1  -0.480982  0.139895  0.893102  0.175  -0.505511  0.076494  1.168603  0.103  -0.541404  0.054797  1.149411  0.081  -0.308297  -0.483011  0.088927  1.18352  0.112
Cl  Cl49  1  0.51683263  0.79428830  0.66165559  1  -0.480993  0.139902  0.8931  0.175  -0.50549  0.076502  1.168592  0.103  -0.5414  0.054795  1.149413  0.081  -0.308311  -0.483012  0.088931  1.183513  0.112
Cl  Cl50  1  0.51683877  0.29428578  0.83834342  1  -0.48104  0.139902  0.89302  0.175  -0.505551  0.076501  1.168504  0.103  -0.541469  0.054796  1.149335  0.081  -0.308342  -0.483072  0.088932  1.18343  0.112
Cl  Cl51  1  0.01683356  0.70571135  0.16165673  1  -0.481043  0.139898  0.893079  0.175  -0.505556  0.076497  1.168586  0.103  -0.541451  0.054795  1.149394  0.081  -0.308318  -0.483049  0.088929  1.183493  0.112
O  O52  1  0.43471082  0.37075419  0.16345538  1  -0.545745  0.060806  2.070302  0.084  -0.516295  0.045238  2.345538  0.068  -0.555112  0.033675  2.338334  0.055  -0.303753  -0.49036  0.053578  2.351073  0.075
O  O53  1  0.93471183  0.62923722  0.83654149  1  -0.545795  0.060806  2.07033  0.084  -0.516357  0.04524  2.345555  0.068  -0.555187  0.033675  2.338359  0.055  -0.303746  -0.490426  0.05358  2.351086  0.075
O  O54  1  0.93471828  0.12924254  0.66345468  1  -0.54585  0.060804  2.07029  0.084  -0.516385  0.045235  2.345504  0.068  -0.555216  0.033671  2.338309  0.055  -0.303715  -0.490455  0.053577  2.351033  0.075
O  O55  1  0.43471192  0.87075951  0.33654219  1  -0.545805  0.060808  2.070154  0.084  -0.516386  0.045238  2.345397  0.068  -0.555203  0.033674  2.338186  0.055  -0.303765  -0.490446  0.053579  2.350931  0.075
O  O56  1  0.66986478  0.48137704  0.22132539  1  -0.542814  0.006067  2.027419  0.008  -0.49131  0.004485  2.24247  0.006  -0.516885  0.002033  2.233645  0.003  -0.292243  -0.472577  0.007318  2.247297  0.01
O  O57  1  0.16987073  0.51861849  0.77867179  1  -0.542651  0.006065  2.027591  0.008  -0.491241  0.004485  2.242628  0.006  -0.516803  0.002034  2.233789  0.003  -0.292203  -0.472537  0.007318  2.247503  0.01
O  O58  1  0.16987457  0.01861978  0.72132679  1  -0.54267  0.006066  2.027577  0.008  -0.491252  0.004485  2.242658  0.006  -0.516815  0.002033  2.23382  0.003  -0.292215  -0.472543  0.007317  2.247515  0.01
O  O59  1  0.66987354  0.98137788  0.27867225  1  -0.542634  0.006065  2.027742  0.008  -0.491192  0.004485  2.242807  0.006  -0.516756  0.002033  2.233977  0.003  -0.292174  -0.472474  0.007317  2.24766  0.01
O  O60  1  0.31843606  0.97174838  0.91574449  1  -0.521799  0.000771  2.130108  0.002  -0.470034  0.000671  2.342544  0.001  -0.49426  0.000152  2.329451  0.001  -0.308942  -0.452845  0.001563  2.350592  0.003
O  O61  1  0.81843642  0.02824982  0.08425812  1  -0.521699  0.000768  2.130198  0.002  -0.469911  0.000671  2.342624  0.001  -0.494138  0.000152  2.329534  0.001  -0.308903  -0.452722  0.001563  2.350669  0.003
O  O62  1  0.81842731  0.52825225  0.41574079  1  -0.521914  0.000772  2.129997  0.002  -0.470061  0.000671  2.342457  0.001  -0.494289  0.000152  2.329359  0.001  -0.309002  -0.452873  0.001563  2.350508  0.003
O  O63  1  0.31843636  0.47175021  0.58425621  1  -0.521804  0.000769  2.130098  0.002  -0.47  0.000671  2.342484  0.001  -0.494225  0.000153  2.329391  0.001  -0.308946  -0.452809  0.001562  2.350534  0.003
O  O64  1  0.33380574  0.06180607  0.10700622  1  -0.552985  0.001993  2.054458  0.005  -0.524984  0.002378  2.319441  0.005  -0.554052  0.000816  2.308829  0.004  -0.28597  -0.505546  0.004518  2.326724  0.008
O  O65  1  0.83380886  0.93819207  0.89299544  1  -0.552903  0.001987  2.054419  0.005  -0.52489  0.002381  2.319388  0.005  -0.553965  0.000817  2.308785  0.004  -0.28596  -0.505458  0.004519  2.326666  0.008
O  O66  1  0.83379905  0.43819718  0.60700551  1  -0.553029  0.001989  2.05446  0.005  -0.525019  0.00238  2.319429  0.005  -0.554098  0.000817  2.308825  0.004  -0.285971  -0.505591  0.004518  2.326722  0.008
O  O67  1  0.33380800  0.56180842  0.39299241  1  -0.553079  0.001979  2.05443  0.005  -0.525028  0.002379  2.319413  0.005  -0.554092  0.000818  2.308796  0.004  -0.285988  -0.50558  0.004518  2.326679  0.008
