# generated using pymatgen
data_CdH18C22(N2O3)2
_symmetry_space_group_name_H-M   'P 1'
_cell_length_a   9.46663436
_cell_length_b   9.70248345
_cell_length_c   11.13006354
_cell_angle_alpha   90.00002560
_cell_angle_beta   90.00000605
_cell_angle_gamma   104.17448383
_symmetry_Int_Tables_number   1
_chemical_formula_structural   CdH18C22(N2O3)2
_chemical_formula_sum   'Cd2 H36 C44 N8 O12'
_cell_volume   991.17053590
_cell_formula_units_Z   2
loop_
 _symmetry_equiv_pos_site_id
 _symmetry_equiv_pos_as_xyz
  1  'x, y, z'
loop_
 _atom_site_type_symbol
 _atom_site_label
 _atom_site_symmetry_multiplicity
 _atom_site_fract_x
 _atom_site_fract_y
 _atom_site_fract_z
 _atom_site_occupancy
 _atom_site_hle17_bader_spin_density
 _atom_site_hle17_ddec_charge
 _atom_site_hle17_ddec_spin_density
 _atom_site_hle17_ddec_sum_bond_order
 _atom_site_hle17_magmom
 _atom_site_hse06_10hf_bader_spin_density
 _atom_site_hse06_10hf_ddec_charge
 _atom_site_hse06_10hf_ddec_spin_density
 _atom_site_hse06_10hf_ddec_sum_bond_order
 _atom_site_hse06_10hf_magmom
 _atom_site_hse06_bader_spin_density
 _atom_site_hse06_ddec_charge
 _atom_site_hse06_ddec_spin_density
 _atom_site_hse06_ddec_sum_bond_order
 _atom_site_hse06_magmom
 _atom_site_pbe_bader_spin_density
 _atom_site_pbe_cm5_charge
 _atom_site_pbe_ddec_charge
 _atom_site_pbe_ddec_spin_density
 _atom_site_pbe_ddec_sum_bond_order
 _atom_site_pbe_magmom
Cd  Cd0  1  0.49999941  0.99999879  0.49999917  1  0  1.189429  0  1.598493  0  0  1.002069  0  2.045939  0  0  1.058711  0  1.990657  0  0  0.769812  0.962485  0  2.08349  0
Cd  Cd1  1  0.49999952  0.50000011  0.00000013  1  0  1.189401  0  1.598475  0  0  1.002061  0  2.045871  0  0  1.058702  0  1.990596  0  0  0.769816  0.962475  0  2.083398  0
H  H2  1  0.06499846  0.98447126  0.30363998  1  0  0.092514  0  1.003604  0  0  0.101106  0  1.074088  0  0  0.103761  0  1.072766  0  0  0.098629  0.099553  0  1.074444  0
H  H3  1  0.93500531  0.51552993  0.80364246  1  0  0.092509  0  1.003581  0  0  0.101104  0  1.074076  0  0  0.103757  0  1.072753  0  0  0.098635  0.099548  0  1.074435  0
H  H4  1  0.93500415  0.01553030  0.69635726  1  0  0.092525  0  1.003571  0  0  0.101113  0  1.074069  0  0  0.103768  0  1.072745  0  0  0.098634  0.099557  0  1.074423  0
H  H5  1  0.06499307  0.48447163  0.19635927  1  0  0.092562  0  1.003464  0  0  0.101146  0  1.073966  0  0  0.103801  0  1.072639  0  0  0.098674  0.099591  0  1.074324  0
H  H6  1  0.80792027  0.76800878  0.00882135  1  0  0.106756  0  0.96285  0  0  0.11521  0  1.027774  0  0  0.118353  0  1.025675  0  0  0.104441  0.112543  0  1.030019  0
H  H7  1  0.19207972  0.73199012  0.50882115  1  0  0.106718  0  0.962881  0  0  0.115192  0  1.027781  0  0  0.118331  0  1.025688  0  0  0.104439  0.112525  0  1.030032  0
H  H8  1  0.19208023  0.23199277  0.99117769  1  0  0.106749  0  0.962851  0  0  0.115215  0  1.02775  0  0  0.118356  0  1.025652  0  0  0.104436  0.112546  0  1.030002  0
H  H9  1  0.80791839  0.26800612  0.49117878  1  0  0.106731  0  0.962878  0  0  0.115181  0  1.027809  0  0  0.118322  0  1.025711  0  0  0.104427  0.112513  0  1.030056  0
H  H10  1  0.99037274  0.63036507  0.97400360  1  0  0.08608  0  0.978554  0  0  0.095714  0  1.044864  0  0  0.098179  0  1.044298  0  0  0.096567  0.094207  0  1.044862  0
H  H11  1  0.00962472  0.86963196  0.47400286  1  0  0.086058  0  0.978469  0  0  0.095683  0  1.044805  0  0  0.09815  0  1.044237  0  0  0.096534  0.094179  0  1.044799  0
H  H12  1  0.00962564  0.36963223  0.02599633  1  0  0.086027  0  0.97853  0  0  0.095653  0  1.044868  0  0  0.098119  0  1.044302  0  0  0.096522  0.094145  0  1.044862  0
H  H13  1  0.99037392  0.13036641  0.52599617  1  0  0.086059  0  0.978535  0  0  0.095681  0  1.044862  0  0  0.098148  0  1.044292  0  0  0.09656  0.094177  0  1.044855  0
H  H14  1  0.21075790  0.66537405  0.10637241  1  0  0.099855  0  0.983288  0  0  0.106886  0  1.052768  0  0  0.110948  0  1.048895  0  0  0.103536  0.103585  0  1.056262  0
H  H15  1  0.78924026  0.83462171  0.60637411  1  0  0.099878  0  0.983219  0  0  0.106886  0  1.052735  0  0  0.110947  0  1.048859  0  0  0.103527  0.103589  0  1.056223  0
H  H16  1  0.78924021  0.33462219  0.89362753  1  0  0.099867  0  0.98321  0  0  0.106875  0  1.052727  0  0  0.11094  0  1.048841  0  0  0.103518  0.103577  0  1.056216  0
H  H17  1  0.21075945  0.16538091  0.39362942  1  0  0.09979  0  0.983342  0  0  0.106849  0  1.052786  0  0  0.110914  0  1.048926  0  0  0.103498  0.103552  0  1.056278  0
H  H18  1  0.78319906  0.02309988  0.99891527  1  0  0.082915  0  0.943276  0  0  0.091998  0  1.00649  0  0  0.093466  0  1.006089  0  0  0.119333  0.09099  0  1.006619  0
H  H19  1  0.21680141  0.47690221  0.49891550  1  0  0.082923  0  0.943265  0  0  0.092003  0  1.006485  0  0  0.09347  0  1.006084  0  0  0.119335  0.090997  0  1.006618  0
H  H20  1  0.21680566  0.97690168  0.00108286  1  0  0.082889  0  0.94323  0  0  0.091963  0  1.006487  0  0  0.093431  0  1.006085  0  0  0.119325  0.090958  0  1.006617  0
H  H21  1  0.78319539  0.52310147  0.50108533  1  0  0.082903  0  0.943351  0  0  0.091993  0  1.006561  0  0  0.093461  0  1.00616  0  0  0.119337  0.090985  0  1.006693  0
H  H22  1  0.50696880  0.14640727  0.24162222  1  0  0.083764  0  0.977269  0  0  0.092152  0  1.040944  0  0  0.094479  0  1.038068  0  0  0.132555  0.090478  0  1.042994  0
H  H23  1  0.49303345  0.35359362  0.74162120  1  0  0.083752  0  0.977246  0  0  0.092132  0  1.040939  0  0  0.094459  0  1.038064  0  0  0.132547  0.090463  0  1.04298  0
H  H24  1  0.49303195  0.85359110  0.75837592  1  0  0.083847  0  0.9772  0  0  0.092227  0  1.040882  0  0  0.094554  0  1.038006  0  0  0.132591  0.090555  0  1.042923  0
H  H25  1  0.50696731  0.64640900  0.25837694  1  0  0.083854  0  0.977208  0  0  0.092236  0  1.040898  0  0  0.094564  0  1.038021  0  0  0.132587  0.090562  0  1.042943  0
H  H26  1  0.79191271  0.91917990  0.37564229  1  0  0.086828  0  0.923607  0  0  0.09845  0  0.985435  0  0  0.100302  0  0.983717  0  0  0.123469  0.096884  0  0.987093  0
H  H27  1  0.20808737  0.58081920  0.87564293  1  0  0.086813  0  0.923595  0  0  0.098438  0  0.985419  0  0  0.10029  0  0.983699  0  0  0.12347  0.09688  0  0.987067  0
H  H28  1  0.20808804  0.08081846  0.62435585  1  0  0.086818  0  0.923587  0  0  0.09844  0  0.98543  0  0  0.100293  0  0.98371  0  0  0.12347  0.096881  0  0.987082  0
H  H29  1  0.79190995  0.41917810  0.12435970  1  0  0.086795  0  0.923611  0  0  0.098416  0  0.985439  0  0  0.100272  0  0.983715  0  0  0.123462  0.096823  0  0.987124  0
H  H30  1  0.55948894  0.74533871  0.61911704  1  0  0.412953  0  0.898332  0  0  0.381471  0  0.965001  0  0  0.392641  0  0.948814  0  0  0.280055  0.373544  0  0.976454  0
H  H31  1  0.44051583  0.75466238  0.11911720  1  0  0.412957  0  0.898331  0  0  0.381479  0  0.964992  0  0  0.392647  0  0.948808  0  0  0.280079  0.373551  0  0.976448  0
H  H32  1  0.44050917  0.25465753  0.38088200  1  0  0.412971  0  0.898299  0  0  0.381492  0  0.964965  0  0  0.392662  0  0.94878  0  0  0.280069  0.373569  0  0.976419  0
H  H33  1  0.55948810  0.24534024  0.88088184  1  0  0.41297  0  0.898305  0  0  0.381492  0  0.964966  0  0  0.392663  0  0.948778  0  0  0.280068  0.373565  0  0.97642  0
H  H34  1  0.55898399  0.70351916  0.48247720  1  0  0.386359  0  0.93215  0  0  0.344375  0  1.015173  0  0  0.355958  0  0.998614  0  0  0.274949  0.336325  0  1.026626  0
H  H35  1  0.44102088  0.79648213  0.98247795  1  0  0.386342  0  0.932181  0  0  0.34435  0  1.015215  0  0  0.35593  0  0.99866  0  0  0.274942  0.336297  0  1.026672  0
H  H36  1  0.44101703  0.29648027  0.51752094  1  0  0.386386  0  0.932114  0  0  0.344407  0  1.015131  0  0  0.35599  0  0.998572  0  0  0.274973  0.336357  0  1.026585  0
H  H37  1  0.55898385  0.20351943  0.01752198  1  0  0.386356  0  0.932153  0  0  0.344377  0  1.015169  0  0  0.35596  0  0.99861  0  0  0.274957  0.336326  0  1.026625  0
C  C38  1  0.28767793  0.85412637  0.28977302  1  0  0.646285  0  3.918828  0  0  0.595989  0  4.211518  0  0  0.630353  0  4.204599  0  0  0.202753  0.572561  0  4.215791  0
C  C39  1  0.71232398  0.64587163  0.78977374  1  0  0.646338  0  3.918541  0  0  0.596041  0  4.211237  0  0  0.6304  0  4.204322  0  0  0.202784  0.572606  0  4.215509  0
C  C40  1  0.71232389  0.14587200  0.71022602  1  0  0.646318  0  3.918563  0  0  0.596016  0  4.211255  0  0  0.630383  0  4.204343  0  0  0.202813  0.572592  0  4.215518  0
C  C41  1  0.28767598  0.35412780  0.21022710  1  0  0.646202  0  3.918731  0  0  0.595967  0  4.211366  0  0  0.630329  0  4.204448  0  0  0.202766  0.572545  0  4.215628  0
C  C42  1  0.15224987  0.82862653  0.21275727  1  0  -0.061966  0  3.74735  0  0  -0.035077  0  3.975328  0  0  -0.043105  0  3.998527  0  0  -0.021545  -0.030128  0  3.959919  0
C  C43  1  0.84775149  0.67137355  0.71275981  1  0  -0.061977  0  3.747341  0  0  -0.035103  0  3.975346  0  0  -0.043121  0  3.998532  0  0  -0.021544  -0.030155  0  3.959938  0
C  C44  1  0.84775063  0.17137503  0.78724176  1  0  -0.061964  0  3.747344  0  0  -0.035056  0  3.975297  0  0  -0.043097  0  3.99851  0  0  -0.021533  -0.030111  0  3.959887  0
C  C45  1  0.15224927  0.32862907  0.28724462  1  0  -0.062052  0  3.747172  0  0  -0.035223  0  3.97523  0  0  -0.043247  0  3.998428  0  0  -0.021597  -0.030277  0  3.959825  0
C  C46  1  0.04708165  0.90532768  0.23244630  1  0  -0.117646  0  3.71224  0  0  -0.148497  0  3.955523  0  0  -0.148978  0  3.976063  0  0  -0.085238  -0.148238  0  3.941636  0
C  C47  1  0.95291999  0.59467347  0.73244882  1  0  -0.11768  0  3.712219  0  0  -0.148548  0  3.955527  0  0  -0.149032  0  3.976067  0  0  -0.085284  -0.148286  0  3.941642  0
C  C48  1  0.95291885  0.09467387  0.76755274  1  0  -0.117665  0  3.712179  0  0  -0.148526  0  3.955457  0  0  -0.149004  0  3.976002  0  0  -0.085263  -0.148259  0  3.941565  0
C  C49  1  0.04707893  0.40533021  0.26755561  1  0  -0.117655  0  3.712053  0  0  -0.148494  0  3.955355  0  0  -0.148977  0  3.975893  0  0  -0.085272  -0.148228  0  3.941464  0
C  C50  1  0.92301266  0.88492509  0.15952582  1  0  0.044811  0  3.818777  0  0  0.06037  0  4.052555  0  0  0.059337  0  4.078781  0  0  -0.012705  0.060653  0  4.035279  0
C  C51  1  0.07698975  0.61507496  0.65952646  1  0  0.04479  0  3.818798  0  0  0.06037  0  4.05256  0  0  0.059336  0  4.078786  0  0  -0.012663  0.06066  0  4.035286  0
C  C52  1  0.07698969  0.11507540  0.84047322  1  0  0.044811  0  3.818797  0  0  0.060388  0  4.05255  0  0  0.059354  0  4.078777  0  0  -0.012678  0.06067  0  4.03528  0
C  C53  1  0.92300942  0.38492553  0.34047617  1  0  0.044876  0  3.818819  0  0  0.060447  0  4.052547  0  0  0.059412  0  4.078776  0  0  -0.012656  0.060728  0  4.03528  0
C  C54  1  0.90538186  0.78729807  0.06448411  1  0  -0.09497  0  3.71632  0  0  -0.120522  0  3.968754  0  0  -0.121072  0  3.989069  0  0  -0.086017  -0.119144  0  3.954592  0
C  C55  1  0.09461815  0.71270086  0.56448390  1  0  -0.094925  0  3.716358  0  0  -0.1205  0  3.968808  0  0  -0.121048  0  3.989124  0  0  -0.086028  -0.119126  0  3.954654  0
C  C56  1  0.09461916  0.21270136  0.93551582  1  0  -0.094921  0  3.716284  0  0  -0.120469  0  3.968717  0  0  -0.121017  0  3.989033  0  0  -0.085948  -0.119098  0  3.954568  0
C  C57  1  0.90538076  0.28729857  0.43551873  1  0  -0.094959  0  3.716382  0  0  -0.120518  0  3.968796  0  0  -0.121068  0  3.98911  0  0  -0.086026  -0.119142  0  3.954642  0
C  C58  1  0.00844323  0.70859018  0.04606008  1  0  -0.081244  0  3.785312  0  0  -0.094845  0  4.044278  0  0  -0.098592  0  4.066314  0  0  -0.09719  -0.09244  0  4.028519  0
C  C59  1  0.99155439  0.79140768  0.54606088  1  0  -0.081246  0  3.785248  0  0  -0.094847  0  4.044221  0  0  -0.098595  0  4.066256  0  0  -0.097177  -0.092443  0  4.028463  0
C  C60  1  0.99155568  0.29140925  0.95393806  1  0  -0.081239  0  3.785253  0  0  -0.094845  0  4.044236  0  0  -0.098595  0  4.066273  0  0  -0.097208  -0.092435  0  4.028472  0
C  C61  1  0.00844373  0.20859281  0.45394085  1  0  -0.081294  0  3.785337  0  0  -0.09488  0  4.044293  0  0  -0.098627  0  4.066328  0  0  -0.097215  -0.092477  0  4.028534  0
C  C62  1  0.13093226  0.72810118  0.11973981  1  0  -0.086742  0  3.74951  0  0  -0.111272  0  3.997076  0  0  -0.11103  0  4.016585  0  0  -0.088376  -0.110846  0  3.983795  0
C  C63  1  0.86906749  0.77189673  0.61974150  1  0  -0.086711  0  3.749421  0  0  -0.111213  0  3.996979  0  0  -0.110976  0  4.016492  0  0  -0.088332  -0.110788  0  3.983691  0
C  C64  1  0.86906770  0.27189826  0.88025922  1  0  -0.086743  0  3.749445  0  0  -0.11127  0  3.997034  0  0  -0.111024  0  4.016551  0  0  -0.088372  -0.110848  0  3.983748  0
C  C65  1  0.13093354  0.22810696  0.38026203  1  0  -0.086571  0  3.749358  0  0  -0.111092  0  3.996892  0  0  -0.110868  0  4.016415  0  0  -0.088285  -0.11067  0  3.983618  0
C  C66  1  0.80916612  0.96104233  0.18353917  1  0  -0.031136  0  3.752361  0  0  -0.009315  0  3.98431  0  0  -0.0177  0  4.009242  0  0  0.007164  -0.004093  0  3.968308  0
C  C67  1  0.19083682  0.53895986  0.68353889  1  0  -0.031103  0  3.752367  0  0  -0.009293  0  3.984301  0  0  -0.017677  0  4.009233  0  0  0.00716  -0.004079  0  3.968313  0
C  C68  1  0.19083622  0.03895816  0.81646076  1  0  -0.03119  0  3.752319  0  0  -0.009354  0  3.984284  0  0  -0.01774  0  4.009218  0  0  0.00715  -0.004131  0  3.968289  0
C  C69  1  0.80916262  0.46104170  0.31646284  1  0  -0.031269  0  3.75257  0  0  -0.009405  0  3.984467  0  0  -0.017791  0  4.009403  0  0  0.007124  -0.004186  0  3.968466  0
C  C70  1  0.74670575  0.02539084  0.09174076  1  0  0.150546  0  3.640697  0  0  0.11013  0  3.892537  0  0  0.120376  0  3.907095  0  0  0.077485  0.103638  0  3.882473  0
C  C71  1  0.25329542  0.47460997  0.59174067  1  0  0.150506  0  3.640699  0  0  0.11008  0  3.892537  0  0  0.120326  0  3.907095  0  0  0.077475  0.103588  0  3.882484  0
C  C72  1  0.25329766  0.97460966  0.90825828  1  0  0.150668  0  3.64058  0  0  0.110211  0  3.892478  0  0  0.120458  0  3.907033  0  0  0.077509  0.103712  0  3.882425  0
C  C73  1  0.74670191  0.52539159  0.40826017  1  0  0.150671  0  3.640874  0  0  0.110204  0  3.892729  0  0  0.120449  0  3.907289  0  0  0.077517  0.10371  0  3.882673  0
C  C74  1  0.59447001  0.09362223  0.22623685  1  0  0.291581  0  3.677417  0  0  0.237667  0  3.944351  0  0  0.252082  0  3.957339  0  0  0.181278  0.227843  0  3.936642  0
C  C75  1  0.40553013  0.40637865  0.72623585  1  0  0.291552  0  3.677437  0  0  0.23762  0  3.944388  0  0  0.252033  0  3.957378  0  0  0.181256  0.227794  0  3.936671  0
C  C76  1  0.40553101  0.90637720  0.77376218  1  0  0.291489  0  3.677545  0  0  0.237589  0  3.944442  0  0  0.252002  0  3.957427  0  0  0.181272  0.22777  0  3.936718  0
C  C77  1  0.59446799  0.59362185  0.27376229  1  0  0.291413  0  3.677586  0  0  0.237481  0  3.944514  0  0  0.251894  0  3.957501  0  0  0.181209  0.227656  0  3.936797  0
C  C78  1  0.75267581  0.96902952  0.29882962  1  0  0.142887  0  3.645988  0  0  0.100621  0  3.898622  0  0  0.11055  0  3.915602  0  0  0.073976  0.093674  0  3.887687  0
C  C79  1  0.24732426  0.53096955  0.79882934  1  0  0.142903  0  3.645975  0  0  0.100656  0  3.898569  0  0  0.110586  0  3.915545  0  0  0.073999  0.093706  0  3.887631  0
C  C80  1  0.24732522  0.03096992  0.70116942  1  0  0.142984  0  3.645811  0  0  0.100705  0  3.898458  0  0  0.110634  0  3.915436  0  0  0.074044  0.093754  0  3.887525  0
C  C81  1  0.75267306  0.46902776  0.20117149  1  0  0.142994  0  3.645911  0  0  0.100726  0  3.898514  0  0  0.11065  0  3.915492  0  0  0.074034  0.093802  0  3.887581  0
N  N82  1  0.64249867  0.09399331  0.11330309  1  0  -0.336138  0  3.107255  0  0  -0.273661  0  3.363806  0  0  -0.290693  0  3.3767  0  0  -0.299496  -0.261853  0  3.354928  0
N  N83  1  0.35750303  0.40600963  0.61330298  1  0  -0.336095  0  3.107292  0  0  -0.273603  0  3.363828  0  0  -0.290638  0  3.376725  0  0  -0.299486  -0.261799  0  3.354953  0
N  N84  1  0.35750394  0.90600824  0.88669595  1  0  -0.336225  0  3.107414  0  0  -0.273715  0  3.363948  0  0  -0.290747  0  3.37684  0  0  -0.299553  -0.261908  0  3.355065  0
N  N85  1  0.64249457  0.59399299  0.38669696  1  0  -0.33623  0  3.107416  0  0  -0.273705  0  3.363951  0  0  -0.290739  0  3.376846  0  0  -0.299535  -0.261894  0  3.355062  0
N  N86  1  0.64477140  0.03298068  0.31986344  1  0  -0.360151  0  3.224192  0  0  -0.283774  0  3.496012  0  0  -0.306091  0  3.512814  0  0  -0.317524  -0.26936  0  3.485201  0
N  N87  1  0.35523088  0.46702025  0.81986246  1  0  -0.360125  0  3.224209  0  0  -0.283762  0  3.496028  0  0  -0.306079  0  3.512828  0  0  -0.317537  -0.269344  0  3.485209  0
N  N88  1  0.35523068  0.96701875  0.68013560  1  0  -0.360187  0  3.224184  0  0  -0.283819  0  3.496034  0  0  -0.306136  0  3.512833  0  0  -0.317595  -0.269406  0  3.485223  0
N  N89  1  0.64476671  0.53297812  0.18013748  1  0  -0.360074  0  3.224158  0  0  -0.283702  0  3.495986  0  0  -0.306017  0  3.512786  0  0  -0.317509  -0.269285  0  3.485152  0
O  O90  1  0.51753831  0.76242873  0.53977068  1  0  -0.847157  0  1.890737  0  0  -0.789487  0  2.102959  0  0  -0.811145  0  2.067626  0  0  -0.598808  -0.773672  0  2.128021  0
O  O91  1  0.48246804  0.73757445  0.03977084  1  0  -0.847136  0  1.890693  0  0  -0.789453  0  2.102899  0  0  -0.811127  0  2.067616  0  0  -0.59882  -0.773633  0  2.127959  0
O  O92  1  0.48246034  0.23756964  0.46022925  1  0  -0.847207  0  1.890695  0  0  -0.789535  0  2.102888  0  0  -0.811188  0  2.067552  0  0  -0.598823  -0.773719  0  2.127938  0
O  O93  1  0.51753695  0.26242817  0.96023000  1  0  -0.847167  0  1.890717  0  0  -0.789498  0  2.102912  0  0  -0.811162  0  2.067586  0  0  -0.598823  -0.773681  0  2.127972  0
O  O94  1  0.29277277  0.93674086  0.38048141  1  0  -0.657075  0  1.998353  0  0  -0.587071  0  2.252287  0  0  -0.617074  0  2.241735  0  0  -0.330867  -0.566369  0  2.259097  0
O  O95  1  0.70722705  0.56325718  0.88048210  1  0  -0.657055  0  1.99829  0  0  -0.587051  0  2.252222  0  0  -0.617052  0  2.241667  0  0  -0.330863  -0.566348  0  2.259027  0
O  O96  1  0.70722693  0.06325751  0.61951762  1  0  -0.657052  0  1.998301  0  0  -0.587048  0  2.252235  0  0  -0.617051  0  2.241681  0  0  -0.330862  -0.566349  0  2.259041  0
O  O97  1  0.29277107  0.43674331  0.11951874  1  0  -0.657048  0  1.998324  0  0  -0.587055  0  2.252225  0  0  -0.617055  0  2.24167  0  0  -0.330846  -0.566353  0  2.259027  0
O  O98  1  0.38684871  0.79374156  0.26068243  1  0  -0.634635  0  1.998273  0  0  -0.579668  0  2.222465  0  0  -0.604662  0  2.21458  0  0  -0.323333  -0.56159  0  2.227107  0
O  O99  1  0.61315213  0.70625642  0.76068316  1  0  -0.634677  0  1.998028  0  0  -0.579696  0  2.222211  0  0  -0.604689  0  2.214325  0  0  -0.323354  -0.561621  0  2.226856  0
O  O100  1  0.61315125  0.20625788  0.73931661  1  0  -0.63468  0  1.998044  0  0  -0.579703  0  2.222233  0  0  -0.604699  0  2.214344  0  0  -0.323395  -0.561632  0  2.226876  0
O  O101  1  0.38684439  0.29373769  0.23931677  1  0  -0.634544  0  1.99815  0  0  -0.579627  0  2.222344  0  0  -0.604622  0  2.214458  0  0  -0.323363  -0.561553  0  2.226985  0
