# generated using pymatgen
data_LiH24C23N4OF9
_symmetry_space_group_name_H-M   'P 1'
_cell_length_a   8.65644049
_cell_length_b   9.39635818
_cell_length_c   16.64700000
_cell_angle_alpha   90.00000000
_cell_angle_beta   90.00000000
_cell_angle_gamma   114.44417881
_symmetry_Int_Tables_number   1
_chemical_formula_structural   LiH24C23N4OF9
_chemical_formula_sum   'Li2 H48 C46 N8 O2 F18'
_cell_volume   1232.68007519
_cell_formula_units_Z   2
loop_
 _symmetry_equiv_pos_site_id
 _symmetry_equiv_pos_as_xyz
  1  'x, y, z'
loop_
 _atom_site_type_symbol
 _atom_site_label
 _atom_site_symmetry_multiplicity
 _atom_site_fract_x
 _atom_site_fract_y
 _atom_site_fract_z
 _atom_site_occupancy
 _atom_site_hle17_bader_spin_density
 _atom_site_hle17_ddec_charge
 _atom_site_hle17_ddec_spin_density
 _atom_site_hle17_ddec_sum_bond_order
 _atom_site_hle17_magmom
 _atom_site_hse06_10hf_bader_spin_density
 _atom_site_hse06_10hf_ddec_charge
 _atom_site_hse06_10hf_ddec_spin_density
 _atom_site_hse06_10hf_ddec_sum_bond_order
 _atom_site_hse06_10hf_magmom
 _atom_site_hse06_bader_spin_density
 _atom_site_hse06_ddec_charge
 _atom_site_hse06_ddec_spin_density
 _atom_site_hse06_ddec_sum_bond_order
 _atom_site_hse06_magmom
 _atom_site_pbe_bader_charge
 _atom_site_pbe_bader_spin_density
 _atom_site_pbe_cm5_charge
 _atom_site_pbe_ddec_charge
 _atom_site_pbe_ddec_spin_density
 _atom_site_pbe_ddec_sum_bond_order
 _atom_site_pbe_magmom
Li  Li0  1  0.97634611  0.22895298  0.78581787  1  0  0.793497  0  0.474835  0  0  0.715149  0  0.622464  0  0  0.72776  0  0.605611  0  0.875078  0  0.465996  0.706447  0  0.633969  0
Li  Li1  1  0.02365293  0.77104651  0.28581847  1  0  0.793501  0  0.474865  0  0  0.715155  0  0.622483  0  0  0.727764  0  0.60563  0  0.875084  0  0.46601  0.706046  0  0.634519  0
H  H2  1  0.11721474  0.93785630  0.91750466  1  0  0.054883  0  0.932304  0  0  0.067571  0  1.001069  0  0  0.0689  0  0.999736  0  0.025809  0  0.089899  0.06638  0  1.002556  0
H  H3  1  0.88278651  0.06214553  0.41750405  1  0  0.054873  0  0.932335  0  0  0.067555  0  1.001109  0  0  0.06888  0  0.999781  0  0.025807  0  0.089889  0.066364  0  1.002572  0
H  H4  1  0.96243921  0.88991095  0.84067940  1  0  0.063059  0  0.938343  0  0  0.084192  0  0.994244  0  0  0.084179  0  0.994953  0  0.016734  0  0.106801  0.084078  0  0.994028  0
H  H5  1  0.03756088  0.11009088  0.34067940  1  0  0.063053  0  0.938351  0  0  0.084183  0  0.994251  0  0  0.084172  0  0.99496  0  0.016716  0  0.106798  0.08407  0  0.994016  0
H  H6  1  0.26431065  0.97716604  0.79049198  1  0  0.044003  0  0.924857  0  0  0.061388  0  0.989774  0  0  0.061235  0  0.990613  0  0.026244  0  0.08843  0.061622  0  0.989033  0
H  H7  1  0.73569007  0.02283463  0.29049198  1  0  0.043988  0  0.92487  0  0  0.061365  0  0.989785  0  0  0.061212  0  0.990626  0  0.026235  0  0.088423  0.061598  0  0.989022  0
H  H8  1  0.31277661  0.16405790  0.83229771  1  0  0.061944  0  0.942678  0  0  0.081897  0  1.001253  0  0  0.081617  0  1.002397  0  0.036525  0  0.10629  0.081986  0  1.000589  0
H  H9  1  0.68722464  0.83594394  0.33229771  1  0  0.061956  0  0.942619  0  0  0.081889  0  1.001211  0  0  0.081609  0  1.002357  0  0.03655  0  0.106293  0.081916  0  1.000693  0
H  H10  1  0.24649805  0.27634772  0.92694119  1  0  0.079948  0  0.976768  0  0  0.097879  0  1.045495  0  0  0.098686  0  1.045413  0  0.060985  0  0.093105  0.097229  0  1.045631  0
H  H11  1  0.75350372  0.72365528  0.42694179  1  0  0.079965  0  0.976723  0  0  0.097894  0  1.045463  0  0  0.098701  0  1.045381  0  0.061009  0  0.093106  0.096917  0  1.046274  0
H  H12  1  0.14502104  0.14896224  0.00873791  1  0  0.073947  0  0.932652  0  0  0.094749  0  0.996917  0  0  0.096022  0  0.996039  0  0.019063  0  0.085287  0.093881  0  0.997423  0
H  H13  1  0.85498125  0.85104194  0.50873851  1  0  0.073959  0  0.932637  0  0  0.094756  0  0.996908  0  0  0.096029  0  0.996028  0  0.01903  0  0.085292  0.093887  0  0.997399  0
H  H14  1  0.07217663  0.29203257  0.97604013  1  0  0.091547  0  0.962544  0  0  0.109009  0  1.03257  0  0  0.109562  0  1.033424  0  0.057668  0  0.097377  0.108576  0  1.032077  0
H  H15  1  0.92782514  0.70797043  0.47604013  1  0  0.091578  0  0.962566  0  0  0.109059  0  1.032573  0  0  0.109613  0  1.033425  0  0.057694  0  0.097385  0.108575  0  1.032201  0
H  H16  1  0.79347116  0.09971927  0.96112453  1  0  0.09695  0  0.9536  0  0  0.112355  0  1.023189  0  0  0.114107  0  1.021805  0  0.079806  0  0.097827  0.111021  0  1.024387  0
H  H17  1  0.20653061  0.90028374  0.46112393  1  0  0.096968  0  0.953589  0  0  0.112382  0  1.023155  0  0  0.114133  0  1.02177  0  0.079829  0  0.097832  0.111048  0  1.024331  0
H  H18  1  0.85263410  0.94655270  0.99114435  1  0  0.073189  0  0.937341  0  0  0.092994  0  1.004785  0  0  0.094094  0  1.004555  0  0.005181  0  0.083699  0.092181  0  1.005078  0
H  H19  1  0.14736830  0.05344913  0.49114375  1  0  0.073209  0  0.937297  0  0  0.093004  0  1.004755  0  0  0.094105  0  1.004521  0  0.005182  0  0.083701  0.092191  0  1.005036  0
H  H20  1  0.74875837  0.93524586  0.89715024  1  0  0.082614  0  0.973818  0  0  0.096418  0  1.049866  0  0  0.097219  0  1.049689  0  0.028144  0  0.091641  0.095796  0  1.050103  0
H  H21  1  0.25124172  0.06475597  0.39714964  1  0  0.082625  0  0.973798  0  0  0.09642  0  1.049866  0  0  0.09722  0  1.049689  0  0.028031  0  0.091629  0.095805  0  1.050081  0
H  H22  1  0.99777585  0.02166443  0.63207785  1  0  0.091574  0  0.970504  0  0  0.107883  0  1.039292  0  0  0.109158  0  1.038486  0  0.028172  0  0.095644  0.10699  0  1.03973  0
H  H23  1  0.00222435  0.97833507  0.13207785  1  0  0.091595  0  0.97046  0  0  0.107878  0  1.039281  0  0  0.10915  0  1.03848  0  0.028157  0  0.095655  0.106983  0  1.039705  0
H  H24  1  0.93735997  0.89737520  0.71691536  1  0  0.086037  0  0.970189  0  0  0.103503  0  1.035787  0  0  0.104876  0  1.034689  0  0.031968  0  0.094566  0.102772  0  1.036091  0
H  H25  1  0.06264075  0.10262547  0.21691536  1  0  0.086029  0  0.970173  0  0  0.103486  0  1.035783  0  0  0.104862  0  1.03468  0  0.031932  0  0.094572  0.102755  0  1.036072  0
H  H26  1  0.12150215  0.91770693  0.66122665  1  0  0.063918  0  0.96505  0  0  0.07846  0  1.042713  0  0  0.079325  0  1.042468  0  0.016416  0  0.076679  0.077598  0  1.043072  0
H  H27  1  0.87849689  0.08229256  0.16122605  1  0  0.063857  0  0.965066  0  0  0.078422  0  1.042691  0  0  0.07929  0  1.042444  0  0.016415  0  0.076681  0.07756  0  1.043034  0
H  H28  1  0.37362388  0.31973386  0.72376404  1  0  0.076567  0  0.968137  0  0  0.09342  0  1.03953  0  0  0.094231  0  1.039422  0  0.056345  0  0.090229  0.092761  0  1.039826  0
H  H29  1  0.62637862  0.68026564  0.22376404  1  0  0.076559  0  0.96814  0  0  0.093415  0  1.039531  0  0  0.094226  0  1.039425  0  0.056353  0  0.090219  0.092507  0  1.040306  0
H  H30  1  0.24703642  0.26304886  0.63520514  1  0  0.095741  0  0.941326  0  0  0.11367  0  1.007743  0  0  0.11515  0  1.007  0  0.062292  0  0.096835  0.112463  0  1.008558  0
H  H31  1  0.75296608  0.73695064  0.13520574  1  0  0.095725  0  0.941343  0  0  0.113656  0  1.007759  0  0  0.115135  0  1.00702  0  0.062314  0  0.09682  0.112442  0  1.008566  0
H  H32  1  0.37276367  0.16086996  0.66449991  1  0  0.062759  0  0.954341  0  0  0.079171  0  1.029116  0  0  0.079552  0  1.029961  0  0.017562  0  0.077914  0.079014  0  1.028455  0
H  H33  1  0.62723768  0.83912954  0.16449991  1  0  0.062765  0  0.95429  0  0  0.07917  0  1.029079  0  0  0.079551  0  1.029921  0  0.017584  0  0.077905  0.079011  0  1.028399  0
H  H34  1  0.00113734  0.58193050  0.83642038  1  0  0.038026  0  0.950447  0  0  0.048413  0  1.021976  0  0  0.049263  0  1.020865  0  0.03535  0  0.086631  0.047668  0  1.0232  0
H  H35  1  0.99886286  0.41806900  0.33641978  1  0  0.038021  0  0.950469  0  0  0.048401  0  1.022005  0  0  0.049255  0  1.02089  0  0.035323  0  0.086619  0.047584  0  1.023416  0
H  H36  1  0.03484750  0.51366627  0.93221541  1  0  0.041818  0  0.949112  0  0  0.051929  0  1.023453  0  0  0.051777  0  1.023785  0  0.055664  0  0.090172  0.052018  0  1.023262  0
H  H37  1  0.96515039  0.48633323  0.43221481  1  0  0.041849  0  0.949098  0  0  0.051992  0  1.023392  0  0  0.051842  0  1.023726  0  0.055688  0  0.090207  0.051969  0  1.023508  0
H  H38  1  0.82589619  0.59301405  0.98443563  1  0  0.07816  0  0.942492  0  0  0.092779  0  1.007173  0  0  0.094032  0  1.006829  0  0.049251  0  0.086272  0.091782  0  1.007657  0
H  H39  1  0.17410401  0.40698544  0.48443503  1  0  0.078176  0  0.942483  0  0  0.092755  0  1.00721  0  0  0.094009  0  1.006866  0  0.049262  0  0.086266  0.091757  0  1.007675  0
H  H40  1  0.78207942  0.63876514  0.88639635  1  0  0.071363  0  0.950482  0  0  0.085195  0  1.01689  0  0  0.086228  0  1.016975  0  0.04619  0  0.084519  0.084422  0  1.016835  0
H  H41  1  0.21791962  0.36123436  0.38639515  1  0  0.071323  0  0.950517  0  0  0.085178  0  1.016893  0  0  0.08621  0  1.016978  0  0.046191  0  0.084525  0.084404  0  1.01681  0
H  H42  1  0.61338310  0.33104772  0.97583468  1  0  0.073691  0  0.943997  0  0  0.088889  0  1.007625  0  0  0.090183  0  1.007137  0  0.045391  0  0.084494  0.087882  0  1.008029  0
H  H43  1  0.38661762  0.66895295  0.47583529  1  0  0.073703  0  0.943978  0  0  0.08891  0  1.007593  0  0  0.090204  0  1.007106  0  0.045353  0  0.084501  0.087902  0  1.007976  0
H  H44  1  0.52378494  0.41548077  0.90433411  1  0  0.072954  0  0.958742  0  0  0.086017  0  1.029491  0  0  0.087675  0  1.028085  0  0.024493  0  0.086129  0.084718  0  1.030618  0
H  H45  1  0.47621410  0.58451873  0.40433411  1  0  0.072953  0  0.95877  0  0  0.086024  0  1.029511  0  0  0.087683  0  1.028103  0  0.024503  0  0.086123  0.084639  0  1.030867  0
H  H46  1  0.61398371  0.17632334  0.85950742  1  0  0.058597  0  0.931687  0  0  0.075414  0  0.991026  0  0  0.074967  0  0.991829  0  0.082049  0  0.105267  0.075653  0  0.990565  0
H  H47  1  0.38601480  0.82367499  0.35950742  1  0  0.058607  0  0.931706  0  0  0.075421  0  0.99105  0  0  0.074987  0  0.99184  0  0.082066  0  0.105271  0.07566  0  0.990569  0
H  H48  1  0.65133899  0.33591438  0.79262029  1  0  0.034949  0  0.937214  0  0  0.049363  0  1.005186  0  0  0.049633  0  1.004857  0  0.016458  0  0.087723  0.049188  0  1.005252  0
H  H49  1  0.34865953  0.66408395  0.29262029  1  0  0.034948  0  0.937209  0  0  0.049364  0  1.005179  0  0  0.049634  0  1.00485  0  0.01646  0  0.087725  0.049188  0  1.005218  0
C  C50  1  0.16271332  0.54026751  0.69230071  1  0  0.133107  0  3.944078  0  0  0.109894  0  4.232184  0  0  0.124411  0  4.247587  0  0.668992  0  0.105205  0.100502  0  4.221526  0
C  C51  1  0.83728751  0.45973082  0.19230372  1  0  0.133057  0  3.944276  0  0  0.109895  0  4.232366  0  0  0.124414  0  4.247762  0  0.669145  0  0.1052  0.100179  0  4.222781  0
C  C52  1  0.27642496  0.56001356  0.75800745  1  0  0.088333  0  3.75451  0  0  0.05434  0  4.066409  0  0  0.055642  0  4.076263  0  0.515716  0  0.075498  0.052871  0  4.060363  0
C  C53  1  0.72357471  0.43998477  0.25801105  1  0  0.088299  0  3.754497  0  0  0.054264  0  4.06643  0  0  0.055568  0  4.076284  0  0.515767  0  0.075429  0.050893  0  4.061478  0
C  C54  1  0.42502643  0.69003520  0.76893314  1  0  0.209286  0  3.829991  0  0  0.167437  0  4.139936  0  0  0.182459  0  4.146177  0  0.504551  0  0.092697  0.157214  0  4.136203  0
C  C55  1  0.57497313  0.30996546  0.26893675  1  0  0.209302  0  3.829915  0  0  0.167483  0  4.139876  0  0  0.182508  0  4.146117  0  0.504615  0  0.092708  0.156845  0  4.137557  0
C  C56  1  0.47824815  0.81745693  0.71487295  1  0  -0.216505  0  3.982595  0  0  -0.222735  0  4.264205  0  0  -0.233864  0  4.28272  0  0.240514  0  -0.049215  -0.215494  0  4.251788  0
C  C57  1  0.52174743  0.18254257  0.21487776  1  0  -0.216256  0  3.982592  0  0  -0.222519  0  4.264201  0  0  -0.233658  0  4.28272  0  0.240426  0  -0.049151  -0.215286  0  4.251709  0
C  C58  1  0.37127989  0.80028624  0.64814982  1  0  0.208704  0  3.833773  0  0  0.165448  0  4.151455  0  0  0.180549  0  4.157965  0  0.479068  0  0.091949  0.15529  0  4.147435  0
C  C59  1  0.62871222  0.19971325  0.14815222  1  0  0.208742  0  3.833341  0  0  0.165518  0  4.151038  0  0  0.180623  0  4.157546  0  0.477427  0  0.091995  0.15536  0  4.146926  0
C  C60  1  0.22178660  0.66984024  0.63747222  1  0  0.081791  0  3.744843  0  0  0.046974  0  4.057992  0  0  0.04793  0  4.067049  0  0.556776  0  0.067832  0.045431  0  4.052716  0
C  C61  1  0.77820835  0.33016042  0.13747522  1  0  0.081758  0  3.744911  0  0  0.046842  0  4.058112  0  0  0.047799  0  4.067168  0  0.558501  0  0.067747  0.045296  0  4.052772  0
C  C62  1  0.89020556  0.39578265  0.63730041  1  0  0.084798  0  3.924614  0  0  0.059947  0  4.215461  0  0  0.067217  0  4.233749  0  0.576271  0  0.08153  0.055383  0  4.202279  0
C  C63  1  0.10979653  0.60421334  0.13729921  1  0  0.084833  0  3.92449  0  0  0.060069  0  4.215273  0  0  0.067341  0  4.23356  0  0.576278  0  0.081557  0.055495  0  4.202091  0
C  C64  1  0.82589945  0.27960463  0.57772692  1  0  0.140732  0  3.762092  0  0  0.102537  0  4.077364  0  0  0.10884  0  4.086913  0  0.520697  0  0.085498  0.097849  0  4.071474  0
C  C65  1  0.17410137  0.72039369  0.07772812  1  0  0.140689  0  3.762159  0  0  0.102472  0  4.077429  0  0  0.108777  0  4.086969  0  0.520695  0  0.085473  0.097783  0  4.071526  0
C  C66  1  0.68487089  0.25928576  0.53092449  1  0  0.113271  0  3.846501  0  0  0.068695  0  4.173062  0  0  0.077305  0  4.179876  0  0.608724  0  0.07499  0.062408  0  4.169349  0
C  C67  1  0.31512983  0.74071491  0.03092749  1  0  0.113225  0  3.846501  0  0  0.06864  0  4.173115  0  0  0.077262  0  4.179913  0  0.60897  0  0.074957  0.062354  0  4.169409  0
C  C68  1  0.60018694  0.35561601  0.54252418  1  0  0.115277  0  3.838658  0  0  0.074023  0  4.156387  0  0  0.081017  0  4.164502  0  0.520208  0  0.07482  0.068875  0  4.151721  0
C  C69  1  0.39981546  0.64438583  0.04252418  1  0  0.11532  0  3.838607  0  0  0.074032  0  4.156396  0  0  0.081031  0  4.1645  0  0.520201  0  0.074832  0.068893  0  4.151717  0
C  C70  1  0.66005988  0.47287537  0.60058089  1  0  0.117265  0  3.841256  0  0  0.078414  0  4.15745  0  0  0.087085  0  4.163668  0  0.588698  0  0.076048  0.072568  0  4.152735  0
C  C71  1  0.33994262  0.52712412  0.10057968  1  0  0.117206  0  3.841348  0  0  0.078398  0  4.157559  0  0  0.087074  0  4.163766  0  0.588694  0  0.076038  0.072545  0  4.152835  0
C  C72  1  0.80064420  0.49058498  0.64673935  1  0  0.132498  0  3.766006  0  0  0.093093  0  4.080138  0  0  0.101909  0  4.08657  0  0.524811  0  0.080756  0.087993  0  4.075107  0
C  C73  1  0.19935610  0.50941218  0.14673875  1  0  0.132555  0  3.765992  0  0  0.093061  0  4.080192  0  0  0.101895  0  4.086612  0  0.524834  0  0.080771  0.087983  0  4.075104  0
C  C74  1  0.06952636  0.98784979  0.86809275  1  0  -0.030668  0  3.678144  0  0  -0.082779  0  3.930452  0  0  -0.080502  0  3.943736  0  0.318192  0  -0.069055  -0.084387  0  3.921917  0
C  C75  1  0.93047436  0.01215088  0.36809215  1  0  -0.03062  0  3.678171  0  0  -0.08274  0  3.930488  0  0  -0.080463  0  3.943776  0  0.318208  0  -0.069014  -0.08436  0  3.921892  0
C  C76  1  0.20925069  0.06144529  0.80611942  1  0  -0.022127  0  3.681813  0  0  -0.07252  0  3.931212  0  0  -0.069356  0  3.944035  0  0.26658  0  -0.067205  -0.074549  0  3.922159  0
C  C77  1  0.79075056  0.93855655  0.30611882  1  0  -0.022105  0  3.681816  0  0  -0.072463  0  3.931189  0  0  -0.069304  0  3.944017  0  0.266571  0  -0.067196  -0.074556  0  3.922218  0
C  C78  1  0.12360521  0.20957401  0.95552592  1  0  -0.176268  0  3.703479  0  0  -0.269199  0  3.959101  0  0  -0.267437  0  3.969756  0  0.226915  0  -0.149529  -0.27013  0  3.951607  0
C  C79  1  0.87639603  0.79042783  0.45552592  1  0  -0.17633  0  3.703487  0  0  -0.269273  0  3.95908  0  0  -0.267512  0  3.96974  0  0.226934  0  -0.149525  -0.270458  0  3.952236  0
C  C80  1  0.84118794  0.01541130  0.93924251  1  0  -0.177185  0  3.700674  0  0  -0.27113  0  3.962773  0  0  -0.269228  0  3.972585  0  0.27327  0  -0.150727  -0.272259  0  3.956228  0
C  C81  1  0.15881383  0.98459171  0.43924251  1  0  -0.177222  0  3.700516  0  0  -0.271146  0  3.962585  0  0  -0.269259  0  3.972433  0  0.273323  0  -0.150724  -0.272282  0  3.955974  0
C  C82  1  0.04625390  0.98030488  0.68360786  1  0  -0.181651  0  3.714496  0  0  -0.272286  0  3.971202  0  0  -0.270388  0  3.98078  0  0.299703  0  -0.153963  -0.272891  0  3.963719  0
C  C83  1  0.95374798  0.01969579  0.18360726  1  0  -0.181548  0  3.714368  0  0  -0.272162  0  3.971074  0  0  -0.270259  0  3.980634  0  0.299725  0  -0.153963  -0.272768  0  3.963548  0
C  C84  1  0.29341682  0.21962063  0.68691476  1  0  -0.179137  0  3.727804  0  0  -0.272107  0  3.989028  0  0  -0.27083  0  4.000701  0  0.229325  0  -0.153192  -0.272824  0  3.981023  0
C  C85  1  0.70658453  0.78037886  0.18691536  1  0  -0.179094  0  3.727797  0  0  -0.272073  0  3.989044  0  0  -0.270794  0  4.000717  0  0.2293  0  -0.153155  -0.272958  0  3.981467  0
C  C86  1  0.93805263  0.50666613  0.88788010  1  0  0.100064  0  3.579271  0  0  0.045259  0  3.848687  0  0  0.052876  0  3.853507  0  0.382866  0  -0.074781  0.040179  0  3.845345  0
C  C87  1  0.06194640  0.49333337  0.38787890  1  0  0.099966  0  3.579286  0  0  0.045153  0  3.84868  0  0  0.052759  0  3.853509  0  0.382854  0  -0.074816  0.039875  0  3.845785  0
C  C88  1  0.79754641  0.54835718  0.92289482  1  0  -0.14177  0  3.647044  0  0  -0.183003  0  3.911368  0  0  -0.185075  0  3.924632  0  -0.045685  0  -0.172141  -0.181419  0  3.902155  0
C  C89  1  0.20245263  0.45164232  0.42289422  1  0  -0.14172  0  3.647018  0  0  -0.182937  0  3.911324  0  0  -0.185005  0  3.92459  0  -0.045688  0  -0.172159  -0.181356  0  3.902048  0
C  C90  1  0.63640356  0.39474572  0.91867183  1  0  -0.147076  0  3.684084  0  0  -0.191573  0  3.951845  0  0  -0.192946  0  3.963654  0  -0.008809  0  -0.1738  -0.190358  0  3.943484  0
C  C91  1  0.36359495  0.60525261  0.41867243  1  0  -0.147114  0  3.684132  0  0  -0.191624  0  3.951899  0  0  -0.192997  0  3.963708  0  -0.008769  0  -0.173795  -0.190426  0  3.943501  0
C  C92  1  0.67873820  0.30363518  0.85312128  1  0  0.095507  0  3.628176  0  0  0.042279  0  3.894683  0  0  0.049119  0  3.901587  0  0.40525  0  -0.071696  0.037798  0  3.889635  0
C  C93  1  0.32126200  0.69636432  0.35312128  1  0  0.095508  0  3.628193  0  0  0.042274  0  3.894709  0  0  0.049106  0  3.901613  0  0.405244  0  -0.071701  0.037789  0  3.889596  0
C  C94  1  0.62633032  0.95218625  0.72890190  1  0  0.34953  0  3.770766  0  0  0.325559  0  4.054878  0  0  0.34119  0  4.067288  0  0.833809  0  0.199171  0.314827  0  4.046891  0
C  C95  1  0.37367975  0.04782494  0.22890491  1  0  0.349285  0  3.770387  0  0  0.325315  0  4.054538  0  0  0.340955  0  4.06695  0  0.833345  0  0.199042  0.314587  0  4.04649  0
N  N96  1  0.02355966  0.40692933  0.68667928  1  0  -0.468922  0  3.129128  0  0  -0.449363  0  3.434661  0  0  -0.468958  0  3.445534  0  -1.183728  0  -0.393805  -0.435638  0  3.42627  0
N  N97  1  0.97644180  0.59306783  0.18668048  1  0  -0.468888  0  3.129053  0  0  -0.449379  0  3.434582  0  0  -0.468965  0  3.445435  0  -1.18369  0  -0.393817  -0.435968  0  3.42686  0
N  N98  1  0.74997211  0.06298139  0.74367754  1  0  -0.45487  0  2.69484  0  0  -0.436719  0  2.961  0  0  -0.445923  0  2.968462  0  -1.231984  0  -0.363269  -0.43115  0  2.956642  0
N  N99  1  0.25001685  0.93701109  0.24368174  1  0  -0.454848  0  2.694082  0  0  -0.436687  0  2.96023  0  0  -0.445894  0  2.967697  0  -1.231623  0  -0.363255  -0.431124  0  2.95591  0
N  N100  1  0.00434184  0.09932297  0.89865742  1  0  -0.216691  0  3.30811  0  0  -0.128672  0  3.565373  0  0  -0.141943  0  3.585357  0  -1.050326  0  -0.384446  -0.119294  0  3.551413  0
N  N101  1  0.99565877  0.90068004  0.39865742  1  0  -0.216741  0  3.308136  0  0  -0.128687  0  3.5653  0  0  -0.141958  0  3.585276  0  -1.050353  0  -0.38449  -0.119414  0  3.551619  0
N  N102  1  0.14920021  0.11366811  0.73412627  1  0  -0.215102  0  3.314237  0  0  -0.128166  0  3.572393  0  0  -0.141152  0  3.591614  0  -1.048969  0  -0.380931  -0.118758  0  3.558398  0
N  N103  1  0.85080051  0.88633256  0.23412627  1  0  -0.215215  0  3.31435  0  0  -0.128273  0  3.572477  0  0  -0.141258  0  3.591698  0  -1.048969  0  -0.380972  -0.119027  0  3.5589  0
O  O104  1  0.85809576  0.34538585  0.86136181  1  0  -0.376252  0  2.241476  0  0  -0.302683  0  2.492933  0  0  -0.318253  0  2.493585  0  -1.063437  0  -0.257514  -0.291542  0  2.4921  0
O  O105  1  0.14190444  0.65461365  0.36136241  1  0  -0.376215  0  2.241468  0  0  -0.302651  0  2.492937  0  0  -0.318216  0  2.493594  0  -1.063436  0  -0.257506  -0.291672  0  2.492581  0
F  F106  1  0.23172821  0.44253091  0.81355920  1  0  -0.177498  0  1.297556  0  0  -0.117214  0  1.475522  0  0  -0.127158  0  1.468697  0  -0.64992  0  -0.067265  -0.110226  0  1.480326  0
F  F107  1  0.76827429  0.55746859  0.31356220  1  0  -0.177471  0  1.297478  0  0  -0.117203  0  1.475498  0  0  -0.127148  0  1.468674  0  -0.649985  0  -0.06722  -0.104486  0  1.474809  0
F  F108  1  0.52344988  0.69781158  0.83341383  1  0  -0.159933  0  1.263651  0  0  -0.106327  0  1.430221  0  0  -0.114034  0  1.418481  0  -0.628971  0  -0.075283  -0.100731  0  1.438247  0
F  F109  1  0.47655242  0.30219260  0.33341923  1  0  -0.159942  0  1.263598  0  0  -0.106346  0  1.430181  0  0  -0.114053  0  1.418442  0  -0.6291  0  -0.075277  -0.100965  0  1.438712  0
F  F110  1  0.41854151  0.91641165  0.59276927  1  0  -0.16681  0  1.240967  0  0  -0.112625  0  1.406916  0  0  -0.120466  0  1.395612  0  -0.640944  0  -0.081179  -0.106791  0  1.414582  0
F  F111  1  0.58144723  0.08358551  0.09277107  1  0  -0.166837  0  1.240889  0  0  -0.112648  0  1.406826  0  0  -0.120487  0  1.39552  0  -0.640899  0  -0.081176  -0.106813  0  1.41449  0
F  F112  1  0.12952147  0.66238769  0.56997177  1  0  -0.164055  0  1.2849  0  0  -0.097817  0  1.448485  0  0  -0.107728  0  1.442188  0  -0.635338  0  -0.075821  -0.09062  0  1.452915  0
F  F113  1  0.87047253  0.33760830  0.06997597  1  0  -0.164089  0  1.285062  0  0  -0.097746  0  1.448608  0  0  -0.107657  0  1.442312  0  -0.635388  0  -0.075765  -0.09055  0  1.453021  0
F  F114  1  0.90762944  0.18656870  0.56222563  1  0  -0.16047  0  1.261708  0  0  -0.103875  0  1.428411  0  0  -0.112038  0  1.418951  0  -0.637745  0  -0.072808  -0.097978  0  1.434998  0
F  F115  1  0.09237075  0.81343080  0.06222743  1  0  -0.160429  0  1.261684  0  0  -0.103828  0  1.42839  0  0  -0.111991  0  1.418927  0  -0.637804  0  -0.072773  -0.09793  0  1.434974  0
F  F116  1  0.63111134  0.14778736  0.47321559  1  0  -0.14497  0  1.22495  0  0  -0.098001  0  1.384974  0  0  -0.105436  0  1.375015  0  -0.631222  0  -0.086867  -0.092211  0  1.391266  0
F  F117  1  0.36889263  0.85221798  0.97321920  1  0  -0.144917  0  1.224883  0  0  -0.097951  0  1.384913  0  0  -0.10542  0  1.374984  0  -0.631434  0  -0.086839  -0.09216  0  1.391213  0
F  F118  1  0.46023524  0.33446946  0.49943353  1  0  -0.140977  0  1.280434  0  0  -0.082068  0  1.442699  0  0  -0.090714  0  1.434073  0  -0.613807  0  -0.068971  -0.075794  0  1.448654  0
F  F119  1  0.53976706  0.66553471  0.99943413  1  0  -0.141017  0  1.280379  0  0  -0.082092  0  1.442655  0  0  -0.090739  0  1.434026  0  -0.613833  0  -0.068999  -0.075814  0  1.448593  0
F  F120  1  0.57909297  0.56750469  0.61237340  1  0  -0.152788  0  1.238718  0  0  -0.102083  0  1.400985  0  0  -0.110406  0  1.392609  0  -0.62619  0  -0.084594  -0.095913  0  1.406443  0
F  F121  1  0.42091059  0.43249714  0.11237160  1  0  -0.152771  0  1.238802  0  0  -0.102066  0  1.401059  0  0  -0.110387  0  1.392681  0  -0.626155  0  -0.08459  -0.095896  0  1.406516  0
F  F122  1  0.85307485  0.60485748  0.70354358  1  0  -0.160162  0  1.248419  0  0  -0.098671  0  1.408707  0  0  -0.113141  0  1.405655  0  -0.642686  0  -0.077355  -0.092376  0  1.41496  0
F  F123  1  0.14692734  0.39513617  0.20354178  1  0  -0.160156  0  1.248466  0  0  -0.098643  0  1.408778  0  0  -0.11317  0  1.405775  0  -0.642712  0  -0.077328  -0.092355  0  1.415021  0
