# generated using pymatgen
data_CdH15C18(NO)5
_symmetry_space_group_name_H-M   'P 1'
_cell_length_a   8.22342864
_cell_length_b   10.14213945
_cell_length_c   12.62185498
_cell_angle_alpha   109.97382311
_cell_angle_beta   102.49420882
_cell_angle_gamma   94.35704969
_symmetry_Int_Tables_number   1
_chemical_formula_structural   CdH15C18(NO)5
_chemical_formula_sum   'Cd2 H30 C36 N10 O10'
_cell_volume   952.97906621
_cell_formula_units_Z   2
loop_
 _symmetry_equiv_pos_site_id
 _symmetry_equiv_pos_as_xyz
  1  'x, y, z'
loop_
 _atom_site_type_symbol
 _atom_site_label
 _atom_site_symmetry_multiplicity
 _atom_site_fract_x
 _atom_site_fract_y
 _atom_site_fract_z
 _atom_site_occupancy
 _atom_site_pbe_bader_charge
 _atom_site_pbe_bader_spin_density
 _atom_site_pbe_cm5_charge
 _atom_site_pbe_ddec_charge
 _atom_site_pbe_ddec_spin_density
 _atom_site_pbe_ddec_sum_bond_order
 _atom_site_pbe_magmom
Cd  Cd0  1  0.35732910  0.39238514  0.30098422  1  1.265604  0  0.769461  0.901832  0  2.173871  0
Cd  Cd1  1  0.64267482  0.60761812  0.69901601  1  1.26563  0  0.769462  0.901756  0  2.173985  0
H  H2  1  0.62501043  0.16305378  0.93966583  1  0.479572  0  0.339041  0.309697  0  0.901307  0
H  H3  1  0.37498332  0.83694203  0.06033096  1  0.479572  0  0.339033  0.309683  0  0.901331  0
H  H4  1  0.70278473  0.44340639  0.44553844  1  0.650086  0  0.281975  0.379539  0  0.968943  0
H  H5  1  0.29722105  0.55660005  0.55446213  1  0.649936  0  0.281965  0.379487  0  0.968997  0
H  H6  1  0.64915572  0.58187358  0.43715848  1  0.627153  0  0.287667  0.386389  0  0.953715  0
H  H7  1  0.35084261  0.41813288  0.56284423  1  0.627209  0  0.287689  0.386387  0  0.953722  0
H  H8  1  0.92361058  0.37867040  0.32256253  1  0.210796  0  0.151615  0.136973  0  0.977161  0
H  H9  1  0.07638983  0.62133393  0.67744147  1  0.210846  0  0.151633  0.137013  0  0.977221  0
H  H10  1  0.11169568  0.12338901  0.05032296  1  0.161266  0  0.131752  0.097777  0  1.03066  0
H  H11  1  0.88830640  0.87661107  0.94968011  1  0.161121  0  0.131742  0.09777  0  1.030643  0
H  H12  1  0.61602484  0.21050222  0.25284145  1  0.172875  0  0.131558  0.139831  0  0.993962  0
H  H13  1  0.38397432  0.78949573  0.74715905  1  0.172878  0  0.131554  0.139862  0  0.993915  0
H  H14  1  0.59441377  0.05123314  0.13299174  1  0.111869  0  0.126169  0.126254  0  0.976511  0
H  H15  1  0.40559372  0.94876269  0.86701409  1  0.11191  0  0.126155  0.126191  0  0.976587  0
H  H16  1  0.16968775  0.48793477  0.08617684  1  0.121017  0  0.102827  0.114998  0  1.029245  0
H  H17  1  0.83031621  0.51206213  0.91382879  1  0.121081  0  0.102848  0.115014  0  1.029296  0
H  H18  1  0.09382537  0.53010090  0.89834149  1  0.045578  0  0.091701  0.087987  0  1.042328  0
H  H19  1  0.90617881  0.46989707  0.10166605  1  0.045435  0  0.091684  0.087975  0  1.042266  0
H  H20  1  0.24071464  0.43147272  0.74426222  1  0.085009  0  0.096446  0.100615  0  1.038682  0
H  H21  1  0.75928288  0.56852950  0.25574317  1  0.084901  0  0.096453  0.100619  0  1.038721  0
H  H22  1  0.46135921  0.28242974  0.76724381  1  0.109958  0  0.107408  0.130349  0  1.025524  0
H  H23  1  0.53863623  0.71756822  0.23275934  1  0.109895  0  0.107395  0.130312  0  1.025526  0
H  H24  1  0.14847119  0.79555758  0.57835542  1  0.062089  0  0.096327  0.086957  0  1.037485  0
H  H25  1  0.85152896  0.20443927  0.42163700  1  0.062074  0  0.096323  0.086979  0  1.037477  0
H  H26  1  0.14168099  0.05625841  0.66937505  1  0.043567  0  0.09923  0.099002  0  1.001487  0
H  H27  1  0.85831524  0.94373740  0.33062050  1  0.043527  0  0.099253  0.099029  0  1.001482  0
H  H28  1  0.23095051  0.21965962  0.57700835  1  0.1065  0  0.104367  0.101209  0  1.024024  0
H  H29  1  0.76905424  0.78034151  0.42299141  1  0.106609  0  0.104374  0.101214  0  1.024049  0
H  H30  1  0.34270791  0.86964623  0.31038568  1  0.0766  0  0.10229  0.106013  0  1.025887  0
H  H31  1  0.65729536  0.13036020  0.68961136  1  0.076142  0  0.1023  0.106031  0  1.025937  0
C  C32  1  0.93596811  0.29670664  0.24385832  1  0.947926  0  0.176732  0.101428  0  3.855618  0
C  C33  1  0.06403188  0.70329557  0.75614425  1  0.947939  0  0.176681  0.101299  0  3.855731  0
C  C34  1  0.02681138  0.16693249  0.10336638  1  1.002737  0  0.149056  0.153571  0  3.982171  0
C  C35  1  0.97319195  0.83306760  0.89663845  1  1.002561  0  0.149047  0.15356  0  3.982109  0
C  C36  1  0.63297564  0.16688638  0.16465183  1  0.291609  0  -0.031103  -0.187824  0  3.8995  0
C  C37  1  0.36701958  0.83311050  0.83534783  1  0.291641  0  -0.031067  -0.187748  0  3.899481  0
C  C38  1  0.52842452  0.23124231  0.08900248  1  1.050658  0  0.232038  0.338555  0  3.982139  0
C  C39  1  0.47157629  0.76875137  0.91099550  1  1.050283  0  0.232016  0.338488  0  3.982131  0
C  C40  1  0.34771021  0.35161818  0.02678282  1  0.379241  0  0.084169  0.139568  0  4.055436  0
C  C41  1  0.65229601  0.64837764  0.97321967  1  0.37963  0  0.084152  0.139582  0  4.055744  0
C  C42  1  0.22627365  0.43852022  0.01494156  1  -0.057502  0  -0.095459  -0.158569  0  3.981219  0
C  C43  1  0.77373053  0.56147776  0.98506678  1  -0.057516  0  -0.09543  -0.158615  0  3.981699  0
C  C44  1  0.18771623  0.46285284  0.91098663  1  -0.020998  0  -0.103186  -0.095865  0  4.036183  0
C  C45  1  0.81228420  0.53714513  0.08901880  1  -0.020975  0  -0.103291  -0.095912  0  4.036215  0
C  C46  1  0.26989412  0.40538047  0.82246581  1  -0.022739  0  -0.098406  -0.079923  0  4.001267  0
C  C47  1  0.73010444  0.59462069  0.17753944  1  -0.022662  0  -0.098385  -0.079927  0  4.001352  0
C  C48  1  0.39288972  0.32020075  0.83376304  1  -0.027955  0  -0.091855  -0.164037  0  3.968539  0
C  C49  1  0.60711422  0.67980252  0.16624196  1  -0.027918  0  -0.091796  -0.163926  0  3.968521  0
C  C50  1  0.42799569  0.29262830  0.93663745  1  0.34318  0  0.09629  0.15132  0  4.01534  0
C  C51  1  0.57200887  0.70737177  0.06336517  1  0.34307  0  0.096232  0.151299  0  4.015374  0
C  C52  1  0.26285556  0.66329208  0.39076136  1  1.545068  0  0.196958  0.571242  0  4.216065  0
C  C53  1  0.73714542  0.33671541  0.60923408  1  1.545181  0  0.196736  0.57096  0  4.216707  0
C  C54  1  0.24909227  0.81714390  0.44044079  1  0.016749  0  -0.021947  -0.040146  0  3.982744  0
C  C55  1  0.75091058  0.18286040  0.55955482  1  0.016566  0  -0.02183  -0.040056  0  3.982561  0
C  C56  1  0.19130628  0.87011458  0.54128031  1  -0.057631  0  -0.08203  -0.07936  0  3.965297  0
C  C57  1  0.80870053  0.12988441  0.45871678  1  -0.05755  0  -0.082086  -0.079428  0  3.965266  0
C  C58  1  0.18713992  0.01481168  0.59126937  1  -0.02425  0  -0.092497  -0.086933  0  4.02283  0
C  C59  1  0.81286150  0.98518519  0.40872798  1  -0.024294  0  -0.092506  -0.08696  0  4.022902  0
C  C60  1  0.23719316  0.10692190  0.53945591  1  -0.038617  0  -0.076669  -0.07705  0  3.949636  0
C  C61  1  0.76280889  0.89307816  0.46054240  1  -0.038753  0  -0.076693  -0.077099  0  3.949791  0
C  C62  1  0.29177414  0.05499655  0.43723522  1  -0.034504  0  -0.020893  -0.038568  0  3.972654  0
C  C63  1  0.70822853  0.94500670  0.56276325  1  -0.03451  0  -0.020872  -0.038422  0  3.97267  0
C  C64  1  0.29826495  0.91000051  0.38875925  1  -0.020651  0  -0.07519  -0.09757  0  3.935608  0
C  C65  1  0.70173624  0.09000166  0.61123477  1  -0.020102  0  -0.0752  -0.09762  0  3.935713  0
C  C66  1  0.34007573  0.15131171  0.37759979  1  1.552135  0  0.196722  0.572521  0  4.21964  0
C  C67  1  0.65992694  0.84869154  0.62239868  1  1.552193  0  0.196649  0.572386  0  4.219942  0
N  N68  1  0.07486292  0.28203520  0.20528212  1  -1.201016  0  -0.340772  -0.32161  0  3.467959  0
N  N69  1  0.92513832  0.71796701  0.79472063  1  -1.200938  0  -0.340747  -0.321494  0  3.467908  0
N  N70  1  0.86554403  0.10950963  0.07639608  1  -0.715041  0  -0.227792  -0.285624  0  3.111248  0
N  N71  1  0.13445992  0.89048726  0.92360796  1  -0.714858  0  -0.227791  -0.285687  0  3.111253  0
N  N72  1  0.81035604  0.19280733  0.16743081  1  -0.814825  0  -0.136936  0.167235  0  3.753473  0
N  N73  1  0.18964208  0.80719169  0.83257142  1  -0.814865  0  -0.136927  0.167315  0  3.753451  0
N  N74  1  0.41443901  0.31166245  0.12012792  1  -1.20394  0  -0.342357  -0.38589  0  3.41534  0
N  N75  1  0.58556451  0.68833231  0.87987390  1  -1.203577  0  -0.342315  -0.385886  0  3.415496  0
N  N76  1  0.54044432  0.21544933  0.97896797  1  -1.235638  0  -0.373558  -0.326329  0  3.579682  0
N  N77  1  0.45955421  0.78454543  0.02103157  1  -1.235847  0  -0.373499  -0.326285  0  3.579604  0
O  O78  1  0.33320143  0.62153028  0.30675348  1  -1.153969  0  -0.328273  -0.54902  0  2.21662  0
O  O79  1  0.66679083  0.37847083  0.69323741  1  -1.153824  0  -0.328258  -0.548976  0  2.216583  0
O  O80  1  0.20644425  0.57831180  0.43435593  1  -1.205999  0  -0.338413  -0.591282  0  2.212477  0
O  O81  1  0.79355549  0.42169570  0.56564091  1  -1.206191  0  -0.338245  -0.591056  0  2.213146  0
O  O82  1  0.36502327  0.10055266  0.27780283  1  -1.190637  0  -0.342942  -0.578082  0  2.121188  0
O  O83  1  0.63498086  0.89945166  0.72219931  1  -1.190597  0  -0.342963  -0.578067  0  2.121105  0
O  O84  1  0.34979330  0.28691099  0.43289722  1  -1.17456  0  -0.339852  -0.591359  0  2.32597  0
O  O85  1  0.65019626  0.71309544  0.56709555  1  -1.174595  0  -0.339795  -0.591316  0  2.326194  0
O  O86  1  0.65035950  0.48250849  0.38544692  1  -1.258363  0  -0.59167  -0.765818  0  2.057305  0
O  O87  1  0.34964545  0.51750008  0.61455412  1  -1.258263  0  -0.591674  -0.765732  0  2.057388  0
