# generated using pymatgen
data_UH5C6NO5
_symmetry_space_group_name_H-M   'P 1'
_cell_length_a   8.62857587
_cell_length_b   10.09283341
_cell_length_c   18.66500000
_cell_angle_alpha   90.00000000
_cell_angle_beta   90.00000000
_cell_angle_gamma   90.00000000
_symmetry_Int_Tables_number   1
_chemical_formula_structural   UH5C6NO5
_chemical_formula_sum   'U8 H40 C48 N8 O40'
_cell_volume   1625.47472729
_cell_formula_units_Z   8
loop_
 _symmetry_equiv_pos_site_id
 _symmetry_equiv_pos_as_xyz
  1  'x, y, z'
loop_
 _atom_site_type_symbol
 _atom_site_label
 _atom_site_symmetry_multiplicity
 _atom_site_fract_x
 _atom_site_fract_y
 _atom_site_fract_z
 _atom_site_occupancy
 _atom_site_hle17_bader_spin_density
 _atom_site_hle17_ddec_charge
 _atom_site_hle17_ddec_spin_density
 _atom_site_hle17_ddec_sum_bond_order
 _atom_site_hle17_magmom
 _atom_site_hse06_10hf_bader_spin_density
 _atom_site_hse06_10hf_ddec_charge
 _atom_site_hse06_10hf_ddec_spin_density
 _atom_site_hse06_10hf_ddec_sum_bond_order
 _atom_site_hse06_10hf_magmom
 _atom_site_hse06_bader_spin_density
 _atom_site_hse06_ddec_charge
 _atom_site_hse06_ddec_spin_density
 _atom_site_hse06_ddec_sum_bond_order
 _atom_site_hse06_magmom
 _atom_site_pbe_bader_charge
 _atom_site_pbe_bader_spin_density
 _atom_site_pbe_cm5_charge
 _atom_site_pbe_ddec_charge
 _atom_site_pbe_ddec_spin_density
 _atom_site_pbe_ddec_sum_bond_order
 _atom_site_pbe_magmom
U  U0  1  0.86648714  0.21061875  0.43417466  1  0  2.509645  0  4.080762  0  0  2.579517  0  4.715933  0  0  2.689916  0  4.682658  0  2.911846  0  2.181793  2.502333  0  4.738584  0
U  U1  1  0.13351334  0.28937860  0.93417466  1  0  2.509619  0  4.080887  0  0  2.579442  0  4.716123  0  0  2.689841  0  4.682849  0  2.911772  0  2.181732  2.502269  0  4.738769  0
U  U2  1  0.63351242  0.71062701  0.56582481  1  0  2.509676  0  4.080704  0  0  2.579547  0  4.715868  0  0  2.68996  0  4.682572  0  2.912039  0  2.18175  2.502313  0  4.738605  0
U  U3  1  0.36648690  0.78937694  0.06582534  1  0  2.509628  0  4.08083  0  0  2.579506  0  4.716015  0  0  2.689908  0  4.68274  0  2.911812  0  2.181708  2.502246  0  4.738783  0
U  U4  1  0.13351450  0.78938091  0.56582534  1  0  2.509661  0  4.080713  0  0  2.579507  0  4.715889  0  0  2.689895  0  4.68262  0  2.911887  0  2.181744  2.502356  0  4.738484  0
U  U5  1  0.86648598  0.71062205  0.06582534  1  0  2.509721  0  4.080757  0  0  2.579567  0  4.715964  0  0  2.689962  0  4.682692  0  2.911799  0  2.18171  2.502308  0  4.738734  0
U  U6  1  0.36648690  0.28937265  0.43417466  1  0  2.509586  0  4.080676  0  0  2.579433  0  4.715833  0  0  2.68982  0  4.682564  0  2.9119  0  2.181634  2.502242  0  4.738493  0
U  U7  1  0.63351358  0.21062272  0.93417519  1  0  2.509755  0  4.080706  0  0  2.579592  0  4.715896  0  0  2.689973  0  4.682627  0  2.911864  0  2.181699  2.502364  0  4.738606  0
H  H8  1  0.13670854  0.12433773  0.50145674  1  0  0.425152  0  0.878325  0  0  0.408199  0  0.924821  0  0  0.420416  0  0.907221  0  0.632217  0  0.29588  0.39951  0  0.937261  0
H  H9  1  0.86329194  0.37566161  0.00145674  1  0  0.425183  0  0.87828  0  0  0.408238  0  0.92476  0  0  0.420455  0  0.907159  0  0.632226  0  0.295885  0.399544  0  0.937209  0
H  H10  1  0.36329286  0.62434103  0.49854326  1  0  0.425213  0  0.878237  0  0  0.408275  0  0.9247  0  0  0.420493  0  0.907097  0  0.63224  0  0.295934  0.399581  0  0.937153  0
H  H11  1  0.63670762  0.87565995  0.99854273  1  0  0.425203  0  0.878253  0  0  0.408261  0  0.924723  0  0  0.420479  0  0.90712  0  0.632229  0  0.295899  0.399566  0  0.937176  0
H  H12  1  0.86329078  0.87566292  0.49854326  1  0  0.425147  0  0.87833  0  0  0.408193  0  0.924826  0  0  0.420409  0  0.907227  0  0.632211  0  0.295878  0.399503  0  0.937268  0
H  H13  1  0.13670854  0.62433905  0.99854326  1  0  0.425175  0  0.878289  0  0  0.408229  0  0.924772  0  0  0.420446  0  0.907172  0  0.632222  0  0.295889  0.399537  0  0.937217  0
H  H14  1  0.63670762  0.37565962  0.50145674  1  0  0.425165  0  0.878302  0  0  0.408202  0  0.924791  0  0  0.420417  0  0.907196  0  0.632241  0  0.295911  0.399509  0  0.937241  0
H  H15  1  0.36329054  0.12433971  0.00145727  1  0  0.425185  0  0.878275  0  0  0.408248  0  0.924732  0  0  0.420465  0  0.907133  0  0.632231  0  0.2959  0.399553  0  0.937188  0
H  H16  1  0.52471347  0.45639117  0.19879614  1  0  0.121497  0  0.937131  0  0  0.131288  0  0.995575  0  0  0.134849  0  0.993922  0  0.108541  0  0.118753  0.128711  0  0.997093  0
H  H17  1  0.47528701  0.04360619  0.69879668  1  0  0.121454  0  0.937107  0  0  0.131257  0  0.995551  0  0  0.134817  0  0.993899  0  0.108493  0  0.11873  0.128679  0  0.997073  0
H  H18  1  0.97528609  0.95639347  0.80120600  1  0  0.121501  0  0.937152  0  0  0.13129  0  0.995595  0  0  0.134846  0  0.993948  0  0.108524  0  0.118729  0.128712  0  0.997117  0
H  H19  1  0.02471671  0.54360751  0.30120761  1  0  0.121494  0  0.937172  0  0  0.131282  0  0.995615  0  0  0.134842  0  0.993962  0  0.108511  0  0.118745  0.128703  0  0.997135  0
H  H20  1  0.47528701  0.54360949  0.80120386  1  0  0.121479  0  0.937123  0  0  0.131279  0  0.995563  0  0  0.13484  0  0.99391  0  0.108547  0  0.118751  0.128702  0  0.997082  0
H  H21  1  0.52471347  0.95639645  0.30120386  1  0  0.121445  0  0.93708  0  0  0.131239  0  0.99554  0  0  0.1348  0  0.993887  0  0.108484  0  0.118724  0.128661  0  0.99706  0
H  H22  1  0.02471555  0.04360718  0.19879454  1  0  0.121451  0  0.937163  0  0  0.131239  0  0.995615  0  0  0.134799  0  0.993963  0  0.108486  0  0.118733  0.128661  0  0.997134  0
H  H23  1  0.97528145  0.45639216  0.69879239  1  0  0.12151  0  0.937156  0  0  0.1313  0  0.995599  0  0  0.134861  0  0.993947  0  0.108535  0  0.118758  0.128723  0  0.997119  0
H  H24  1  0.54132919  0.42915005  0.06684811  1  0  0.095113  0  0.945331  0  0  0.101811  0  1.010613  0  0  0.104557  0  1.006934  0  0.143847  0  0.135299  0.099989  0  1.013191  0
H  H25  1  0.45867013  0.07084730  0.56684918  1  0  0.095123  0  0.945335  0  0  0.101821  0  1.010615  0  0  0.104566  0  1.006938  0  0.143889  0  0.135299  0.099999  0  1.013193  0
H  H26  1  0.95867037  0.92914840  0.93315242  1  0  0.095189  0  0.945287  0  0  0.101813  0  1.010651  0  0  0.104558  0  1.006973  0  0.143861  0  0.135305  0.099992  0  1.013226  0
H  H27  1  0.04133243  0.57085159  0.43315457  1  0  0.095078  0  0.945384  0  0  0.101807  0  1.010637  0  0  0.104554  0  1.006957  0  0.143843  0  0.135291  0.099986  0  1.013211  0
H  H28  1  0.45867129  0.57084961  0.93315189  1  0  0.095085  0  0.945361  0  0  0.10179  0  1.01064  0  0  0.104536  0  1.00696  0  0.143874  0  0.135288  0.099969  0  1.013216  0
H  H29  1  0.54133035  0.92915236  0.43315189  1  0  0.095082  0  0.945362  0  0  0.101777  0  1.01064  0  0  0.104522  0  1.006962  0  0.143845  0  0.135287  0.099955  0  1.013217  0
H  H30  1  0.04132779  0.07085325  0.06684758  1  0  0.095155  0  0.945326  0  0  0.101822  0  1.010646  0  0  0.104568  0  1.006967  0  0.143845  0  0.135299  0.100001  0  1.01322  0
H  H31  1  0.95866573  0.42914807  0.56684543  1  0  0.095092  0  0.945378  0  0  0.101808  0  1.01064  0  0  0.104554  0  1.00696  0  0.143855  0  0.135308  0.099988  0  1.013211  0
H  H32  1  0.72482761  0.05002460  0.08693973  1  0  0.093106  0  0.970523  0  0  0.099233  0  1.037436  0  0  0.102305  0  1.033892  0  0.156625  0  0.131477  0.097124  0  1.040013  0
H  H33  1  0.27517055  0.44997176  0.58693919  1  0  0.093149  0  0.970439  0  0  0.099268  0  1.037367  0  0  0.102357  0  1.033802  0  0.156674  0  0.131491  0.097161  0  1.039942  0
H  H34  1  0.77517195  0.55002295  0.91305920  1  0  0.093087  0  0.970553  0  0  0.099206  0  1.03747  0  0  0.102279  0  1.03393  0  0.156616  0  0.131474  0.097098  0  1.040046  0
H  H35  1  0.22482853  0.94997803  0.41306081  1  0  0.093173  0  0.97048  0  0  0.099316  0  1.03737  0  0  0.102393  0  1.033812  0  0.156592  0  0.131505  0.097201  0  1.039962  0
H  H36  1  0.27517055  0.94997506  0.91305974  1  0  0.093134  0  0.970511  0  0  0.099259  0  1.037412  0  0  0.102348  0  1.033844  0  0.156627  0  0.131497  0.097151  0  1.039987  0
H  H37  1  0.72482877  0.55002790  0.41306027  1  0  0.093154  0  0.97048  0  0  0.099276  0  1.037411  0  0  0.102366  0  1.033844  0  0.156673  0  0.131492  0.097168  0  1.039987  0
H  H38  1  0.22482737  0.44997770  0.08694133  1  0  0.093096  0  0.970542  0  0  0.099224  0  1.037453  0  0  0.102301  0  1.033902  0  0.156616  0  0.131472  0.097115  0  1.04003  0
H  H39  1  0.77517195  0.05002064  0.58693919  1  0  0.093197  0  0.970471  0  0  0.099352  0  1.037336  0  0  0.102428  0  1.033779  0  0.156585  0  0.131521  0.097236  0  1.03993  0
H  H40  1  0.72184218  0.06553264  0.22056416  1  0  0.119191  0  0.935901  0  0  0.129775  0  0.993008  0  0  0.133147  0  0.991586  0  0.111723  0  0.11877  0.127363  0  0.994211  0
H  H41  1  0.27815714  0.43446472  0.72056309  1  0  0.119194  0  0.935917  0  0  0.129777  0  0.993031  0  0  0.133148  0  0.99161  0  0.111751  0  0.118779  0.127366  0  0.994233  0
H  H42  1  0.77815622  0.56553495  0.77943424  1  0  0.119194  0  0.935929  0  0  0.129772  0  0.993037  0  0  0.133144  0  0.991615  0  0.111722  0  0.118765  0.12736  0  0.994239  0
H  H43  1  0.22184310  0.93446603  0.27943584  1  0  0.119192  0  0.9359  0  0  0.129777  0  0.99301  0  0  0.133148  0  0.99159  0  0.111724  0  0.118767  0.127366  0  0.994212  0
H  H44  1  0.27815714  0.93446702  0.77943531  1  0  0.119191  0  0.935919  0  0  0.129775  0  0.993026  0  0  0.133147  0  0.991605  0  0.111708  0  0.118767  0.127363  0  0.994228  0
H  H45  1  0.72184334  0.56553693  0.27943638  1  0  0.119208  0  0.935918  0  0  0.129791  0  0.993023  0  0  0.133162  0  0.991602  0  0.111767  0  0.118784  0.12738  0  0.994225  0
H  H46  1  0.22184426  0.43446472  0.22056576  1  0  0.119192  0  0.935936  0  0  0.12977  0  0.993041  0  0  0.133142  0  0.99162  0  0.11172  0  0.118762  0.127359  0  0.994243  0
H  H47  1  0.77815622  0.06553363  0.72056416  1  0  0.119213  0  0.935858  0  0  0.129757  0  0.993014  0  0  0.133128  0  0.991594  0  0.111746  0  0.118759  0.127346  0  0.994215  0
C  C48  1  0.61076359  0.26909292  0.29983338  1  0  0.681013  0  3.859114  0  0  0.645899  0  4.154427  0  0  0.685316  0  4.140209  0  1.570361  0  0.245391  0.618615  0  4.163319  0
C  C49  1  0.38923920  0.23090840  0.79983445  1  0  0.681043  0  3.859167  0  0  0.645903  0  4.154545  0  0  0.685323  0  4.140324  0  1.57042  0  0.245394  0.618617  0  4.163437  0
C  C50  1  0.88923597  0.76909622  0.70016609  1  0  0.681099  0  3.859059  0  0  0.645924  0  4.154477  0  0  0.685335  0  4.140271  0  1.570396  0  0.245407  0.618639  0  4.163369  0
C  C51  1  0.11076219  0.73090575  0.20016877  1  0  0.681095  0  3.859267  0  0  0.645971  0  4.154606  0  0  0.68539  0  4.140387  0  1.570231  0  0.245393  0.618684  0  4.163495  0
C  C52  1  0.38923573  0.73090773  0.70016609  1  0  0.681108  0  3.858738  0  0  0.645851  0  4.154294  0  0  0.685257  0  4.140094  0  1.570521  0  0.245376  0.618568  0  4.163186  0
C  C53  1  0.61076012  0.76909325  0.20016609  1  0  0.681037  0  3.859295  0  0  0.645942  0  4.1546  0  0  0.685363  0  4.140377  0  1.570496  0  0.245403  0.618656  0  4.163489  0
C  C54  1  0.11076335  0.23090344  0.29983391  1  0  0.681118  0  3.859005  0  0  0.645959  0  4.154422  0  0  0.685371  0  4.140214  0  1.570398  0  0.245432  0.618674  0  4.163316  0
C  C55  1  0.88923712  0.26909391  0.79983177  1  0  0.681087  0  3.85928  0  0  0.645962  0  4.154626  0  0  0.685381  0  4.140408  0  1.570238  0  0.245395  0.618676  0  4.163517  0
C  C56  1  0.62189289  0.26183331  0.21994214  1  0  -0.014928  0  3.721362  0  0  0.004873  0  3.945022  0  0  0.001573  0  3.964441  0  -0.018911  0  0.009711  0.00706  0  3.932183  0
C  C57  1  0.37810875  0.23816404  0.71994267  1  0  -0.014908  0  3.721309  0  0  0.004835  0  3.945083  0  0  0.001533  0  3.964502  0  -0.018988  0  0.009713  0.007024  0  3.932245  0
C  C58  1  0.87811014  0.76183463  0.78005626  1  0  -0.014888  0  3.721329  0  0  0.004888  0  3.945047  0  0  0.001588  0  3.964467  0  -0.018878  0  0.009689  0.007075  0  3.932208  0
C  C59  1  0.12189149  0.73816635  0.28005893  1  0  -0.014986  0  3.721371  0  0  0.004789  0  3.945097  0  0  0.001486  0  3.964516  0  -0.018808  0  0.009707  0.006975  0  3.932262  0
C  C60  1  0.37810643  0.73816734  0.78005786  1  0  -0.014954  0  3.721302  0  0  0.004891  0  3.944998  0  0  0.001595  0  3.964418  0  -0.018902  0  0.009721  0.007076  0  3.93216  0
C  C61  1  0.62189289  0.76183859  0.28005733  1  0  -0.014954  0  3.721379  0  0  0.004784  0  3.945131  0  0  0.001482  0  3.964548  0  -0.019018  0  0.009744  0.00697  0  3.932296  0
C  C62  1  0.12189149  0.23816404  0.21994374  1  0  -0.014896  0  3.721294  0  0  0.004847  0  3.945052  0  0  0.001547  0  3.964472  0  -0.018868  0  0.009707  0.007035  0  3.932213  0
C  C63  1  0.87810667  0.26183331  0.71994107  1  0  -0.014995  0  3.721251  0  0  0.00479  0  3.94497  0  0  0.001487  0  3.964389  0  -0.018963  0  0.009718  0.006976  0  3.932134  0
C  C64  1  0.57074308  0.36532754  0.17615484  1  0  -0.102325  0  3.673348  0  0  -0.125224  0  3.918645  0  0  -0.12996  0  3.938183  0  0.012392  0  -0.064606  -0.122322  0  3.90587  0
C  C65  1  0.42925971  0.13467081  0.67615376  1  0  -0.102287  0  3.673357  0  0  -0.125194  0  3.918684  0  0  -0.129931  0  3.938225  0  0.012369  0  -0.06458  -0.122293  0  3.905907  0
C  C66  1  0.92925416  0.86532886  0.82384516  1  0  -0.102392  0  3.673431  0  0  -0.125272  0  3.918711  0  0  -0.130004  0  3.938252  0  0.01239  0  -0.064601  -0.12237  0  3.905937  0
C  C67  1  0.07074632  0.63467113  0.32384624  1  0  -0.102288  0  3.673375  0  0  -0.125167  0  3.918698  0  0  -0.129902  0  3.938236  0  0.012414  0  -0.064597  -0.122265  0  3.905923  0
C  C68  1  0.42925624  0.63467311  0.82384463  1  0  -0.102301  0  3.673296  0  0  -0.125212  0  3.918615  0  0  -0.129948  0  3.938152  0  0.012374  0  -0.064602  -0.122309  0  3.905841  0
C  C69  1  0.57074308  0.86532985  0.32384570  1  0  -0.102243  0  3.673255  0  0  -0.125157  0  3.918598  0  0  -0.129893  0  3.938138  0  0.012391  0  -0.064589  -0.122254  0  3.905821  0
C  C70  1  0.07074632  0.13467081  0.17615430  1  0  -0.102309  0  3.673369  0  0  -0.125182  0  3.918699  0  0  -0.129917  0  3.938237  0  0.012418  0  -0.064604  -0.122281  0  3.905924  0
C  C71  1  0.92925184  0.36532754  0.67615323  1  0  -0.102275  0  3.673389  0  0  -0.125187  0  3.918723  0  0  -0.129923  0  3.938263  0  0.012428  0  -0.064592  -0.122286  0  3.905949  0
C  C72  1  0.57974805  0.35016926  0.10228395  1  0  0.150528  0  3.668581  0  0  0.124413  0  3.929525  0  0  0.132726  0  3.944466  0  0.448137  0  0.068637  0.119081  0  3.919062  0
C  C73  1  0.42025127  0.14982809  0.60228449  1  0  0.150527  0  3.668678  0  0  0.124432  0  3.929607  0  0  0.132742  0  3.944553  0  0.44803  0  0.068611  0.119101  0  3.919142  0
C  C74  1  0.92025267  0.85016860  0.89771551  1  0  0.150501  0  3.668681  0  0  0.124431  0  3.929626  0  0  0.132743  0  3.944568  0  0.44812  0  0.06862  0.119099  0  3.919161  0
C  C75  1  0.07975128  0.64983139  0.39771605  1  0  0.150494  0  3.668487  0  0  0.124343  0  3.929466  0  0  0.132654  0  3.944407  0  0.448135  0  0.068592  0.119011  0  3.919005  0
C  C76  1  0.42025243  0.64983040  0.89771497  1  0  0.150582  0  3.668581  0  0  0.124449  0  3.929551  0  0  0.132762  0  3.94449  0  0.448129  0  0.068647  0.119116  0  3.919086  0
C  C77  1  0.57975036  0.85016860  0.39771605  1  0  0.150538  0  3.66864  0  0  0.124454  0  3.929559  0  0  0.132764  0  3.944504  0  0.448133  0  0.06862  0.119123  0  3.919093  0
C  C78  1  0.07974781  0.14983305  0.10228503  1  0  0.150526  0  3.668741  0  0  0.124414  0  3.929701  0  0  0.132726  0  3.944643  0  0.448141  0  0.068639  0.119083  0  3.91924  0
C  C79  1  0.92024572  0.35016728  0.60228395  1  0  0.150503  0  3.668712  0  0  0.124396  0  3.929645  0  0  0.132708  0  3.944586  0  0.448128  0  0.068596  0.119065  0  3.919183  0
C  C80  1  0.68217746  0.13859537  0.11361264  1  0  0.138841  0  3.682348  0  0  0.112683  0  3.941603  0  0  0.120189  0  3.957624  0  0.446197  0  0.065694  0.107818  0  3.93058  0
C  C81  1  0.31782186  0.36139901  0.61361157  1  0  0.138781  0  3.682276  0  0  0.112632  0  3.941532  0  0  0.120126  0  3.957544  0  0.446256  0  0.065632  0.107768  0  3.93051  0
C  C82  1  0.81782325  0.63859570  0.88638736  1  0  0.138976  0  3.682465  0  0  0.112814  0  3.941701  0  0  0.120317  0  3.957718  0  0.446302  0  0.065754  0.107948  0  3.930678  0
C  C83  1  0.18217838  0.86140627  0.38638789  1  0  0.138789  0  3.682296  0  0  0.112606  0  3.941591  0  0  0.120112  0  3.95762  0  0.446216  0  0.065676  0.107738  0  3.930569  0
C  C84  1  0.31782186  0.86140429  0.88638736  1  0  0.138852  0  3.682526  0  0  0.112707  0  3.941756  0  0  0.120202  0  3.95777  0  0.44619  0  0.065722  0.107841  0  3.93073  0
C  C85  1  0.68217862  0.63859966  0.38638789  1  0  0.138776  0  3.682317  0  0  0.112596  0  3.941593  0  0  0.120089  0  3.957606  0  0.446227  0  0.065626  0.107731  0  3.930569  0
C  C86  1  0.18217607  0.36140495  0.11361264  1  0  0.138919  0  3.682345  0  0  0.112732  0  3.941608  0  0  0.120233  0  3.957629  0  0.446297  0  0.065714  0.107866  0  3.930589  0
C  C87  1  0.81782094  0.13859438  0.61361157  1  0  0.138717  0  3.682376  0  0  0.112534  0  3.941653  0  0  0.120039  0  3.957683  0  0.446229  0  0.065657  0.107666  0  3.930628  0
C  C88  1  0.68013889  0.14715887  0.18780873  1  0  -0.099816  0  3.681162  0  0  -0.122456  0  3.925547  0  0  -0.126628  0  3.944967  0  0.009868  0  -0.067126  -0.119828  0  3.912691  0
C  C89  1  0.31986043  0.35284046  0.68780873  1  0  -0.099756  0  3.681024  0  0  -0.122382  0  3.925432  0  0  -0.126554  0  3.944856  0  0.00991  0  -0.067093  -0.119756  0  3.912577  0
C  C90  1  0.81985951  0.64716019  0.81219020  1  0  -0.099826  0  3.681045  0  0  -0.122434  0  3.925417  0  0  -0.126606  0  3.944839  0  0.009865  0  -0.067075  -0.119806  0  3.912562  0
C  C91  1  0.18013749  0.85284277  0.31219180  1  0  -0.099824  0  3.681108  0  0  -0.122454  0  3.925528  0  0  -0.126629  0  3.944953  0  0.009841  0  -0.067143  -0.119825  0  3.912673  0
C  C92  1  0.31985927  0.85284178  0.81219127  1  0  -0.099848  0  3.68122  0  0  -0.122486  0  3.925588  0  0  -0.12666  0  3.945013  0  0.009858  0  -0.067146  -0.119856  0  3.912732  0
C  C93  1  0.68014005  0.64716019  0.31219127  1  0  -0.099777  0  3.681048  0  0  -0.122387  0  3.925451  0  0  -0.126559  0  3.944875  0  0.009913  0  -0.067114  -0.11976  0  3.912598  0
C  C94  1  0.18013981  0.35284046  0.18780980  1  0  -0.099853  0  3.68104  0  0  -0.122434  0  3.925415  0  0  -0.126606  0  3.944838  0  0.009868  0  -0.067093  -0.119805  0  3.912558  0
C  C95  1  0.81986067  0.14715590  0.68780820  1  0  -0.099796  0  3.681062  0  0  -0.122389  0  3.925473  0  0  -0.126562  0  3.944898  0  0.00997  0  -0.067128  -0.11976  0  3.912616  0
N  N96  1  0.63315431  0.23841670  0.07147710  1  0  -0.366071  0  3.251543  0  0  -0.327355  0  3.530829  0  0  -0.347358  0  3.552882  0  -1.244395  0  -0.367861  -0.313328  0  3.5149  0
N  N97  1  0.36684501  0.26157868  0.57147710  1  0  -0.366123  0  3.251685  0  0  -0.327421  0  3.530969  0  0  -0.347424  0  3.553028  0  -1.244425  0  -0.367824  -0.313399  0  3.515043  0
N  N98  1  0.86684293  0.73841504  0.92852237  1  0  -0.366206  0  3.251848  0  0  -0.327477  0  3.531101  0  0  -0.34748  0  3.553154  0  -1.244431  0  -0.36789  -0.313447  0  3.515175  0
N  N99  1  0.13315523  0.76158495  0.42852398  1  0  -0.366  0  3.251376  0  0  -0.327277  0  3.530694  0  0  -0.347281  0  3.552749  0  -1.244472  0  -0.367809  -0.313257  0  3.514767  0
N  N100  1  0.36684501  0.76158396  0.92852237  1  0  -0.366111  0  3.251727  0  0  -0.327391  0  3.531006  0  0  -0.347397  0  3.553065  0  -1.244366  0  -0.367872  -0.313361  0  3.515077  0
N  N101  1  0.63315547  0.73842000  0.42852344  1  0  -0.366092  0  3.251719  0  0  -0.327367  0  3.530986  0  0  -0.347372  0  3.553046  0  -1.244468  0  -0.367807  -0.31334  0  3.515058  0
N  N102  1  0.13315523  0.26158462  0.07147817  1  0  -0.366134  0  3.25176  0  0  -0.327386  0  3.531034  0  0  -0.347389  0  3.553089  0  -1.244439  0  -0.367862  -0.313366  0  3.515109  0
N  N103  1  0.86684525  0.23841571  0.57147602  1  0  -0.366034  0  3.251553  0  0  -0.327333  0  3.530862  0  0  -0.347337  0  3.552916  0  -1.244522  0  -0.367853  -0.31331  0  3.514935  0
O  O104  1  0.89980666  0.38371088  0.41276989  1  0  -0.703887  0  1.570016  0  0  -0.704265  0  1.853503  0  0  -0.726462  0  1.841586  0  -0.877648  0  -0.746023  -0.690782  0  1.862262  0
O  O105  1  0.10019498  0.11629242  0.91277043  1  0  -0.703897  0  1.570139  0  0  -0.704258  0  1.85365  0  0  -0.726448  0  1.841723  0  -0.877625  0  -0.746067  -0.690782  0  1.862417  0
O  O106  1  0.60019638  0.88371418  0.58723118  1  0  -0.703929  0  1.570092  0  0  -0.704319  0  1.853619  0  0  -0.726513  0  1.841687  0  -0.877804  0  -0.746098  -0.690827  0  1.862396  0
O  O107  1  0.39980642  0.61629076  0.08723011  1  0  -0.703863  0  1.570122  0  0  -0.704269  0  1.853681  0  0  -0.726461  0  1.84176  0  -0.877673  0  -0.746078  -0.690772  0  1.862459  0
O  O108  1  0.10019382  0.61628878  0.58722957  1  0  -0.703921  0  1.570024  0  0  -0.704295  0  1.853529  0  0  -0.726486  0  1.841611  0  -0.877646  0  -0.74603  -0.690823  0  1.862282  0
O  O109  1  0.89980434  0.88370923  0.08722957  1  0  -0.70392  0  1.570158  0  0  -0.704286  0  1.85366  0  0  -0.726475  0  1.84174  0  -0.877649  0  -0.746051  -0.690788  0  1.862438  0
O  O110  1  0.39980526  0.11628350  0.41276828  1  0  -0.703911  0  1.570086  0  0  -0.70427  0  1.853578  0  0  -0.726457  0  1.841649  0  -0.877837  0  -0.74604  -0.690788  0  1.862337  0
O  O111  1  0.60019406  0.38371187  0.91276989  1  0  -0.703897  0  1.570098  0  0  -0.70426  0  1.853599  0  0  -0.726447  0  1.841686  0  -0.877702  0  -0.746039  -0.690769  0  1.862365  0
O  O112  1  0.83743947  0.03578975  0.45633217  1  0  -0.742121  0  1.589419  0  0  -0.742776  0  1.879463  0  0  -0.765128  0  1.864733  0  -0.909093  0  -0.736077  -0.729105  0  1.890389  0
O  O113  1  0.16255985  0.46421256  0.95633057  1  0  -0.742107  0  1.589378  0  0  -0.742743  0  1.879385  0  0  -0.765104  0  1.864678  0  -0.909092  0  -0.736004  -0.729073  0  1.890316  0
O  O114  1  0.66256009  0.53578810  0.54366890  1  0  -0.742148  0  1.589201  0  0  -0.742809  0  1.87922  0  0  -0.765178  0  1.864524  0  -0.909233  0  -0.735998  -0.729128  0  1.890159  0
O  O115  1  0.33743923  0.96421387  0.04366943  1  0  -0.742125  0  1.589342  0  0  -0.74279  0  1.879357  0  0  -0.765161  0  1.864668  0  -0.909087  0  -0.735979  -0.729101  0  1.890301  0
O  O116  1  0.16255985  0.96421189  0.54366783  1  0  -0.742109  0  1.589352  0  0  -0.74274  0  1.87937  0  0  -0.765088  0  1.864632  0  -0.909123  0  -0.736043  -0.729078  0  1.890289  0
O  O117  1  0.83744063  0.53578711  0.04366943  1  0  -0.742146  0  1.589333  0  0  -0.742793  0  1.87934  0  0  -0.76515  0  1.864626  0  -0.9091  0  -0.73602  -0.729106  0  1.890284  0
O  O118  1  0.33743923  0.46421454  0.45633164  1  0  -0.742117  0  1.589194  0  0  -0.742784  0  1.879234  0  0  -0.765148  0  1.864538  0  -0.909048  0  -0.735937  -0.729114  0  1.890161  0
O  O119  1  0.66256009  0.03578282  0.95633110  1  0  -0.742211  0  1.589307  0  0  -0.742859  0  1.879319  0  0  -0.765215  0  1.864613  0  -0.909138  0  -0.735988  -0.729178  0  1.890255  0
O  O120  1  0.11893620  0.20713113  0.47413287  1  0  -0.999147  0  1.80632  0  0  -1.038483  0  2.075831  0  0  -1.08606  0  2.06296  0  -1.191784  0  -0.69005  -1.003243  0  2.0832  0
O  O121  1  0.88106428  0.29286721  0.97413287  1  0  -0.999185  0  1.806295  0  0  -1.038522  0  2.075822  0  0  -1.086097  0  2.06295  0  -1.191827  0  -0.690064  -1.00328  0  2.083192  0
O  O122  1  0.38106404  0.70713542  0.52586660  1  0  -0.999232  0  1.806294  0  0  -1.038575  0  2.075827  0  0  -1.086154  0  2.062956  0  -1.191814  0  -0.69015  -1.003329  0  2.083182  0
O  O123  1  0.61893644  0.79286556  0.02586713  1  0  -0.999229  0  1.806286  0  0  -1.038565  0  2.07581  0  0  -1.086142  0  2.062939  0  -1.191807  0  -0.690097  -1.003303  0  2.083178  0
O  O124  1  0.88106312  0.79286952  0.52586713  1  0  -0.999167  0  1.806317  0  0  -1.038507  0  2.075841  0  0  -1.086085  0  2.062971  0  -1.191803  0  -0.690049  -1.003264  0  2.083209  0
O  O125  1  0.11893620  0.70713245  0.02586713  1  0  -0.999192  0  1.806286  0  0  -1.038522  0  2.075784  0  0  -1.086096  0  2.062913  0  -1.19182  0  -0.69006  -1.00326  0  2.083163  0
O  O126  1  0.61893644  0.29286424  0.47413340  1  0  -0.999162  0  1.806302  0  0  -1.038462  0  2.075872  0  0  -1.086038  0  2.063004  0  -1.191827  0  -0.690113  -1.00322  0  2.083231  0
O  O127  1  0.38106288  0.20713410  0.97413287  1  0  -0.999212  0  1.806287  0  0  -1.038563  0  2.075856  0  0  -1.086138  0  2.062988  0  -1.191799  0  -0.690096  -1.003318  0  2.083216  0
O  O128  1  0.69726570  0.19069472  0.33549692  1  0  -0.665326  0  2.103188  0  0  -0.652298  0  2.379231  0  0  -0.687232  0  2.373767  0  -1.157022  0  -0.360519  -0.626948  0  2.38197  0
O  O129  1  0.30273594  0.30930363  0.83549746  1  0  -0.665329  0  2.103273  0  0  -0.652262  0  2.379312  0  0  -0.687197  0  2.373849  0  -1.157011  0  -0.360507  -0.626916  0  2.382057  0
O  O130  1  0.80273502  0.69069801  0.66450254  1  0  -0.665314  0  2.103202  0  0  -0.652259  0  2.379275  0  0  -0.687189  0  2.373808  0  -1.157029  0  -0.360467  -0.626901  0  2.382016  0
O  O131  1  0.19726430  0.80930197  0.16450415  1  0  -0.665329  0  2.103345  0  0  -0.65229  0  2.379397  0  0  -0.68722  0  2.373925  0  -1.156929  0  -0.360471  -0.626928  0  2.382137  0
O  O132  1  0.30273362  0.80930693  0.66450254  1  0  -0.665325  0  2.103015  0  0  -0.652243  0  2.379129  0  0  -0.687174  0  2.373669  0  -1.157059  0  -0.360471  -0.626898  0  2.381864  0
O  O133  1  0.69726338  0.69069603  0.16450254  1  0  -0.665317  0  2.103281  0  0  -0.652276  0  2.379311  0  0  -0.687213  0  2.373853  0  -1.156989  0  -0.360504  -0.626917  0  2.382058  0
O  O134  1  0.19726546  0.30930066  0.33549746  1  0  -0.665321  0  2.103219  0  0  -0.652269  0  2.379287  0  0  -0.687198  0  2.373822  0  -1.157017  0  -0.360483  -0.626917  0  2.382026  0
O  O135  1  0.80273618  0.19069670  0.83549585  1  0  -0.665353  0  2.103347  0  0  -0.652305  0  2.379384  0  0  -0.687234  0  2.373912  0  -1.15695  0  -0.360486  -0.626947  0  2.382123  0
O  O136  1  0.51350652  0.34873458  0.32720493  1  0  -0.640446  0  2.034387  0  0  -0.624808  0  2.295688  0  0  -0.656132  0  2.288993  0  -1.152829  0  -0.339113  -0.602011  0  2.299201  0
O  O137  1  0.48649511  0.15126476  0.82720600  1  0  -0.640481  0  2.034376  0  0  -0.624823  0  2.295683  0  0  -0.65615  0  2.28899  0  -1.152788  0  -0.339133  -0.60202  0  2.299196  0
O  O138  1  0.98649419  0.84873590  0.67279454  1  0  -0.640524  0  2.03435  0  0  -0.624859  0  2.295688  0  0  -0.656186  0  2.288997  0  -1.152893  0  -0.339154  -0.602067  0  2.299198  0
O  O139  1  0.01350397  0.65126608  0.17279561  1  0  -0.640499  0  2.034331  0  0  -0.624863  0  2.295655  0  0  -0.656189  0  2.28896  0  -1.152843  0  -0.339135  -0.602056  0  2.29917  0
O  O140  1  0.48649511  0.65126608  0.67279507  1  0  -0.640492  0  2.034259  0  0  -0.624809  0  2.295631  0  0  -0.656132  0  2.288941  0  -1.152954  0  -0.339141  -0.602007  0  2.299144  0
O  O141  1  0.51350421  0.84873590  0.17279454  1  0  -0.640491  0  2.034436  0  0  -0.624845  0  2.295712  0  0  -0.65617  0  2.289015  0  -1.1529  0  -0.339156  -0.602038  0  2.299229  0
O  O142  1  0.01350513  0.15126377  0.32720546  1  0  -0.640541  0  2.03434  0  0  -0.624882  0  2.295669  0  0  -0.656209  0  2.288978  0  -1.15291  0  -0.339182  -0.602087  0  2.299183  0
O  O143  1  0.98649535  0.34873260  0.82720439  1  0  -0.640465  0  2.03437  0  0  -0.624823  0  2.295685  0  0  -0.656149  0  2.28899  0  -1.152828  0  -0.339127  -0.602028  0  2.299198  0
