# generated using pymatgen
data_Zn3H22(C9O10)2
_symmetry_space_group_name_H-M   'P 1'
_cell_length_a   6.28965938
_cell_length_b   14.23537203
_cell_length_c   15.60623882
_cell_angle_alpha   92.77713935
_cell_angle_beta   90.00009900
_cell_angle_gamma   89.99993758
_symmetry_Int_Tables_number   1
_chemical_formula_structural   Zn3H22(C9O10)2
_chemical_formula_sum   'Zn6 H44 C36 O40'
_cell_volume   1395.67352100
_cell_formula_units_Z   2
loop_
 _symmetry_equiv_pos_site_id
 _symmetry_equiv_pos_as_xyz
  1  'x, y, z'
loop_
 _atom_site_type_symbol
 _atom_site_label
 _atom_site_symmetry_multiplicity
 _atom_site_fract_x
 _atom_site_fract_y
 _atom_site_fract_z
 _atom_site_occupancy
 _atom_site_pbe_bader_charge
 _atom_site_pbe_bader_spin_density
 _atom_site_pbe_cm5_charge
 _atom_site_pbe_ddec_charge
 _atom_site_pbe_ddec_spin_density
 _atom_site_pbe_ddec_sum_bond_order
 _atom_site_pbe_magmom
Zn  Zn0  1  0.28486395  0.45397396  0.62073022  1  1.318345  0  0.687143  0.980978  0  2.172352  0
Zn  Zn1  1  0.78486506  0.04602644  0.87926762  1  1.318304  0  0.687164  0.98098  0  2.172321  0
Zn  Zn2  1  0.71512661  0.54602668  0.37926669  1  1.318275  0  0.687112  0.9809  0  2.172339  0
Zn  Zn3  1  0.21513664  0.95397200  0.12073428  1  1.318318  0  0.687137  0.980932  0  2.172301  0
Zn  Zn4  1  0.50000610  0.00000227  0.50000005  1  1.386071  0  0.66729  1.048452  0  2.121622  0
Zn  Zn5  1  0.00000367  0.49999760  0.99999760  1  1.386232  0  0.667279  1.048413  0  2.121549  0
H  H6  1  0.28504971  0.76159999  0.63524344  1  0.160674  0  0.113742  0.125688  0  0.989997  0
H  H7  1  0.78504560  0.73839785  0.86475578  1  0.160704  0  0.113763  0.125763  0  0.990155  0
H  H8  1  0.71495357  0.23839842  0.36475975  1  0.16095  0  0.11377  0.125781  0  0.990054  0
H  H9  1  0.21495768  0.26159429  0.13524382  1  0.16069  0  0.113729  0.125764  0  0.990057  0
H  H10  1  0.26512053  0.96417697  0.84983783  1  0.089408  0  0.107247  0.103026  0  1.041394  0
H  H11  1  0.76511571  0.53582801  0.65015667  1  0.089574  0  0.107258  0.102962  0  1.041259  0
H  H12  1  0.73489070  0.03582931  0.15015877  1  0.089494  0  0.107262  0.103005  0  1.041366  0
H  H13  1  0.23487803  0.46417055  0.34983883  1  0.089569  0  0.10724  0.103  0  1.04131  0
H  H14  1  0.24352039  0.67060514  0.89387736  1  0.085946  0  0.10762  0.095501  0  1.060514  0
H  H15  1  0.74350206  0.82940108  0.60612681  1  0.08606  0  0.107628  0.095514  0  1.060476  0
H  H16  1  0.75648766  0.32940235  0.10613020  1  0.086163  0  0.107617  0.095474  0  1.060348  0
H  H17  1  0.25649009  0.17059875  0.39387581  1  0.085916  0  0.107608  0.095457  0  1.060505  0
H  H18  1  0.95812646  0.41972081  0.72291938  1  0.654851  0  0.296715  0.392004  0  0.947919  0
H  H19  1  0.45813483  0.08028517  0.77707633  1  0.655065  0  0.296694  0.391991  0  0.947953  0
H  H20  1  0.04186410  0.58027984  0.27707689  1  0.655028  0  0.296714  0.392046  0  0.947849  0
H  H21  1  0.54187005  0.91971613  0.22292318  1  0.655044  0  0.296669  0.391951  0  0.948  0
H  H22  1  0.93690734  0.35768159  0.63619555  1  0.633664  0  0.330377  0.41927  0  0.857089  0
H  H23  1  0.43691762  0.14232512  0.86379955  1  0.633739  0  0.330396  0.419322  0  0.857006  0
H  H24  1  0.06307686  0.64232331  0.36379969  1  0.633772  0  0.330421  0.419388  0  0.85696  0
H  H25  1  0.56309997  0.85768045  0.13619701  1  0.633636  0  0.330346  0.419236  0  0.857115  0
H  H26  1  0.50273614  0.32403416  0.68493165  1  0.649885  0  0.337265  0.423033  0  0.846655  0
H  H27  1  0.00273338  0.17596358  0.81506651  1  0.649906  0  0.337309  0.423102  0  0.846563  0
H  H28  1  0.49726715  0.67596019  0.31506296  1  0.650012  0  0.337288  0.423108  0  0.846564  0
H  H29  1  0.99725877  0.82403217  0.18492882  1  0.649914  0  0.337294  0.423051  0  0.846632  0
H  H30  1  0.60740159  0.41974593  0.72508689  1  0.674266  0  0.299139  0.394662  0  0.941591  0
H  H31  1  0.10740359  0.08025315  0.77491205  1  0.67423  0  0.29912  0.394622  0  0.941624  0
H  H32  1  0.39259056  0.58024906  0.27491096  1  0.674222  0  0.299098  0.394599  0  0.94165  0
H  H33  1  0.89259652  0.91974247  0.22509032  1  0.674249  0  0.29915  0.394699  0  0.941535  0
H  H34  1  0.81288091  0.97359153  0.61835205  1  0.656637  0  0.289364  0.397252  0  0.940735  0
H  H35  1  0.31287084  0.52640559  0.88164714  1  0.656607  0  0.289388  0.397249  0  0.940734  0
H  H36  1  0.18712396  0.02640413  0.38164777  1  0.656644  0  0.289377  0.397285  0  0.940694  0
H  H37  1  0.68712450  0.47358936  0.11835327  1  0.656626  0  0.289339  0.397217  0  0.940779  0
H  H38  1  0.91444264  0.94401052  0.52674061  1  0.628791  0  0.3175  0.402462  0  0.889191  0
H  H39  1  0.41444093  0.55598726  0.97325804  1  0.628841  0  0.317433  0.402376  0  0.88939  0
H  H40  1  0.08556223  0.05598939  0.47325818  1  0.628822  0  0.317455  0.402431  0  0.889302  0
H  H41  1  0.58556235  0.44400629  0.02674165  1  0.628799  0  0.317476  0.402411  0  0.889376  0
H  H42  1  0.38163266  0.10447490  0.62451749  1  0.63782  0  0.283589  0.368242  0  0.977549  0
H  H43  1  0.88162671  0.39552688  0.87547921  1  0.637859  0  0.283585  0.368225  0  0.977555  0
H  H44  1  0.61836268  0.89552427  0.37548254  1  0.63793  0  0.283616  0.368272  0  0.977502  0
H  H45  1  0.11837499  0.60446953  0.12451809  1  0.637876  0  0.283592  0.368237  0  0.977518  0
H  H46  1  0.39178557  0.17934244  0.55010974  1  0.657902  0  0.287745  0.396568  0  0.938677  0
H  H47  1  0.89177855  0.32066000  0.94988892  1  0.657897  0  0.287703  0.396496  0  0.938777  0
H  H48  1  0.60820023  0.82065813  0.44989101  1  0.657901  0  0.28773  0.396516  0  0.938748  0
H  H49  1  0.10821519  0.67934057  0.05011183  1  0.657942  0  0.287733  0.396506  0  0.93876  0
C  C50  1  0.27424984  0.60520816  0.72822330  1  1.556927  0  0.204298  0.561282  0  4.225561  0
C  C51  1  0.77424972  0.89479162  0.77178564  1  1.557659  0  0.204449  0.561569  0  4.225436  0
C  C52  1  0.72574550  0.39479077  0.27179016  1  1.557827  0  0.204379  0.561451  0  4.225683  0
C  C53  1  0.22575834  0.10520682  0.22821627  1  1.557734  0  0.20446  0.561483  0  4.22528  0
C  C54  1  0.26730350  0.70522427  0.76078802  1  0.023617  0  -0.019335  -0.050789  0  3.990436  0
C  C55  1  0.76730182  0.79477850  0.73921213  1  0.023492  0  -0.01943  -0.05096  0  3.990517  0
C  C56  1  0.73269660  0.29477911  0.23921354  1  0.023447  0  -0.019405  -0.050924  0  3.990519  0
C  C57  1  0.23269511  0.20521712  0.26079025  1  0.023407  0  -0.019428  -0.050887  0  3.990597  0
C  C58  1  0.27544999  0.77789534  0.70392353  1  -0.013259  0  -0.061834  -0.072373  0  3.89539  0
C  C59  1  0.77544715  0.72210733  0.79608174  1  -0.013386  0  -0.061828  -0.072384  0  3.895387  0
C  C60  1  0.72455488  0.22210442  0.29608294  1  -0.01368  0  -0.061861  -0.072436  0  3.895277  0
C  C61  1  0.22455295  0.27788973  0.20391880  1  -0.013325  0  -0.061824  -0.072456  0  3.895296  0
C  C62  1  0.27589356  0.87201004  0.73520107  1  -0.006579  0  -0.024146  -0.068225  0  3.990323  0
C  C63  1  0.77588120  0.62799068  0.76479511  1  -0.006308  0  -0.024115  -0.068295  0  3.990259  0
C  C64  1  0.72412085  0.12799199  0.26479720  1  -0.006269  0  -0.024149  -0.06822  0  3.990226  0
C  C65  1  0.22410936  0.37200573  0.23520218  1  -0.006295  0  -0.024097  -0.068332  0  3.990418  0
C  C66  1  0.30551974  0.94906953  0.67453732  1  1.540127  0  0.222721  0.600924  0  4.144712  0
C  C67  1  0.80551579  0.55093315  0.82546605  1  1.540399  0  0.222716  0.600874  0  4.144902  0
C  C68  1  0.69449149  0.05093030  0.32546531  1  1.53994  0  0.222712  0.600839  0  4.144599  0
C  C69  1  0.19448908  0.44906179  0.17453437  1  1.539742  0  0.222755  0.601112  0  4.144587  0
C  C70  1  0.26356083  0.89214881  0.82343890  1  -0.049192  0  -0.068755  -0.079548  0  3.918695  0
C  C71  1  0.76355283  0.60785891  0.67656025  1  -0.049627  0  -0.068784  -0.079499  0  3.91891  0
C  C72  1  0.73645040  0.10785459  0.17656137  1  -0.049136  0  -0.068713  -0.07949  0  3.91864  0
C  C73  1  0.23643774  0.39214171  0.32343794  1  -0.049536  0  -0.068745  -0.079441  0  3.918799  0
C  C74  1  0.25207553  0.81980636  0.88072546  1  -0.025564  0  -0.013842  -0.027446  0  3.951457  0
C  C75  1  0.75207345  0.68019919  0.61927676  1  -0.025256  0  -0.013843  -0.027314  0  3.951831  0
C  C76  1  0.74792935  0.18020124  0.11927571  1  -0.02564  0  -0.013891  -0.027506  0  3.95158  0
C  C77  1  0.24792029  0.31980067  0.38072458  1  -0.025282  0  -0.013846  -0.027477  0  3.951782  0
C  C78  1  0.23751852  0.84316878  0.97487984  1  1.551954  0  0.212241  0.590542  0  4.18765  0
C  C79  1  0.73752396  0.65684105  0.52511943  1  1.551916  0  0.212231  0.590369  0  4.187685  0
C  C80  1  0.76247205  0.15684232  0.02512218  1  1.551837  0  0.212336  0.590724  0  4.187456  0
C  C81  1  0.26247933  0.34316308  0.47487897  1  1.551941  0  0.2123  0.590666  0  4.187534  0
C  C82  1  0.25514247  0.72660343  0.84921586  1  -0.024246  0  -0.062219  -0.074928  0  3.901923  0
C  C83  1  0.75513561  0.77340351  0.65078708  1  -0.024449  0  -0.062214  -0.075009  0  3.902133  0
C  C84  1  0.74486399  0.27340121  0.15079346  1  -0.024463  0  -0.062269  -0.074921  0  3.901962  0
C  C85  1  0.24486131  0.22659917  0.34921379  1  -0.024309  0  -0.062205  -0.074891  0  3.902185  0
O  O86  1  0.28371000  0.53867201  0.77895427  1  -1.20217  0  -0.313045  -0.557121  0  2.224998  0
O  O87  1  0.78370472  0.96133210  0.72104853  1  -1.202704  0  -0.31309  -0.557257  0  2.224671  0
O  O88  1  0.71628374  0.46133198  0.22105181  1  -1.202897  0  -0.313024  -0.557174  0  2.224661  0
O  O89  1  0.21630174  0.03866492  0.27895393  1  -1.202825  0  -0.313145  -0.55727  0  2.224452  0
O  O90  1  0.27137508  0.58971095  0.64593535  1  -1.145865  0  -0.320858  -0.549547  0  2.301917  0
O  O91  1  0.77138012  0.91028894  0.85406782  1  -1.14596  0  -0.32091  -0.549622  0  2.302215  0
O  O92  1  0.72861707  0.41028595  0.35407351  1  -1.145925  0  -0.320858  -0.549567  0  2.302269  0
O  O93  1  0.22863111  0.08971020  0.14593412  1  -1.145916  0  -0.320892  -0.549565  0  2.302124  0
O  O94  1  0.35493083  0.92540182  0.59821273  1  -1.164614  0  -0.299997  -0.533238  0  2.291684  0
O  O95  1  0.85491768  0.57459957  0.90178289  1  -1.165115  0  -0.299938  -0.53313  0  2.292145  0
O  O96  1  0.64508676  0.07460158  0.40178754  1  -1.164697  0  -0.299932  -0.53315  0  2.291735  0
O  O97  1  0.14508719  0.42539407  0.09821168  1  -1.164523  0  -0.299993  -0.53329  0  2.291723  0
O  O98  1  0.28542740  0.03575813  0.70348733  1  -1.200359  0  -0.319899  -0.590552  0  2.255288  0
O  O99  1  0.78542727  0.46424304  0.79650735  1  -1.200284  0  -0.319938  -0.59052  0  2.255162  0
O  O100  1  0.71457748  0.96424251  0.29650958  1  -1.200379  0  -0.319932  -0.590524  0  2.25528  0
O  O101  1  0.21457283  0.53574990  0.20348781  1  -1.200271  0  -0.319935  -0.590672  0  2.255394  0
O  O102  1  0.23394437  0.93199359  0.99688631  1  -1.136686  0  -0.32509  -0.55613  0  2.28702  0
O  O103  1  0.73395304  0.56801272  0.50311339  1  -1.136346  0  -0.325095  -0.556087  0  2.287021  0
O  O104  1  0.76605574  0.06801827  0.00311319  1  -1.136205  0  -0.325097  -0.556154  0  2.287132  0
O  O105  1  0.26605183  0.43199075  0.49688305  1  -1.136398  0  -0.325111  -0.556188  0  2.286987  0
O  O106  1  0.23234100  0.77975023  0.02842739  1  -1.203794  0  -0.32537  -0.572911  0  2.174629  0
O  O107  1  0.73234860  0.72025898  0.47157421  1  -1.203957  0  -0.325306  -0.572735  0  2.17467  0
O  O108  1  0.76762413  0.22026577  0.97157620  1  -1.204013  0  -0.325436  -0.573012  0  2.174386  0
O  O109  1  0.26764833  0.27974793  0.52842627  1  -1.203892  0  -0.325388  -0.572944  0  2.1747  0
O  O110  1  0.04086367  0.38335291  0.67737090  1  -1.241296  0  -0.564401  -0.758629  0  2.140683  0
O  O111  1  0.54087071  0.11665117  0.82262573  1  -1.241537  0  -0.564388  -0.758657  0  2.140605  0
O  O112  1  0.95912530  0.61664915  0.32262545  1  -1.241555  0  -0.564426  -0.758756  0  2.140502  0
O  O113  1  0.45913734  0.88334803  0.17737301  1  -1.241403  0  -0.564293  -0.758511  0  2.140665  0
O  O114  1  0.54364287  0.38777260  0.67185165  1  -1.271335  0  -0.551723  -0.747221  0  2.139239  0
O  O115  1  0.04364825  0.11222581  0.82814722  1  -1.271332  0  -0.551758  -0.747246  0  2.13919  0
O  O116  1  0.45634452  0.61222449  0.32814697  1  -1.271344  0  -0.551695  -0.747198  0  2.139208  0
O  O117  1  0.95635344  0.88777196  0.17185272  1  -1.271358  0  -0.55175  -0.747255  0  2.139194  0
O  O118  1  0.81528945  0.98757855  0.55571703  1  -1.256696  0  -0.571988  -0.771127  0  2.095239  0
O  O119  1  0.31528450  0.51241645  0.94428268  1  -1.256841  0  -0.571903  -0.771026  0  2.095333  0
O  O120  1  0.18471701  0.01241990  0.44428424  1  -1.256831  0  -0.571926  -0.771106  0  2.095195  0
O  O121  1  0.68471879  0.48757358  0.05571744  1  -1.25677  0  -0.571937  -0.771045  0  2.09539  0
O  O122  1  0.46696304  0.12542376  0.57507607  1  -1.272237  0  -0.587899  -0.765879  0  2.078965  0
O  O123  1  0.96696216  0.37457726  0.92492127  1  -1.27228  0  -0.587867  -0.765818  0  2.079027  0
O  O124  1  0.53302752  0.87457895  0.42492288  1  -1.272334  0  -0.587918  -0.765884  0  2.078988  0
O  O125  1  0.03304112  0.62541983  0.07507735  1  -1.272286  0  -0.587899  -0.765788  0  2.078896  0
