# generated using pymatgen
data_CoH12C16(NO2)2
_symmetry_space_group_name_H-M   'P 1'
_cell_length_a   8.58973381
_cell_length_b   8.77472426
_cell_length_c   11.94850534
_cell_angle_alpha   108.35312964
_cell_angle_beta   107.81463082
_cell_angle_gamma   98.36238948
_symmetry_Int_Tables_number   1
_chemical_formula_structural   CoH12C16(NO2)2
_chemical_formula_sum   'Co2 H24 C32 N4 O8'
_cell_volume   784.12637102
_cell_formula_units_Z   2
loop_
 _symmetry_equiv_pos_site_id
 _symmetry_equiv_pos_as_xyz
  1  'x, y, z'
loop_
 _atom_site_type_symbol
 _atom_site_label
 _atom_site_symmetry_multiplicity
 _atom_site_fract_x
 _atom_site_fract_y
 _atom_site_fract_z
 _atom_site_occupancy
 _atom_site_hle17_ddec_charge
 _atom_site_hle17_ddec_spin_density
 _atom_site_hle17_ddec_sum_bond_order
 _atom_site_hle17_magmom
 _atom_site_hse06_10hf_ddec_charge
 _atom_site_hse06_10hf_ddec_spin_density
 _atom_site_hse06_10hf_ddec_sum_bond_order
 _atom_site_hse06_10hf_magmom
 _atom_site_hse06_ddec_charge
 _atom_site_hse06_ddec_spin_density
 _atom_site_hse06_ddec_sum_bond_order
 _atom_site_hse06_magmom
 _atom_site_pbe_cm5_charge
 _atom_site_pbe_ddec_charge
 _atom_site_pbe_ddec_spin_density
 _atom_site_pbe_ddec_sum_bond_order
 _atom_site_pbe_magmom
Co  Co0  1  0.99166247  0.70129861  0.79445585  1  0.901885  -2.862865  2.039574  -2.544  0.846805  -2.831896  2.474191  -2.597  0.935756  -2.871255  2.389537  -2.683  0.676429  0.785305  -2.803548  2.532707  -2.523
Co  Co1  1  0.69720185  0.90687136  0.20542679  1  0.902327  -2.862568  2.038994  -2.543  0.848135  -2.832376  2.472962  -2.597  0.93729  -2.871955  2.388173  -2.683  0.676448  0.786143  -2.803336  2.531946  -2.523
H  H2  1  0.31839757  0.53945443  0.08520542  1  0.11136  -0.000199  0.965082  -0.001  0.120199  -0.000156  1.025957  0.0  0.123186  -9.4e-05  1.025177  0.0  0.103761  0.118128  -0.000181  1.027273  0.0
H  H3  1  0.73388756  0.45418332  0.91508319  1  0.111143  -0.000189  0.964415  -0.001  0.119683  -0.000144  1.025622  0.0  0.122746  -8.7e-05  1.024711  0.0  0.103269  0.117546  -0.000159  1.027  0.0
H  H4  1  0.23869464  0.25268394  0.82993808  1  0.101224  -2.4e-05  0.934555  0.0  0.113291  -0.000168  0.991681  0.0  0.117186  -0.000104  0.989165  0.0  0.107956  0.110211  -0.000249  0.99368  0.0
H  H5  1  0.90867500  0.42226500  0.17032742  1  0.102189  -2.8e-05  0.933845  0.0  0.114033  -0.000165  0.991167  0.0  0.117924  -0.000102  0.988656  0.0  0.108405  0.11096  -0.000242  0.993169  0.0
H  H6  1  0.32680336  0.00757487  0.83256076  1  0.115763  -7.6e-05  0.95712  0.0  0.12485  -0.000228  1.017321  0.0  0.128895  -0.000114  1.015912  0.0  0.109367  0.121564  -0.000364  1.018856  0.0
H  H7  1  0.99460510  0.17452117  0.16752145  1  0.116139  -6.7e-05  0.957851  0.0  0.125461  -0.00022  1.017895  0.0  0.129514  -0.00011  1.016453  0.0  0.109379  0.122192  -0.000349  1.01942  0.0
H  H8  1  0.48922302  0.85592174  0.94830456  1  0.094685  -0.000382  0.933153  -0.002  0.105836  -0.00036  0.990252  -0.001  0.108959  -0.000216  0.986983  -0.001  0.122782  0.103086  -0.000512  0.993378  -0.002
H  H9  1  0.04097183  0.90714480  0.05148254  1  0.095562  -0.000377  0.932577  -0.002  0.10646  -0.000359  0.989912  -0.001  0.109593  -0.000215  0.986647  -0.001  0.123137  0.103703  -0.00051  0.993028  -0.002
H  H10  1  0.65180941  0.25517891  0.29308050  1  0.094385  -0.000351  0.956151  -0.002  0.10231  -0.000257  1.017218  -0.001  0.10521  -0.000144  1.01479  -0.001  0.11999  0.099939  -0.000374  1.019461  -0.001
H  H11  1  0.85839114  0.96203971  0.70690887  1  0.094169  -0.000355  0.956953  -0.002  0.102505  -0.000261  1.017567  -0.001  0.105543  -0.000147  1.014965  -0.001  0.120208  0.100047  -0.000379  1.019901  -0.001
H  H12  1  0.49742847  0.42615761  0.19325779  1  0.113154  -3.9e-05  0.944565  0.0  0.124777  -0.000187  0.999677  0.0  0.128001  -0.00012  0.999212  0.0  0.110969  0.122323  -0.000257  1.000311  0.0
H  H13  1  0.80419257  0.23291113  0.80701220  1  0.112939  -4.1e-05  0.945449  0.0  0.124581  -0.000186  1.000791  0.0  0.12782  -0.00012  1.000286  0.0  0.110907  0.122116  -0.000254  1.001424  0.0
H  H14  1  0.02195233  0.75409835  0.41808172  1  0.139051  -0.000502  0.95558  -0.001  0.145613  -0.000379  1.018333  -0.001  0.149725  -0.000216  1.015821  0.0  0.110349  0.142787  -0.000565  1.020487  -0.001
H  H15  1  0.10431194  0.33577794  0.58172191  1  0.138684  -0.000498  0.956586  -0.001  0.145635  -0.00038  1.018788  -0.001  0.149737  -0.000216  1.016297  0.0  0.110658  0.142792  -0.000567  1.020901  -0.001
H  H16  1  0.35653952  0.74647365  0.60674084  1  0.090408  -0.000325  0.962264  0.0  0.099985  -0.00024  1.027163  0.0  0.103168  -0.000141  1.025668  0.0  0.101939  0.097671  -0.000336  1.028125  0.0
H  H17  1  0.25014005  0.13911675  0.39315181  1  0.090665  -0.000329  0.963217  0.0  0.100347  -0.000239  1.028025  0.0  0.103534  -0.00014  1.026526  0.0  0.101824  0.098003  -0.000341  1.029046  0.0
H  H18  1  0.15480192  0.82614173  0.30034005  1  0.127268  -0.00025  0.947999  0.0  0.135412  -0.000254  1.008103  0.0  0.139586  -0.000129  1.006455  0.0  0.113194  0.132288  -0.000406  1.009409  -0.001
H  H19  1  0.35456729  0.52523768  0.69943157  1  0.127045  -0.000244  0.947057  0.0  0.136038  -0.000244  1.006334  0.0  0.140179  -0.000122  1.004705  0.0  0.113449  0.132933  -0.000395  1.007638  -0.001
H  H20  1  0.32532311  0.87036643  0.17316164  1  0.085803  -0.000666  0.95465  -0.001  0.090723  -0.000706  1.02286  -0.001  0.093571  -0.000469  1.020086  -0.001  0.115533  0.088829  -0.000959  1.024873  -0.001
H  H21  1  0.65218209  0.69667254  0.82667573  1  0.085075  -0.000663  0.954489  -0.001  0.090994  -0.000699  1.021882  -0.001  0.093775  -0.000464  1.019142  -0.001  0.115462  0.089197  -0.00095  1.023797  -0.001
H  H22  1  0.74164511  0.77834122  0.40478001  1  0.100313  -0.000576  0.959061  -0.002  0.103478  -0.000542  1.027748  -0.001  0.106989  -0.000286  1.023384  -0.001  0.119859  0.100869  -0.00086  1.031005  -0.002
H  H23  1  0.83716754  0.37303968  0.59525441  1  0.099011  -0.000576  0.960353  -0.002  0.102543  -0.000544  1.02874  -0.001  0.106072  -0.000286  1.024374  -0.001  0.119645  0.099949  -0.000865  1.031991  -0.002
H  H24  1  0.59153284  0.73114308  0.54094956  1  0.119394  -9.7e-05  0.953233  0.0  0.12739  -0.000131  1.015759  0.0  0.13036  -6.2e-05  1.015712  0.0  0.109405  0.12527  -0.000211  1.015984  0.0
H  H25  1  0.55094854  0.18953779  0.45912131  1  0.118695  -9.7e-05  0.954421  0.0  0.127276  -0.000131  1.016413  0.0  0.130218  -6.2e-05  1.016406  0.0  0.109236  0.125203  -0.000212  1.016572  0.0
C  C26  1  0.15904409  0.53334467  0.89990244  1  0.651571  0.011365  3.918624  0.009  0.615568  0.002303  4.206983  0.003  0.652094  0.002353  4.202865  0.002  0.191284  0.590068  0.002824  4.208532  0.003
C  C27  1  0.75928426  0.63328898  0.10023574  1  0.654583  0.011316  3.91459  0.009  0.61864  0.002294  4.202505  0.003  0.655184  0.002342  4.198256  0.002  0.192715  0.593089  0.002834  4.20423  0.003
C  C28  1  0.26763666  0.46560351  0.98334879  1  -0.191355  0.012956  3.6429  0.007  -0.203977  0.001061  3.891756  0.0  -0.209764  -0.000359  3.904678  0.0  -0.088944  -0.203528  0.005456  3.886219  0.003
C  C29  1  0.78466291  0.48212971  0.01695356  1  -0.190756  0.012953  3.64221  0.007  -0.202972  0.001062  3.891002  0.0  -0.208742  -0.000379  3.903772  0.0  -0.088177  -0.202541  0.005477  3.885712  0.003
C  C30  1  0.29755349  0.31739458  0.93335183  1  -0.052868  -0.002804  3.719827  -0.005  -0.07902  0.000126  3.969282  -0.001  -0.079271  0.000217  3.985861  0.0  -0.072416  -0.078285  0.000772  3.959468  -0.001
C  C31  1  0.86434470  0.38379797  0.06693370  1  -0.056156  -0.002704  3.723237  -0.005  -0.082352  0.000251  3.972949  -0.001  -0.08256  0.000295  3.989534  0.0  -0.073978  -0.081756  0.001054  3.96323  -0.001
C  C32  1  0.39562327  0.23142939  0.00230473  1  0.127256  0.019333  3.805598  0.013  0.144059  0.003209  4.035223  0.002  0.150933  0.000839  4.05589  0.0  0.007069  0.138449  0.007784  4.022174  0.004
C  C33  1  0.89349272  0.22890884  0.99789512  1  0.129161  0.019546  3.80348  0.013  0.146401  0.003368  4.033112  0.002  0.153221  0.000907  4.053831  0.0  0.007804  0.140863  0.008034  4.019989  0.004
C  C34  1  0.39789698  0.06902646  0.93469754  1  -0.152283  -0.008406  3.687426  -0.012  -0.170982  -0.001659  3.933026  -0.003  -0.179408  -0.001067  3.951417  -0.002  -0.078264  -0.165847  -0.001966  3.922876  -0.004
C  C35  1  0.96341940  0.13399430  0.06536838  1  -0.153502  -0.008408  3.688404  -0.012  -0.172746  -0.001669  3.934246  -0.003  -0.181155  -0.001073  3.952616  -0.002  -0.078558  -0.167653  -0.001965  3.924067  -0.004
C  C36  1  0.48758726  0.98271726  0.99831931  1  0.132498  0.019575  3.688118  0.013  0.102862  0.001521  3.946755  0.001  0.113177  0.000156  3.96242  0.0  0.046498  0.094623  0.004224  3.938482  0.002
C  C37  1  0.98934296  0.98406644  0.00160910  1  0.131357  0.01935  3.687786  0.013  0.101805  0.00141  3.946462  0.0  0.112124  9e-05  3.962072  0.0  0.045767  0.093605  0.003967  3.938213  0.002
C  C38  1  0.57687914  0.20639977  0.19137790  1  0.115099  0.018586  3.703665  0.012  0.088327  0.002467  3.957317  0.001  0.097172  0.001748  3.974096  0.001  0.041848  0.080737  0.003819  3.94899  0.001
C  C39  1  0.88538178  0.01491694  0.80864072  1  0.114611  0.018784  3.701549  0.012  0.087634  0.002602  3.954827  0.001  0.096394  0.001821  3.971573  0.001  0.041662  0.080101  0.004022  3.946547  0.002
C  C40  1  0.48914483  0.29959412  0.13445675  1  -0.147676  -0.008699  3.692255  -0.012  -0.16247  -0.001589  3.929967  -0.003  -0.170304  -0.00114  3.949302  -0.002  -0.076882  -0.157308  -0.001701  3.91805  -0.003
C  C41  1  0.85473043  0.16504332  0.86571247  1  -0.147542  -0.008692  3.69055  -0.012  -0.162725  -0.001573  3.92855  -0.003  -0.170532  -0.001137  3.947932  -0.002  -0.077366  -0.157616  -0.001629  3.916661  -0.003
C  C42  1  0.04650719  0.73440297  0.60085899  1  0.646397  0.0117  3.935873  0.009  0.611414  0.002991  4.223322  0.003  0.648356  0.002324  4.219101  0.002  0.190951  0.584933  0.00437  4.224913  0.004
C  C43  1  0.94586213  0.13335122  0.39905842  1  0.6471  0.011762  3.932463  0.009  0.611712  0.00299  4.220577  0.002  0.648683  0.002308  4.216285  0.002  0.191412  0.585161  0.00445  4.222286  0.004
C  C44  1  0.11261806  0.75005512  0.50345533  1  -0.204518  0.005349  3.637517  0.003  -0.2156  0.000139  3.880498  0.0  -0.222685  -0.000357  3.893336  0.0  -0.088612  -0.213291  0.001925  3.874311  0.0
C  C45  1  0.10946944  0.24619256  0.49635655  1  -0.202918  0.004963  3.638346  0.002  -0.214156  -9.7e-05  3.881013  0.0  -0.221322  -0.000459  3.893956  0.0  -0.088353  -0.211658  0.001477  3.874682  0.0
C  C46  1  0.27628743  0.75680940  0.52014906  1  -0.059063  0.000283  3.737586  -0.001  -0.083035  0.000963  3.984098  0.0  -0.083012  0.000542  4.001971  0.0  -0.078033  -0.082765  0.002442  3.972907  0.0
C  C47  1  0.25643565  0.23608594  0.47966810  1  -0.060714  0.000453  3.739752  -0.001  -0.084548  0.001072  3.986559  0.0  -0.084474  0.000628  4.0044  0.0  -0.078485  -0.084337  0.002636  3.975377  0.001
C  C48  1  0.35935176  0.77688568  0.43452430  1  0.130964  0.014483  3.806193  0.01  0.148182  0.003227  4.031942  0.002  0.154655  0.001469  4.052583  0.001  0.006012  0.14319  0.005953  4.018554  0.003
C  C49  1  0.42506869  0.34172310  0.56534765  1  0.131415  0.014518  3.810402  0.01  0.147852  0.003267  4.037423  0.002  0.154271  0.001488  4.05813  0.001  0.0062  0.142972  0.006014  4.023896  0.003
C  C50  1  0.28451604  0.81434883  0.32718871  1  -0.156546  -0.006951  3.668482  -0.01  -0.170371  -0.001679  3.907202  -0.003  -0.178452  -0.001157  3.925706  -0.002  -0.078183  -0.16503  -0.002005  3.895559  -0.004
C  C51  1  0.45745534  0.48657071  0.67259316  1  -0.157039  -0.006949  3.669432  -0.01  -0.171681  -0.001678  3.909153  -0.003  -0.179731  -0.001161  3.927692  -0.002  -0.078429  -0.166345  -0.00198  3.89742  -0.004
C  C52  1  0.37956245  0.84114630  0.25654887  1  0.110835  0.012612  3.716914  0.008  0.082638  0.000812  3.979989  0.0  0.09181  0.000496  3.996694  0.0  0.038892  0.075672  0.001259  3.969596  0.0
C  C53  1  0.62305782  0.58403702  0.74329593  1  0.11185  0.012721  3.715649  0.008  0.082575  0.000904  3.97901  0.0  0.091813  0.000557  3.995762  0.0  0.038703  0.075517  0.001403  3.96866  0.0
C  C54  1  0.61250202  0.78921842  0.38498872  1  0.141236  0.015524  3.68695  0.01  0.111059  0.002156  3.945737  0.001  0.122071  0.001661  3.959809  0.001  0.046386  0.102578  0.002801  3.93763  0.001
C  C55  1  0.72776438  0.40368264  0.61498650  1  0.143292  0.015587  3.687658  0.01  0.11239  0.002194  3.946383  0.001  0.123425  0.001688  3.960511  0.001  0.046891  0.103903  0.002801  3.938184  0.001
C  C56  1  0.52649849  0.76259689  0.46091270  1  -0.161667  -0.005921  3.68115  -0.009  -0.17706  -0.001183  3.919905  -0.002  -0.185214  -0.000911  3.938614  -0.002  -0.080893  -0.171899  -0.000946  3.908416  -0.003
C  C57  1  0.56589225  0.30106852  0.53908859  1  -0.161712  -0.005983  3.683792  -0.009  -0.177248  -0.001226  3.922776  -0.002  -0.185441  -0.000934  3.941566  -0.002  -0.081155  -0.172009  -0.001022  3.911091  -0.003
N  N58  1  0.57680465  0.04922486  0.12514671  1  -0.332199  -0.043066  3.347373  -0.071  -0.283048  -0.02917  3.647567  -0.04  -0.310356  -0.023635  3.661868  -0.032  -0.342308  -0.264837  -0.033873  3.639424  -0.046
N  N59  1  0.95153082  0.92383231  0.87474281  1  -0.330636  -0.043051  3.344207  -0.071  -0.28108  -0.029131  3.643765  -0.04  -0.308376  -0.023613  3.658063  -0.032  -0.341453  -0.262995  -0.033793  3.635688  -0.046
N  N60  1  0.54182753  0.83038215  0.28486693  1  -0.330601  -0.044227  3.365383  -0.07  -0.283185  -0.030404  3.668225  -0.041  -0.312043  -0.023593  3.683638  -0.031  -0.343327  -0.262684  -0.037065  3.658073  -0.05
N  N61  1  0.75708501  0.54498358  0.71503917  1  -0.33093  -0.044438  3.364601  -0.07  -0.282528  -0.030531  3.667027  -0.041  -0.311461  -0.023655  3.682497  -0.031  -0.343121  -0.261953  -0.037319  3.656688  -0.051
O  O62  1  0.13705689  0.67857579  0.95288576  1  -0.624972  -0.056997  1.985737  -0.096  -0.591767  -0.041077  2.253186  -0.064  -0.635947  -0.030406  2.245325  -0.048  -0.3275  -0.556679  -0.052302  2.255572  -0.081
O  O63  1  0.68467616  0.72562382  0.04713622  1  -0.627287  -0.057033  1.983719  -0.095  -0.594384  -0.041115  2.251193  -0.065  -0.638605  -0.030435  2.243341  -0.048  -0.329135  -0.559397  -0.052254  2.253792  -0.081
O  O64  1  0.08871619  0.45371228  0.78119891  1  -0.609584  -0.022119  1.950922  -0.04  -0.572437  -0.020283  2.187026  -0.036  -0.605141  -0.014522  2.180878  -0.027  -0.305882  -0.547364  -0.026901  2.189367  -0.046
O  O65  1  0.80720203  0.67226857  0.21891560  1  -0.610105  -0.022078  1.949736  -0.04  -0.572748  -0.020258  2.185342  -0.036  -0.605463  -0.01449  2.179207  -0.027  -0.305751  -0.547657  -0.026899  2.187717  -0.046
O  O66  1  0.14829179  0.72767963  0.70380343  1  -0.614638  -0.056998  2.0305  -0.095  -0.580291  -0.039677  2.299212  -0.062  -0.624638  -0.028048  2.29203  -0.044  -0.324274  -0.543731  -0.052848  2.299863  -0.082
O  O67  1  0.94450699  0.02336373  0.29615408  1  -0.615592  -0.057114  2.029068  -0.095  -0.581066  -0.039771  2.297614  -0.062  -0.625554  -0.028109  2.290676  -0.044  -0.324498  -0.544384  -0.052981  2.298221  -0.082
O  O68  1  0.89284559  0.72869284  0.58458868  1  -0.61238  -0.019485  1.940923  -0.036  -0.572144  -0.018691  2.169054  -0.034  -0.605326  -0.013019  2.163342  -0.024  -0.304855  -0.545554  -0.025687  2.170902  -0.045
O  O69  1  0.80859960  0.14438646  0.41541048  1  -0.612326  -0.019212  1.940643  -0.036  -0.57186  -0.018478  2.168928  -0.033  -0.604944  -0.012896  2.163179  -0.024  -0.304827  -0.545411  -0.025282  2.170902  -0.044
