# generated using pymatgen
data_Zn4H8C28S2Cl6O13
_symmetry_space_group_name_H-M   'P 1'
_cell_length_a   18.40758797
_cell_length_b   19.63582882
_cell_length_c   32.67725609
_cell_angle_alpha   86.07618524
_cell_angle_beta   73.64573199
_cell_angle_gamma   62.00911988
_symmetry_Int_Tables_number   1
_chemical_formula_structural   Zn4H8C28S2Cl6O13
_chemical_formula_sum   'Zn16 H32 C112 S8 Cl24 O52'
_cell_volume   9979.16814416
_cell_formula_units_Z   4
loop_
 _symmetry_equiv_pos_site_id
 _symmetry_equiv_pos_as_xyz
  1  'x, y, z'
loop_
 _atom_site_type_symbol
 _atom_site_label
 _atom_site_symmetry_multiplicity
 _atom_site_fract_x
 _atom_site_fract_y
 _atom_site_fract_z
 _atom_site_occupancy
 _atom_site_pbe_bader_charge
 _atom_site_pbe_bader_spin_density
 _atom_site_pbe_cm5_charge
 _atom_site_pbe_ddec_charge
 _atom_site_pbe_ddec_spin_density
 _atom_site_pbe_ddec_sum_bond_order
 _atom_site_pbe_magmom
Zn  Zn0  1  0.87413680  0.54779091  0.51807565  1  1.321747  0  0.675337  0.973381  0  2.304487  0
Zn  Zn1  1  0.04680670  0.47908433  0.43873693  1  1.322885  0  0.677728  0.972014  0  2.401224  0
Zn  Zn2  1  0.05152424  0.39983721  0.52468337  1  1.319417  0  0.675131  0.967113  0  2.377586  0
Zn  Zn3  1  0.04115303  0.56810742  0.51566979  1  1.31943  0  0.674578  0.969747  0  2.360289  0
Zn  Zn4  1  0.62463989  0.18519628  0.73819609  1  1.318791  0  0.675912  0.971134  0  2.356719  0
Zn  Zn5  1  0.47631929  0.35040985  0.72637467  1  1.318448  0  0.674721  0.964201  0  2.385002  0
Zn  Zn6  1  0.44597480  0.26741394  0.81272747  1  1.318219  0  0.674122  0.969082  0  2.356734  0
Zn  Zn7  1  0.45221549  0.19981828  0.72427002  1  1.317392  0  0.673261  0.965993  0  2.365051  0
Zn  Zn8  1  0.46940987  0.75157006  0.31397341  1  1.307119  0  0.674789  0.968052  0  2.33349  0
Zn  Zn9  1  0.46335375  0.68587665  0.22764025  1  1.32335  0  0.678537  0.974667  0  2.389777  0
Zn  Zn10  1  0.62547966  0.70192270  0.22715556  1  1.317408  0  0.675217  0.966377  0  2.390121  0
Zn  Zn11  1  0.44538855  0.85203588  0.23078719  1  1.318548  0  0.673962  0.968469  0  2.361853  0
Zn  Zn12  1  0.02244807  0.90327983  0.02771293  1  1.320286  0  0.676149  0.970637  0  2.362354  0
Zn  Zn13  1  0.06805284  0.04586839  0.01428688  1  1.319461  0  0.675306  0.969934  0  2.315458  0
Zn  Zn14  1  0.87765323  0.07021253  0.02396469  1  1.323266  0  0.677595  0.973163  0  2.396937  0
Zn  Zn15  1  0.02491126  0.98578858  0.93913639  1  1.317927  0  0.673992  0.969182  0  2.363666  0
H  H16  1  0.56497832  0.45297331  0.62342693  1  0.062124  0  0.098861  0.11295  0  0.980382  0
H  H17  1  0.56710073  0.50085393  0.66705955  1  0.088509  0  0.100369  0.114322  0  0.9764  0
H  H18  1  0.66073255  0.54939355  0.61575341  1  0.073226  0  0.100235  0.11286  0  0.977573  0
H  H19  1  0.65838298  0.50186326  0.57199226  1  0.071488  0  0.099021  0.108914  0  0.979095  0
H  H20  1  0.36202230  0.66207770  0.42344583  1  0.087576  0  0.099195  0.110133  0  0.979699  0
H  H21  1  0.27550342  0.75494222  0.42175435  1  0.040547  0  0.099781  0.111186  0  0.979567  0
H  H22  1  0.17123540  0.71576241  0.47162299  1  0.048552  0  0.101208  0.113927  0  0.974829  0
H  H23  1  0.25821209  0.62346903  0.47398571  1  0.089351  0  0.09822  0.110108  0  0.98213  0
H  H24  1  0.55882180  0.75283188  0.42339417  1  0.064833  0  0.098814  0.110554  0  0.981556  0
H  H25  1  0.55797616  0.66248482  0.42350009  1  0.061334  0  0.098957  0.109389  0  0.979583  0
H  H26  1  0.65389030  0.61385655  0.47240872  1  0.061525  0  0.098796  0.110455  0  0.981417  0
H  H27  1  0.65529573  0.70401768  0.47216731  1  0.052602  0  0.098578  0.110247  0  0.979997  0
H  H28  1  0.33208869  0.20169230  0.63133380  1  0.052716  0  0.100683  0.113274  0  0.974771  0
H  H29  1  0.24235613  0.24522401  0.67735488  1  0.057809  0  0.099141  0.113346  0  0.981252  0
H  H30  1  0.14290890  0.29520786  0.63012953  1  0.073805  0  0.09884  0.112925  0  0.982219  0
H  H31  1  0.23255997  0.25132026  0.58414979  1  0.065403  0  0.100463  0.113031  0  0.975003  0
H  H32  1  0.93057058  0.09613984  0.83213890  1  0.063237  0  0.098623  0.110834  0  0.980725  0
H  H33  1  0.93292820  0.00439769  0.83169776  1  0.089764  0  0.101187  0.114509  0  0.976503  0
H  H34  1  0.83530619  0.05128254  0.78380657  1  0.073968  0  0.100105  0.113052  0  0.977035  0
H  H35  1  0.83086325  0.14373653  0.78500284  1  0.08364  0  0.098981  0.111657  0  0.979369  0
H  H36  1  0.17090339  0.19682842  0.96776499  1  0.07406  0  0.099426  0.111022  0  0.980081  0
H  H37  1  0.26450922  0.10708497  0.96542645  1  0.043207  0  0.100651  0.113851  0  0.976945  0
H  H38  1  0.35572290  0.16134976  0.91740108  1  0.073224  0  0.098432  0.112222  0  0.982325  0
H  H39  1  0.26201219  0.25069937  0.91916782  1  0.055185  0  0.101136  0.114993  0  0.974444  0
H  H40  1  0.26119387  0.01327341  0.07174124  1  0.070223  0  0.100748  0.113734  0  0.978124  0
H  H41  1  0.16737063  0.05988700  0.11559926  1  0.043222  0  0.099313  0.110398  0  0.97992  0
H  H42  1  0.25852090  0.01452272  0.16675255  1  0.055266  0  0.101402  0.114223  0  0.975139  0
H  H43  1  0.35252155  0.97025649  0.12268935  1  0.07774  0  0.098455  0.110443  0  0.983513  0
H  H44  1  0.92809293  0.74875790  0.08590773  1  0.059642  0  0.099988  0.113101  0  0.978943  0
H  H45  1  0.93027198  0.79419858  0.13059786  1  0.057661  0  0.100577  0.113695  0  0.9769  0
H  H46  1  0.83179509  0.74865948  0.18026001  1  0.07749  0  0.10015  0.11414  0  0.978911  0
H  H47  1  0.83068766  0.70222056  0.13568494  1  0.057928  0  0.100229  0.112746  0  0.974646  0
C  C48  1  0.87400857  0.56392564  0.42817949  1  1.576987  0  0.227445  0.621931  0  4.149106  0
C  C49  1  0.13264989  0.31169893  0.44176684  1  1.577756  0  0.215632  0.620399  0  4.205493  0
C  C50  1  0.87888989  0.41554987  0.56734509  1  1.599513  0  0.227287  0.621411  0  4.158474  0
C  C51  1  0.14087500  0.44981333  0.56640887  1  1.565921  0  0.230583  0.625824  0  4.147682  0
C  C52  1  0.86293230  0.68137008  0.56123832  1  1.588293  0  0.216982  0.624687  0  4.197803  0
C  C53  1  0.13406461  0.57209634  0.43003213  1  1.571464  0  0.228076  0.625583  0  4.151712  0
C  C54  1  0.65977622  0.30293885  0.68755768  1  1.591764  0  0.229065  0.621459  0  4.155272  0
C  C55  1  0.37784735  0.43702402  0.81058140  1  1.6005  0  0.215592  0.622795  0  4.206929  0
C  C56  1  0.61520864  0.17978583  0.82989159  1  1.573765  0  0.228389  0.622665  0  4.151423  0
C  C57  1  0.35264177  0.18191202  0.80917611  1  1.552519  0  0.228067  0.621751  0  4.155711  0
C  C58  1  0.62181874  0.06840108  0.68645502  1  1.622177  0  0.2162  0.621231  0  4.20488  0
C  C59  1  0.37059184  0.33513192  0.67763577  1  1.578478  0  0.229376  0.621622  0  4.156361  0
C  C60  1  0.36639781  0.67401004  0.31388281  1  1.601312  0  0.229008  0.625647  0  4.148708  0
C  C61  1  0.63918121  0.56823831  0.18557927  1  1.601364  0  0.215814  0.621549  0  4.207255  0
C  C62  1  0.64921000  0.67764232  0.31438857  1  1.574211  0  0.227345  0.620201  0  4.160658  0
C  C63  1  0.61350069  0.83847468  0.18125735  1  1.602148  0  0.229721  0.626015  0  4.150269  0
C  C64  1  0.37411833  0.92180220  0.32039817  1  1.61861  0  0.217198  0.623562  0  4.205043  0
C  C65  1  0.35985901  0.81122857  0.18292338  1  1.569979  0  0.229108  0.625151  0  4.151164  0
C  C66  1  0.13399058  0.92158064  0.07017966  1  1.560712  0  0.229874  0.628394  0  4.148848  0
C  C67  1  0.91472292  0.18112279  0.06195555  1  1.589656  0  0.217675  0.624932  0  4.199603  0
C  C68  1  0.84125221  0.95009539  0.06892590  1  1.572791  0  0.228327  0.620433  0  4.15457  0
C  C69  1  0.84461307  0.07661611  0.94115647  1  1.587984  0  0.228413  0.621626  0  4.153223  0
C  C70  1  0.11795452  0.81625827  0.94330974  1  1.588983  0  0.218321  0.627443  0  4.198028  0
C  C71  1  0.13382397  0.06167449  0.92251550  1  1.556461  0  0.228667  0.622598  0  4.1513  0
C  C72  1  0.72385715  0.80664492  0.59838878  1  0.184511  0  0.009121  0.103467  0  4.078075  0
C  C73  1  0.75757160  0.94166349  0.65045971  1  0.130965  0  0.009815  0.102688  0  4.08129  0
C  C74  1  0.81171763  0.75656470  0.58638497  1  -0.158613  0  -0.028143  -0.185359  0  3.926639  0
C  C75  1  0.66994735  0.99264365  0.66200219  1  -0.126549  0  -0.02735  -0.181449  0  3.925693  0
C  C76  1  0.77697891  0.87420702  0.62710479  1  -0.12929  0  -0.028252  -0.073328  0  4.101154  0
C  C77  1  0.70385532  0.87460271  0.62160682  1  -0.128767  0  -0.027722  -0.072477  0  4.088959  0
C  C78  1  0.20296097  0.21743588  0.37431337  1  0.096572  0  0.010513  0.10374  0  4.083148  0
C  C79  1  0.30258857  0.01331527  0.39022412  1  0.095021  0  0.009017  0.103695  0  4.078337  0
C  C80  1  0.17983932  0.23549041  0.41811337  1  -0.066571  0  -0.027037  -0.181071  0  3.930266  0
C  C81  1  0.32645663  0.99608373  0.34629347  1  -0.097847  0  -0.028036  -0.185874  0  3.932336  0
C  C82  1  0.25798912  0.09431399  0.40063478  1  -0.100749  0  -0.028054  -0.073456  0  4.087795  0
C  C83  1  0.24824493  0.13652428  0.36435205  1  -0.103696  0  -0.027604  -0.073221  0  4.103625  0
C  C84  1  0.72202116  0.32557295  0.65787714  1  -0.010056  0  -0.014101  -0.124265  0  3.930886  0
C  C85  1  0.82978812  0.38168366  0.59836296  1  -0.062522  0  -0.013757  -0.122798  0  3.933014  0
C  C86  1  0.68906981  0.39558573  0.63907136  1  0.029784  0  -0.004087  0.072359  0  3.901471  0
C  C87  1  0.86576014  0.31015685  0.61728926  1  0.111635  0  0.016527  0.068288  0  3.971486  0
C  C88  1  0.74046819  0.42232408  0.61072037  1  0.088525  0  -0.004701  0.06665  0  3.910183  0
C  C89  1  0.81312162  0.28269060  0.64620511  1  0.093024  0  0.016023  0.068918  0  3.978286  0
C  C90  1  0.60634604  0.46544135  0.63676727  1  -0.037213  0  -0.150635  -0.198566  0  3.8748  0
C  C91  1  0.66477067  0.49587397  0.60464651  1  -0.044333  0  -0.15015  -0.195166  0  3.880057  0
C  C92  1  0.30432569  0.64858359  0.34065353  1  0.022287  0  -0.014605  -0.127165  0  3.936284  0
C  C93  1  0.18652771  0.60178225  0.39841984  1  0.045205  0  -0.011505  -0.113751  0  3.946862  0
C  C94  1  0.28100330  0.66086214  0.38502476  1  -0.024834  0  -0.004698  0.068584  0  3.906668  0
C  C95  1  0.20645690  0.59067139  0.35335151  1  0.119865  0  0.015726  0.065871  0  3.989247  0
C  C96  1  0.22404643  0.63905798  0.41273192  1  0.003579  0  -0.005268  0.064613  0  3.909647  0
C  C97  1  0.26462540  0.61276071  0.32499248  1  0.10211  0  0.018551  0.072437  0  3.978775  0
C  C98  1  0.29598902  0.69260463  0.42108301  1  -0.024846  0  -0.149068  -0.193969  0  3.874309  0
C  C99  1  0.23105307  0.66797430  0.45255215  1  -0.033945  0  -0.149534  -0.197937  0  3.869814  0
C  C100  1  0.71179653  0.64875046  0.34033258  1  0.097299  0  -0.013611  -0.121838  0  3.931323  0
C  C101  1  0.82261687  0.59101369  0.39669673  1  0.016217  0  -0.012535  -0.118968  0  3.933736  0
C  C102  1  0.68053547  0.65755265  0.38481581  1  -0.004657  0  -0.005043  0.066764  0  3.90736  0
C  C103  1  0.85690878  0.58090336  0.35137033  1  0.112244  0  0.016903  0.066967  0  3.975225  0
C  C104  1  0.73341643  0.63018178  0.41170730  1  0.014725  0  -0.004914  0.068115  0  3.909828  0
C  C105  1  0.80287426  0.61015251  0.32383728  1  0.041448  0  0.018452  0.071  0  3.972351  0
C  C106  1  0.59885402  0.68985647  0.42153406  1  -0.033149  0  -0.149302  -0.193171  0  3.875977  0
C  C107  1  0.65898881  0.65920878  0.45208979  1  -0.016758  0  -0.150093  -0.198003  0  3.877449  0
C  C108  1  0.31179228  0.37090590  0.64987188  1  0.049009  0  -0.013912  -0.12284  0  3.9304  0
C  C109  1  0.19753328  0.42797434  0.59523014  1  0.020672  0  -0.014739  -0.125376  0  3.937013  0
C  C110  1  0.27533456  0.32923618  0.63876332  1  -0.047091  0  -0.003333  0.070802  0  3.903493  0
C  C111  1  0.23214803  0.47284273  0.60661139  1  0.144969  0  0.01532  0.068551  0  3.978198  0
C  C112  1  0.22076065  0.35651275  0.61272118  1  0.025193  0  -0.004753  0.069004  0  3.906154  0
C  C113  1  0.28814006  0.44491279  0.63317127  1  0.069484  0  0.017489  0.069556  0  3.974601  0
C  C114  1  0.27093006  0.25388957  0.64438365  1  -0.002623  0  -0.150093  -0.196328  0  3.875308  0
C  C115  1  0.20883477  0.28496947  0.61484447  1  -0.01894  0  -0.149639  -0.19603  0  3.875855  0
C  C116  1  0.30186240  0.58673555  0.82223255  1  0.160228  0  0.010529  0.105259  0  4.077082  0
C  C117  1  0.19895316  0.66631881  0.93197592  1  0.153373  0  0.010651  0.105019  0  4.078291  0
C  C118  1  0.32844356  0.51208362  0.83568563  1  -0.124348  0  -0.02796  -0.186017  0  3.931193  0
C  C119  1  0.17093527  0.74099698  0.91846638  1  -0.111087  0  -0.028112  -0.185282  0  3.929473  0
C  C120  1  0.24640257  0.61005500  0.89681747  1  -0.211858  0  -0.02761  -0.072931  0  4.095285  0
C  C121  1  0.25430626  0.64300856  0.85737391  1  -0.106114  0  -0.028174  -0.072984  0  4.096641  0
C  C122  1  0.78077133  0.10378103  0.91599108  1  0.002683  0  -0.011728  -0.114806  0  3.938945  0
C  C123  1  0.66702270  0.15487422  0.86124503  1  0.017636  0  -0.013302  -0.123742  0  3.930264  0
C  C124  1  0.81052213  0.09600633  0.87153807  1  0.00092  0  -0.005593  0.065891  0  3.910338  0
C  C125  1  0.63462693  0.16236356  0.90664873  1  0.100382  0  0.016297  0.06905  0  3.978964  0
C  C126  1  0.75615513  0.12104253  0.84538995  1  0.003719  0  -0.004197  0.069614  0  3.903844  0
C  C127  1  0.69024556  0.13780152  0.93333352  1  0.124849  0  0.015679  0.065538  0  3.987816  0
C  C128  1  0.89120236  0.06714922  0.83428342  1  -0.055591  0  -0.150325  -0.198592  0  3.872038  0
C  C129  1  0.82943721  0.09633398  0.80455097  1  -0.035855  0  -0.14895  -0.193114  0  3.869624  0
C  C130  1  0.18902629  0.08910248  0.89071286  1  0.027737  0  -0.012555  -0.119814  0  3.930202  0
C  C131  1  0.29551869  0.15015267  0.83477534  1  0.059521  0  -0.013031  -0.12218  0  3.932428  0
C  C132  1  0.22504211  0.12709517  0.90591282  1  -0.016221  0  -0.005013  0.06872  0  3.907245  0
C  C133  1  0.25978371  0.11159540  0.81812362  1  0.104181  0  0.016061  0.068187  0  3.977281  0
C  C134  1  0.27545118  0.15662322  0.87926451  1  0.005057  0  -0.00414  0.069089  0  3.903727  0
C  C135  1  0.20825901  0.08140390  0.84539718  1  0.104826  0  0.016034  0.067464  0  3.978542  0
C  C136  1  0.23180850  0.15388020  0.94642641  1  -0.019243  0  -0.149685  -0.196736  0  3.876474  0
C  C137  1  0.28896900  0.18754182  0.91619264  1  -0.01334  0  -0.149615  -0.197293  0  3.871001  0
C  C138  1  0.67076818  0.44094245  0.14936576  1  0.196217  0  0.0112  0.104694  0  4.082698  0
C  C139  1  0.89286063  0.30675145  0.09897251  1  0.147086  0  0.009779  0.104589  0  4.07691  0
C  C140  1  0.69429957  0.49257173  0.16153080  1  -0.173409  0  -0.027326  -0.181706  0  3.930452  0
C  C141  1  0.86755702  0.25655487  0.08669734  1  -0.108909  0  -0.029356  -0.190325  0  3.933996  0
C  C142  1  0.82102854  0.37482588  0.12187697  1  -0.120883  0  -0.026844  -0.071132  0  4.074991  0
C  C143  1  0.74330915  0.37386855  0.12657421  1  -0.167939  0  -0.0291  -0.075893  0  4.113673  0
C  C144  1  0.19073464  0.88839681  0.09901233  1  0.042957  0  -0.015219  -0.126695  0  3.941067  0
C  C145  1  0.29968625  0.83556520  0.15593892  1  0.048664  0  -0.012798  -0.119104  0  3.945007  0
C  C146  1  0.22477963  0.93173156  0.11071408  1  -0.010936  0  -0.005124  0.067467  0  3.90672  0
C  C147  1  0.26577621  0.78995681  0.14482619  1  0.144865  0  0.016482  0.068365  0  3.985267  0
C  C148  1  0.27600520  0.90691706  0.13843777  1  -0.019444  0  -0.004122  0.068084  0  3.905245  0
C  C149  1  0.21280551  0.81558362  0.11687842  1  0.088357  0  0.017013  0.070511  0  3.982134  0
C  C150  1  0.22895550  0.00715548  0.10452642  1  -0.008514  0  -0.149729  -0.197836  0  3.874411  0
C  C151  1  0.28660720  0.97924710  0.13631772  1  -0.01821  0  -0.148481  -0.194946  0  3.866017  0
C  C152  1  0.77735987  0.92660883  0.09572177  1  0.003161  0  -0.01144  -0.1172  0  3.932839  0
C  C153  1  0.66445184  0.87234756  0.15183650  1  0.094101  0  -0.014742  -0.127013  0  3.938638  0
C  C154  1  0.80764916  0.85541315  0.11347359  1  0.029281  0  -0.004665  0.067407  0  3.907254  0
C  C155  1  0.63131330  0.94466149  0.13347952  1  0.115361  0  0.017021  0.070682  0  3.981159  0
C  C156  1  0.75371183  0.82987998  0.14062715  1  -0.101496  0  -0.004472  0.070297  0  3.905598  0
C  C157  1  0.68650549  0.97125113  0.10623249  1  0.126619  0  0.016363  0.066529  0  3.984803  0
C  C158  1  0.88865009  0.78395057  0.11625580  1  -0.007016  0  -0.150136  -0.197932  0  3.873934  0
C  C159  1  0.82738429  0.75509084  0.14726653  1  -0.023163  0  -0.14863  -0.194635  0  3.872681  0
S  S160  1  0.86969498  0.79215839  0.60368315  1  0.321716  0  0.093437  0.160626  0  2.796153  0
S  S161  1  0.61157083  0.95789797  0.64432570  1  0.302133  0  0.092343  0.15663  0  2.766557  0
S  S162  1  0.21342835  0.15354692  0.44692815  1  0.285893  0  0.092268  0.155334  0  2.758896  0
S  S163  1  0.29429855  0.07834282  0.31780214  1  0.31801  0  0.09649  0.16511  0  2.800558  0
S  S164  1  0.29557274  0.51078209  0.89112221  1  0.34073  0  0.094911  0.161277  0  2.77588  0
S  S165  1  0.20312631  0.74233272  0.86300204  1  0.340297  0  0.092821  0.158294  0  2.78276  0
S  S166  1  0.80506841  0.45881992  0.14499993  1  0.309322  0  0.091857  0.154337  0  2.748404  0
S  S167  1  0.75676798  0.29180925  0.10322406  1  0.349684  0  0.098745  0.171002  0  2.826209  0
Cl  Cl168  1  0.64690665  0.79174401  0.58727916  1  -0.16209  0  0.00609  -0.034936  0  1.482279  0
Cl  Cl169  1  0.83559673  0.95519590  0.66120062  1  -0.153149  0  0.011255  -0.026601  0  1.493656  0
Cl  Cl170  1  0.18332787  0.28086643  0.33553523  1  -0.145445  0  0.015761  -0.020592  0  1.503971  0
Cl  Cl171  1  0.32302712  0.94806149  0.42821036  1  -0.160188  0  0.006074  -0.035711  0  1.484602  0
Cl  Cl172  1  0.32020458  0.61177567  0.77070954  1  -0.15992  0  0.009002  -0.02945  0  1.494343  0
Cl  Cl173  1  0.18038276  0.64133417  0.98347866  1  -0.157469  0  0.011788  -0.026474  0  1.497162  0
Cl  Cl174  1  0.56952498  0.45269757  0.15859074  1  -0.144692  0  0.016936  -0.019473  0  1.501179  0
Cl  Cl175  1  0.99603981  0.29104863  0.08843875  1  -0.160478  0  0.005623  -0.036582  0  1.471661  0
Cl  Cl176  1  0.97509347  0.25411436  0.60677343  1  -0.156433  0  -0.007199  -0.054772  0  1.613656  0
Cl  Cl177  1  0.86355425  0.19553127  0.66707310  1  -0.158494  0  -0.008378  -0.05622  0  1.609094  0
Cl  Cl178  1  0.15625515  0.55321833  0.33190014  1  -0.162088  0  -0.006862  -0.055065  0  1.630758  0
Cl  Cl179  1  0.28654087  0.59282639  0.27117391  1  -0.153446  0  -0.004569  -0.046942  0  1.62922  0
Cl  Cl180  1  0.96563796  0.53014070  0.32770760  1  -0.149903  0  -0.005031  -0.048151  0  1.648541  0
Cl  Cl181  1  0.85220702  0.59743274  0.26970597  1  -0.157569  0  -0.005072  -0.051186  0  1.613777  0
Cl  Cl182  1  0.20580455  0.56406808  0.58933970  1  -0.164659  0  -0.008962  -0.057527  0  1.605251  0
Cl  Cl183  1  0.32576340  0.50446921  0.64482376  1  -0.155557  0  -0.008911  -0.056637  0  1.614423  0
Cl  Cl184  1  0.52638705  0.20003723  0.93134964  1  -0.162222  0  -0.007961  -0.055576  0  1.601125  0
Cl  Cl185  1  0.64542621  0.14672966  0.98774113  1  -0.152586  0  -0.008094  -0.054156  0  1.65966  0
Cl  Cl186  1  0.27594738  0.10151309  0.76389318  1  -0.161509  0  -0.009293  -0.056997  0  1.602218  0
Cl  Cl187  1  0.17167520  0.03283797  0.82164658  1  -0.16075  0  -0.008996  -0.057203  0  1.60065  0
Cl  Cl188  1  0.28494056  0.70314914  0.16684341  1  -0.169827  0  -0.006432  -0.052738  0  1.617102  0
Cl  Cl189  1  0.17870915  0.75411386  0.10389585  1  -0.165996  0  -0.008691  -0.0572  0  1.596625  0
Cl  Cl190  1  0.52247828  0.00368527  0.14401668  1  -0.172096  0  -0.00778  -0.056108  0  1.602844  0
Cl  Cl191  1  0.63970645  0.05879589  0.08516626  1  -0.158733  0  -0.007416  -0.050959  0  1.666464  0
O  O192  1  0.99973317  0.50009484  0.50102494  1  -1.237627  0  -0.57589  -1.03467  0  2.541542  0
O  O193  1  0.83256359  0.56241412  0.46670436  1  -1.161267  0  -0.308329  -0.539593  0  2.294261  0
O  O194  1  0.09664145  0.36985735  0.42120318  1  -1.162964  0  -0.313394  -0.535526  0  2.362527  0
O  O195  1  0.95911458  0.37405577  0.55169303  1  -1.188271  0  -0.315381  -0.546213  0  2.428824  0
O  O196  1  0.95302521  0.54621193  0.41499501  1  -1.164245  0  -0.315803  -0.547594  0  2.421893  0
O  O197  1  0.83394131  0.48504953  0.55874541  1  -1.165491  0  -0.307487  -0.53795  0  2.307062  0
O  O198  1  0.13138591  0.31293436  0.48111908  1  -1.169524  0  -0.319056  -0.542404  0  2.310107  0
O  O199  1  0.10829784  0.40485442  0.56597118  1  -1.159335  0  -0.308015  -0.53667  0  2.328263  0
O  O200  1  0.94406703  0.65321094  0.55501682  1  -1.160852  0  -0.320681  -0.546203  0  2.341107  0
O  O201  1  0.13039747  0.50789707  0.54441995  1  -1.170516  0  -0.314893  -0.547714  0  2.400644  0
O  O202  1  0.82460398  0.65141198  0.54808258  1  -1.161262  0  -0.312732  -0.539473  0  2.327066  0
O  O203  1  0.13815557  0.50884645  0.41965438  1  -1.166442  0  -0.318054  -0.552449  0  2.377579  0
O  O204  1  0.09205139  0.61106820  0.46626618  1  -1.155012  0  -0.307011  -0.530914  0  2.275876  0
O  O205  1  0.49989709  0.25047984  0.75060204  1  -1.231758  0  -0.571949  -1.03075  0  2.531908  0
O  O206  1  0.68681862  0.23778703  0.70355734  1  -1.16768  0  -0.312379  -0.544778  0  2.405697  0
O  O207  1  0.40958340  0.43682876  0.77050499  1  -1.17062  0  -0.314227  -0.538393  0  2.362584  0
O  O208  1  0.53423237  0.22054400  0.84321855  1  -1.165895  0  -0.313321  -0.54592  0  2.408719  0
O  O209  1  0.58119201  0.35400806  0.69407018  1  -1.168276  0  -0.307418  -0.534109  0  2.34975  0
O  O210  1  0.65956499  0.15748619  0.79084015  1  -1.158282  0  -0.308798  -0.538474  0  2.335312  0
O  O211  1  0.38438422  0.37819138  0.83193694  1  -1.171059  0  -0.318055  -0.542682  0  2.325627  0
O  O212  1  0.36410721  0.22617520  0.83084084  1  -1.149935  0  -0.307859  -0.537148  0  2.324931  0
O  O213  1  0.54219698  0.10598276  0.68799469  1  -1.172069  0  -0.320152  -0.543709  0  2.32358  0
O  O214  1  0.38629029  0.16244990  0.76939223  1  -1.159481  0  -0.313847  -0.544898  0  2.410075  0
O  O215  1  0.66241453  0.08963115  0.70392796  1  -1.165015  0  -0.312728  -0.537238  0  2.354968  0
O  O216  1  0.40901620  0.36963773  0.68580802  1  -1.171246  0  -0.313418  -0.543247  0  2.416496  0
O  O217  1  0.37739686  0.27001961  0.69087784  1  -1.158973  0  -0.308241  -0.537681  0  2.333156  0
O  O218  1  0.50090157  0.74904476  0.25135634  1  -1.222335  0  -0.575606  -1.033879  0  2.542074  0
O  O219  1  0.40437316  0.69367689  0.33445133  1  -1.166182  0  -0.31067  -0.543553  0  2.311929  0
O  O220  1  0.56026185  0.58643048  0.20209379  1  -1.167135  0  -0.314282  -0.537756  0  2.367348  0
O  O221  1  0.67774588  0.66516992  0.27403617  1  -1.170137  0  -0.314836  -0.545961  0  2.437837  0
O  O222  1  0.37614125  0.67543238  0.27381497  1  -1.182738  0  -0.314282  -0.545639  0  2.420482  0
O  O223  1  0.57003384  0.71233777  0.33603741  1  -1.161599  0  -0.307899  -0.536715  0  2.317574  0
O  O224  1  0.67562377  0.60904508  0.18803362  1  -1.160524  0  -0.318833  -0.542957  0  2.312999  0
O  O225  1  0.65886315  0.77659612  0.19695489  1  -1.161842  0  -0.308605  -0.537584  0  2.342487  0
O  O226  1  0.38944919  0.92847229  0.27994399  1  -1.180411  0  -0.319989  -0.544933  0  2.344853  0
O  O227  1  0.53254503  0.87086444  0.18831724  1  -1.186584  0  -0.313826  -0.547868  0  2.402486  0
O  O228  1  0.39537988  0.85944468  0.33940017  1  -1.160903  0  -0.312594  -0.537102  0  2.337204  0
O  O229  1  0.41092462  0.73955352  0.18251650  1  -1.172262  0  -0.316681  -0.549564  0  2.378041  0
O  O230  1  0.35716632  0.86616823  0.20328285  1  -1.151557  0  -0.30746  -0.532227  0  2.288993  0
O  O231  1  0.00065377  0.00122499  0.00111461  1  -1.233674  0  -0.574367  -1.034864  0  2.539474  0
O  O232  1  0.08079450  0.89718968  0.07071961  1  -1.161159  0  -0.316682  -0.55049  0  2.392161  0
O  O233  1  0.99622911  0.14854933  0.04735269  1  -1.173157  0  -0.312022  -0.537797  0  2.308529  0
O  O234  1  0.81719679  0.02123389  0.06304557  1  -1.155792  0  -0.311253  -0.541111  0  2.402081  0
O  O235  1  0.14288739  0.97476028  0.04782909  1  -1.164751  0  -0.308997  -0.538422  0  2.310195  0
O  O236  1  0.91762676  0.89467249  0.05481914  1  -1.163551  0  -0.307356  -0.5355  0  2.318047  0
O  O237  1  0.86497359  0.15513919  0.05754081  1  -1.173577  0  -0.319475  -0.543768  0  2.37701  0
O  O238  1  0.82246457  0.10962156  0.97799126  1  -1.165927  0  -0.312477  -0.542418  0  2.379934  0
O  O239  1  0.09883151  0.87525718  0.92094172  1  -1.182973  0  -0.320875  -0.547614  0  2.326057  0
O  O240  1  0.91887426  0.02224292  0.92208657  1  -1.163654  0  -0.308632  -0.53646  0  2.307141  0
O  O241  1  0.09585831  0.81637771  0.98392323  1  -1.148953  0  -0.313065  -0.538015  0  2.355457  0
O  O242  1  0.14065364  0.05967907  0.96053962  1  -1.161785  0  -0.308256  -0.538476  0  2.317385  0
O  O243  1  0.08415608  0.04452483  0.91037820  1  -1.159618  0  -0.314797  -0.546789  0  2.39789  0
