# generated using pymatgen
data_Fe3H14C20(NO4)4
_symmetry_space_group_name_H-M   'P 1'
_cell_length_a   6.42543727
_cell_length_b   9.40117945
_cell_length_c   10.24350791
_cell_angle_alpha   108.21035810
_cell_angle_beta   91.44025786
_cell_angle_gamma   101.60995474
_symmetry_Int_Tables_number   1
_chemical_formula_structural   Fe3H14C20(NO4)4
_chemical_formula_sum   'Fe3 H14 C20 N4 O16'
_cell_volume   573.17720138
_cell_formula_units_Z   1
loop_
 _symmetry_equiv_pos_site_id
 _symmetry_equiv_pos_as_xyz
  1  'x, y, z'
loop_
 _atom_site_type_symbol
 _atom_site_label
 _atom_site_symmetry_multiplicity
 _atom_site_fract_x
 _atom_site_fract_y
 _atom_site_fract_z
 _atom_site_occupancy
 _atom_site_hle17_ddec_charge
 _atom_site_hle17_ddec_spin_density
 _atom_site_hle17_ddec_sum_bond_order
 _atom_site_hle17_magmom
 _atom_site_hse06_10hf_ddec_charge
 _atom_site_hse06_10hf_ddec_spin_density
 _atom_site_hse06_10hf_ddec_sum_bond_order
 _atom_site_hse06_10hf_magmom
 _atom_site_hse06_ddec_charge
 _atom_site_hse06_ddec_spin_density
 _atom_site_hse06_ddec_sum_bond_order
 _atom_site_hse06_magmom
 _atom_site_pbe_cm5_charge
 _atom_site_pbe_ddec_charge
 _atom_site_pbe_ddec_spin_density
 _atom_site_pbe_ddec_sum_bond_order
 _atom_site_pbe_magmom
Fe  Fe0  1  0.29197326  0.18500528  0.65796871  1  1.140342  -3.915703  1.922669  -3.674  1.023294  -3.885169  2.40768  -3.675  1.08153  -3.897295  2.332803  -3.716  0.697588  0.976731  -3.882683  2.463224  -3.638
Fe  Fe1  1  0.70802773  0.81499350  0.34202985  1  1.140348  -3.915696  1.922688  -3.674  1.023291  -3.88516  2.407713  -3.675  1.08153  -3.897287  2.332836  -3.716  0.697614  0.976725  -3.882726  2.463259  -3.638
Fe  Fe2  1  0.49999990  0.49999997  0.50000041  1  1.181351  3.94612  1.885018  3.654  1.078907  3.894587  2.355318  3.649  1.137426  3.905304  2.278267  3.699  0.672289  1.054821  3.915163  2.406541  3.628
H  H3  1  0.33252266  0.22707904  0.12430561  1  0.115555  -0.000208  0.937537  0.0  0.123412  -0.000264  1.000503  0.0  0.129208  -0.00023  0.995615  0.0  0.109709  0.118443  -0.000273  1.004932  0.0
H  H4  1  0.66747211  0.77291975  0.87569384  1  0.115516  -0.000208  0.937616  0.0  0.123379  -0.000264  1.000567  0.0  0.129174  -0.00023  0.995682  0.0  0.109707  0.118408  -0.000273  1.004998  0.0
H  H5  1  0.12490952  0.66101529  0.02130354  1  0.117693  9e-06  0.916954  0.0  0.127278  -3.1e-05  0.975442  0.0  0.132918  -1e-06  0.970134  0.0  0.113387  0.12248  -1e-05  0.980194  0.0
H  H6  1  0.87509027  0.33898464  0.97869631  1  0.117683  8e-06  0.916964  0.0  0.127256  -3.1e-05  0.975464  0.0  0.132894  -1e-06  0.970158  0.0  0.113377  0.122458  -1e-05  0.980215  0.0
H  H7  1  0.15362252  0.75341712  0.59576774  1  0.313518  0.000221  0.869329  0.0  0.292927  0.000185  0.929006  0.0  0.302509  0.000106  0.921213  0.0  0.332329  0.284959  0.000234  0.935963  0.0
H  H8  1  0.84637573  0.24658282  0.40423404  1  0.313632  0.000222  0.869215  0.0  0.292959  0.000185  0.928963  0.0  0.302544  0.000106  0.92117  0.0  0.332354  0.284994  0.000234  0.935914  0.0
H  H9  1  0.72872730  0.34901045  0.59440359  1  0.410181  -0.000115  0.911705  -0.001  0.378293  9.1e-05  0.977985  0.0  0.39048  4.9e-05  0.960468  -0.001  0.289758  0.369965  0.000154  0.989927  0.0
H  H10  1  0.27127248  0.65098948  0.40559527  1  0.410115  -0.000115  0.911783  -0.001  0.378223  9.1e-05  0.97807  0.0  0.390411  4.9e-05  0.960553  -0.001  0.289756  0.369892  0.000154  0.990015  0.0
H  H11  1  0.89781198  0.50383024  0.61171092  1  0.428136  0.000346  0.86625  0.001  0.398718  0.00052  0.931002  0.002  0.409557  0.000435  0.915309  0.002  0.29437  0.391103  0.000542  0.94204  0.002
H  H12  1  0.10218626  0.49616970  0.38828988  1  0.428138  0.000346  0.866257  0.001  0.398718  0.00052  0.931008  0.002  0.409558  0.000435  0.915314  0.002  0.294373  0.391102  0.000542  0.942046  0.002
H  H13  1  0.25130859  0.49845896  0.71616466  1  0.442844  8.6e-05  0.856064  0.0  0.407944  0.000113  0.925121  0.0  0.419299  4.6e-05  0.909022  0.0  0.301954  0.40108  0.000149  0.934763  0.0
H  H14  1  0.74869276  0.50154098  0.28383619  1  0.442826  8.5e-05  0.856093  0.0  0.407923  0.000113  0.925153  0.0  0.419277  4.6e-05  0.909055  0.0  0.301944  0.401058  0.000149  0.934796  0.0
H  H15  1  0.48379493  0.48183901  0.76146157  1  0.437623  5.5e-05  0.78616  0.0  0.424918  7.9e-05  0.829214  0.0  0.432434  8.5e-05  0.822314  0.0  0.342009  0.42037  6.6e-05  0.832924  0.0
H  H16  1  0.51620486  0.51816093  0.23853827  1  0.437611  5.5e-05  0.786171  0.0  0.424904  7.9e-05  0.829228  0.0  0.432419  8.5e-05  0.822328  0.0  0.342006  0.420356  6.6e-05  0.832937  0.0
C  C17  1  0.26585119  0.06933172  0.85284255  1  0.421112  0.008355  3.961451  0.013  0.385709  0.003874  4.249078  0.006  0.407739  0.003354  4.260821  0.005  0.192565  0.370866  0.002819  4.238526  0.004
C  C18  1  0.73414563  0.93066363  0.14715693  1  0.421157  0.008364  3.961498  0.013  0.38572  0.003876  4.249169  0.006  0.407752  0.003353  4.260907  0.005  0.192564  0.370882  0.002817  4.238612  0.004
C  C19  1  0.24862938  0.00753264  0.96562483  1  -0.050002  0.00028  3.79067  -0.001  -0.032718  0.001459  4.016857  0.001  -0.035448  0.000222  4.037544  0.0  -0.009263  -0.032837  0.003304  4.006842  0.004
C  C20  1  0.75136645  0.99246959  0.03437464  1  -0.049954  0.000279  3.790588  -0.001  -0.032665  0.00146  4.016786  0.001  -0.035412  0.000224  4.037515  0.0  -0.00927  -0.032779  0.003305  4.006748  0.004
C  C21  1  0.28839384  0.10353997  0.10268487  1  -0.060565  0.000661  3.693768  0.001  -0.099487  -0.000337  3.955201  -0.001  -0.099137  0.000617  3.970848  0.001  -0.074379  -0.101275  -0.003225  3.949462  -0.005
C  C22  1  0.71160056  0.89645767  0.89731327  1  -0.060603  0.00066  3.693815  0.001  -0.099528  -0.000341  3.955259  -0.001  -0.099182  0.000615  3.970914  0.001  -0.074413  -0.101318  -0.003226  3.949518  -0.005
C  C23  1  0.27099557  0.04303588  0.21074061  1  -0.080393  0.000739  3.716082  0.0  -0.073945  0.001519  3.967146  0.001  -0.078413  0.000451  3.983364  0.0  -0.012568  -0.073621  0.002551  3.961211  0.003
C  C24  1  0.72900925  0.95696520  0.78925963  1  -0.080381  0.000742  3.716053  0.0  -0.07394  0.001521  3.967144  0.001  -0.078406  0.000452  3.98336  0.0  -0.012555  -0.073621  0.002552  3.961198  0.003
C  C25  1  0.21145367  0.88161301  0.18152726  1  -0.032209  0.00698  3.672033  0.009  -0.022138  0.004901  3.911698  0.006  -0.019686  0.002917  3.923749  0.003  0.006035  -0.025003  0.006531  3.905578  0.008
C  C26  1  0.78854458  0.11838693  0.81847451  1  -0.032228  0.006973  3.672072  0.009  -0.02216  0.004904  3.911751  0.006  -0.019711  0.002915  3.923799  0.003  0.005975  -0.025019  0.006531  3.905621  0.008
C  C27  1  0.17142423  0.78512997  0.04539899  1  -0.05532  -0.001456  3.640296  -0.003  -0.092043  0.00021  3.898449  -0.001  -0.090025  -3.3e-05  3.907612  -0.001  -0.06833  -0.094071  0.000663  3.895851  0.0
C  C28  1  0.82857437  0.21487112  0.95460312  1  -0.055317  -0.001446  3.64033  -0.003  -0.092033  0.000206  3.898465  -0.001  -0.090013  -3.3e-05  3.907625  -0.001  -0.0683  -0.094066  0.000663  3.895866  0.0
C  C29  1  0.18889361  0.84633811  0.93618350  1  -0.049105  0.005993  3.756686  0.008  -0.037778  0.004341  3.998373  0.005  -0.038119  0.002083  4.014143  0.003  -0.006181  -0.040013  0.006448  3.991178  0.008
C  C30  1  0.81110584  0.15366069  0.06381797  1  -0.049082  0.005984  3.756588  0.008  -0.037717  0.00434  3.998227  0.005  -0.038056  0.002085  4.01399  0.003  -0.00615  -0.039953  0.006448  3.991024  0.008
C  C31  1  0.14600701  0.74882990  0.79311576  1  0.478116  0.003017  3.827945  0.003  0.420078  0.001855  4.127367  0.001  0.446992  0.001194  4.128046  0.001  0.224134  0.402928  0.002425  4.127223  0.002
C  C32  1  0.85399159  0.25117120  0.20688635  1  0.478308  0.003023  3.827827  0.003  0.420221  0.001856  4.127275  0.001  0.447139  0.001194  4.127949  0.001  0.22421  0.403073  0.002426  4.127126  0.002
C  C33  1  0.31626401  0.15122785  0.35470242  1  0.688666  0.000523  3.842236  0.001  0.632065  -0.00052  4.146037  -0.001  0.670332  0.000181  4.135421  0.0  0.225969  0.60258  -0.004683  4.157099  -0.007
C  C34  1  0.68373698  0.84877093  0.64529614  1  0.688628  0.000523  3.84214  0.001  0.632011  -0.00052  4.145976  -0.001  0.67028  0.000181  4.135364  0.0  0.225993  0.602536  -0.004683  4.157009  -0.007
C  C35  1  0.19392456  0.81048170  0.29467355  1  0.709938  -4.4e-05  3.821316  -0.001  0.65851  -0.002468  4.116426  -0.005  0.693685  -0.001532  4.107486  -0.004  0.238797  0.633986  -0.002323  4.119956  -0.004
C  C36  1  0.80607800  0.18951710  0.70532894  1  0.709892  -4.4e-05  3.821397  -0.001  0.658486  -0.002467  4.116468  -0.005  0.693662  -0.001531  4.107526  -0.004  0.238851  0.633956  -0.002323  4.120003  -0.004
N  N37  1  0.23032787  0.97618667  0.72152533  1  -0.35491  -0.025338  3.093121  -0.044  -0.338915  -0.022726  3.40565  -0.036  -0.357643  -0.020012  3.416501  -0.031  -0.257834  -0.324355  -0.025466  3.397274  -0.041
N  N38  1  0.76967312  0.02381211  0.27847323  1  -0.354881  -0.02535  3.093193  -0.044  -0.338896  -0.022729  3.405712  -0.036  -0.357621  -0.020013  3.416564  -0.031  -0.257832  -0.324338  -0.025466  3.397337  -0.041
N  N39  1  0.17151009  0.82187061  0.69761282  1  -0.210538  -0.004435  3.412923  -0.007  -0.14845  -0.003494  3.659888  -0.005  -0.162847  -0.004022  3.673675  -0.007  -0.267422  -0.139115  -0.003002  3.651339  -0.004
N  N40  1  0.82848936  0.17812819  0.30238865  1  -0.210847  -0.004443  3.413047  -0.007  -0.148642  -0.003495  3.660025  -0.005  -0.163053  -0.004023  3.673831  -0.007  -0.267479  -0.139306  -0.003002  3.651479  -0.004
O  O41  1  0.31503719  0.21461139  0.86858071  1  -0.611074  -0.033883  1.97928  -0.056  -0.56802  -0.032378  2.229462  -0.05  -0.602399  -0.02594  2.224685  -0.037  -0.338045  -0.539854  -0.038768  2.228273  -0.061
O  O42  1  0.68496606  0.78538968  0.13141853  1  -0.611086  -0.033879  1.979441  -0.056  -0.568028  -0.032377  2.229644  -0.05  -0.602402  -0.02594  2.224865  -0.037  -0.338051  -0.539862  -0.038763  2.228453  -0.061
O  O43  1  0.08539687  0.60188138  0.75459678  1  -0.619905  0.000448  2.011303  0.001  -0.562447  0.000606  2.235717  0.001  -0.582717  0.000432  2.223707  0.001  -0.321806  -0.550327  0.000532  2.244108  0.001
O  O44  1  0.91460519  0.39812086  0.24540570  1  -0.619945  0.000448  2.011271  0.001  -0.562485  0.000605  2.235717  0.001  -0.58275  0.000432  2.2237  0.001  -0.321827  -0.550364  0.000533  2.244108  0.001
O  O45  1  0.37667078  0.29303464  0.36835177  1  -0.650262  0.031018  2.136667  0.041  -0.595122  0.029709  2.425397  0.034  -0.627511  0.025799  2.407698  0.025  -0.327346  -0.575813  0.034285  2.443341  0.046
O  O46  1  0.62332675  0.70696300  0.63164837  1  -0.650221  0.031019  2.136572  0.041  -0.595088  0.02971  2.425332  0.034  -0.627476  0.0258  2.407632  0.025  -0.327329  -0.575786  0.034287  2.443269  0.046
O  O47  1  0.29152348  0.09622665  0.45362510  1  -0.595562  -0.029176  2.09239  -0.037  -0.532773  -0.028634  2.366891  -0.031  -0.564676  -0.023907  2.351266  -0.022  -0.297451  -0.51054  -0.03411  2.380533  -0.041
O  O48  1  0.70848132  0.90377442  0.54637319  1  -0.595541  -0.029176  2.092344  -0.037  -0.532756  -0.028634  2.366895  -0.031  -0.564654  -0.023907  2.351254  -0.022  -0.297495  -0.51051  -0.034109  2.38051  -0.041
O  O49  1  0.35785402  0.76610192  0.32780217  1  -0.6473  -0.017895  2.111474  -0.03  -0.586429  -0.019085  2.367545  -0.029  -0.618154  -0.015935  2.35398  -0.023  -0.306694  -0.563009  -0.022972  2.376074  -0.036
O  O50  1  0.64214718  0.23390259  0.67219704  1  -0.647334  -0.017896  2.111533  -0.03  -0.586486  -0.019086  2.367605  -0.029  -0.618212  -0.015936  2.35404  -0.023  -0.306756  -0.563064  -0.022974  2.376133  -0.036
O  O51  1  0.01995956  0.78431678  0.34647946  1  -0.611362  -0.024068  2.07519  -0.042  -0.561787  -0.023049  2.345186  -0.036  -0.592878  -0.019282  2.331506  -0.029  -0.306699  -0.536985  -0.028767  2.353464  -0.047
O  O52  1  0.98003954  0.21568087  0.65352168  1  -0.611287  -0.024067  2.075221  -0.042  -0.561712  -0.023049  2.345185  -0.036  -0.592801  -0.019282  2.331501  -0.029  -0.306661  -0.536915  -0.028766  2.353474  -0.047
O  O53  1  0.77820376  0.42832010  0.54676085  1  -0.852506  0.021355  1.970378  0.035  -0.802636  0.022099  2.188403  0.032  -0.829307  0.01842  2.151939  0.026  -0.578658  -0.780974  0.027314  2.21149  0.041
O  O54  1  0.22179950  0.57168098  0.45323937  1  -0.852466  0.021355  1.970439  0.035  -0.802611  0.022099  2.188479  0.032  -0.829276  0.018421  2.152002  0.026  -0.578678  -0.780948  0.027315  2.211567  0.041
O  O55  1  0.36927215  0.43877168  0.68647293  1  -0.813385  -0.000826  1.979705  0.0  -0.757868  -0.000702  2.209509  0.0  -0.786396  -0.000857  2.178565  0.0  -0.532079  -0.73507  0.000701  2.225735  0.002
O  O56  1  0.63072921  0.56122825  0.31352792  1  -0.813356  -0.000827  1.979718  0.0  -0.757838  -0.000703  2.209535  0.0  -0.786367  -0.000857  2.178596  0.0  -0.532065  -0.735041  0.0007  2.225769  0.002
