# generated using pymatgen
data_CaH3C7NO4
_symmetry_space_group_name_H-M   'P 1'
_cell_length_a   11.46443073
_cell_length_b   11.46440426
_cell_length_c   11.46441661
_cell_angle_alpha   108.76041897
_cell_angle_beta   108.76046364
_cell_angle_gamma   108.76064317
_symmetry_Int_Tables_number   1
_chemical_formula_structural   CaH3C7NO4
_chemical_formula_sum   'Ca6 H18 C42 N6 O24'
_cell_volume   1189.47885530
_cell_formula_units_Z   6
loop_
 _symmetry_equiv_pos_site_id
 _symmetry_equiv_pos_as_xyz
  1  'x, y, z'
loop_
 _atom_site_type_symbol
 _atom_site_label
 _atom_site_symmetry_multiplicity
 _atom_site_fract_x
 _atom_site_fract_y
 _atom_site_fract_z
 _atom_site_occupancy
 _atom_site_hle17_bader_spin_density
 _atom_site_hle17_ddec_charge
 _atom_site_hle17_ddec_spin_density
 _atom_site_hle17_ddec_sum_bond_order
 _atom_site_hle17_magmom
 _atom_site_hse06_10hf_bader_spin_density
 _atom_site_hse06_10hf_ddec_charge
 _atom_site_hse06_10hf_ddec_spin_density
 _atom_site_hse06_10hf_ddec_sum_bond_order
 _atom_site_hse06_10hf_magmom
 _atom_site_hse06_bader_spin_density
 _atom_site_hse06_ddec_charge
 _atom_site_hse06_ddec_spin_density
 _atom_site_hse06_ddec_sum_bond_order
 _atom_site_hse06_magmom
 _atom_site_pbe_bader_spin_density
 _atom_site_pbe_cm5_charge
 _atom_site_pbe_ddec_charge
 _atom_site_pbe_ddec_spin_density
 _atom_site_pbe_ddec_sum_bond_order
 _atom_site_pbe_magmom
Ca  Ca0  1  0.02266542  0.95080070  0.31498916  1  0  1.526919  0  1.122036  0  0  1.381357  0  1.487189  0  0  1.427539  0  1.439707  0  0  0.90933  1.346771  0  1.520669  0
Ca  Ca1  1  0.31499070  0.02266542  0.95079851  1  0  1.526897  0  1.12207  0  0  1.381327  0  1.48724  0  0  1.427492  0  1.439772  0  0  0.909316  1.346734  0  1.520735  0
Ca  Ca2  1  0.95079898  0.31498832  0.02266627  1  0  1.526913  0  1.122047  0  0  1.381361  0  1.48721  0  0  1.427526  0  1.43974  0  0  0.909288  1.346733  0  1.520758  0
Ca  Ca3  1  0.97733515  0.04919970  0.68501042  1  0  1.526924  0  1.122025  0  0  1.381377  0  1.487163  0  0  1.427531  0  1.439698  0  0  0.909335  1.346802  0  1.52062  0
Ca  Ca4  1  0.68501073  0.97733289  0.04920069  1  0  1.526887  0  1.122081  0  0  1.381315  0  1.487249  0  0  1.427491  0  1.439774  0  0  0.909303  1.346717  0  1.520755  0
Ca  Ca5  1  0.04920019  0.68501103  0.97733428  1  0  1.52687  0  1.122108  0  0  1.38131  0  1.487275  0  0  1.427465  0  1.439811  0  0  0.909279  1.346719  0  1.520746  0
H  H6  1  0.54588832  0.17240478  0.76956694  1  0  0.119222  0  0.957135  0  0  0.126944  0  1.019873  0  0  0.130554  0  1.018262  0  0  0.117157  0.12431  0  1.021283  0
H  H7  1  0.76957264  0.54589186  0.17240997  1  0  0.119203  0  0.957107  0  0  0.126885  0  1.019904  0  0  0.130491  0  1.018292  0  0  0.117137  0.124253  0  1.021313  0
H  H8  1  0.17240795  0.76956997  0.54589250  1  0  0.119184  0  0.957138  0  0  0.126897  0  1.019898  0  0  0.130502  0  1.018287  0  0  0.117138  0.124268  0  1.021305  0
H  H9  1  0.45411267  0.82759457  0.23043071  1  0  0.119219  0  0.957129  0  0  0.126939  0  1.019875  0  0  0.130546  0  1.018265  0  0  0.117146  0.124307  0  1.021282  0
H  H10  1  0.23042842  0.45410958  0.82759012  1  0  0.119242  0  0.957036  0  0  0.126893  0  1.019863  0  0  0.130498  0  1.018254  0  0  0.117143  0.124263  0  1.021278  0
H  H11  1  0.82759263  0.23043042  0.45410709  1  0  0.119233  0  0.95709  0  0  0.126937  0  1.019862  0  0  0.130543  0  1.01825  0  0  0.11716  0.124301  0  1.021273  0
H  H12  1  0.68722962  0.25403959  0.65827876  1  0  0.097198  0  0.952569  0  0  0.107896  0  1.011649  0  0  0.110362  0  1.010685  0  0  0.113374  0.105968  0  1.012577  0
H  H13  1  0.65828182  0.68723178  0.25404188  1  0  0.097182  0  0.952558  0  0  0.107894  0  1.011621  0  0  0.110361  0  1.010655  0  0  0.113363  0.105968  0  1.012547  0
H  H14  1  0.25404226  0.65827937  0.68723277  1  0  0.097218  0  0.952499  0  0  0.107891  0  1.011621  0  0  0.110359  0  1.010655  0  0  0.113373  0.10597  0  1.012545  0
H  H15  1  0.31277095  0.74596080  0.34171908  1  0  0.097157  0  0.952558  0  0  0.10786  0  1.011641  0  0  0.110326  0  1.010676  0  0  0.113369  0.105939  0  1.01257  0
H  H16  1  0.34171734  0.31276757  0.74595780  1  0  0.097197  0  0.952562  0  0  0.107894  0  1.011654  0  0  0.110361  0  1.010687  0  0  0.11336  0.105967  0  1.012583  0
H  H17  1  0.74595924  0.34172104  0.31276886  1  0  0.097228  0  0.952522  0  0  0.107914  0  1.011622  0  0  0.110382  0  1.010656  0  0  0.113371  0.105988  0  1.012554  0
H  H18  1  0.56053762  0.18670984  0.40139527  1  0  0.113851  0  0.952797  0  0  0.121427  0  1.017067  0  0  0.125253  0  1.014975  0  0  0.11297  0.118745  0  1.018612  0
H  H19  1  0.40139809  0.56053786  0.18670670  1  0  0.113844  0  0.952881  0  0  0.121445  0  1.01712  0  0  0.125273  0  1.015028  0  0  0.112964  0.118762  0  1.018665  0
H  H20  1  0.18670827  0.40139494  0.56053846  1  0  0.113826  0  0.952828  0  0  0.121403  0  1.017103  0  0  0.12523  0  1.015009  0  0  0.112949  0.118723  0  1.018646  0
H  H21  1  0.43946252  0.81329159  0.59860364  1  0  0.113824  0  0.952849  0  0  0.121423  0  1.017102  0  0  0.12525  0  1.015011  0  0  0.112948  0.118743  0  1.018645  0
H  H22  1  0.59860101  0.43945940  0.81329229  1  0  0.113836  0  0.952873  0  0  0.121442  0  1.017102  0  0  0.125271  0  1.01501  0  0  0.112961  0.11876  0  1.018647  0
H  H23  1  0.81329182  0.59860441  0.43946239  1  0  0.113809  0  0.952848  0  0  0.121389  0  1.017116  0  0  0.125216  0  1.015024  0  0  0.112945  0.118705  0  1.018665  0
C  C24  1  0.25488316  0.03933662  0.64497586  1  0  0.653844  0  3.93854  0  0  0.598182  0  4.248764  0  0  0.633208  0  4.237225  0  0  0.238251  0.574381  0  4.255868  0
C  C25  1  0.64497440  0.25488056  0.03933895  1  0  0.653931  0  3.938392  0  0  0.598289  0  4.248594  0  0  0.633322  0  4.237043  0  0  0.238289  0.574494  0  4.255695  0
C  C26  1  0.03933721  0.64497824  0.25488692  1  0  0.653986  0  3.938283  0  0  0.598261  0  4.24856  0  0  0.633287  0  4.237018  0  0  0.238274  0.574459  0  4.255658  0
C  C27  1  0.74512018  0.96066379  0.35502462  1  0  0.65391  0  3.938573  0  0  0.598265  0  4.248783  0  0  0.633297  0  4.237235  0  0  0.238302  0.574466  0  4.255889  0
C  C28  1  0.35502618  0.74511984  0.96066326  1  0  0.653906  0  3.938408  0  0  0.598231  0  4.248619  0  0  0.633255  0  4.237083  0  0  0.23826  0.574432  0  4.255724  0
C  C29  1  0.96066380  0.35502111  0.74511422  1  0  0.65394  0  3.938489  0  0  0.598185  0  4.248789  0  0  0.633207  0  4.237254  0  0  0.238262  0.574387  0  4.255882  0
C  C30  1  0.34954329  0.08143972  0.58352193  1  0  0.100374  0  3.759931  0  0  0.104716  0  4.008855  0  0  0.104967  0  4.027026  0  0  0.121335  0.104422  0  3.996526  0
C  C31  1  0.58352664  0.34954493  0.08144114  1  0  0.100287  0  3.759798  0  0  0.104586  0  4.008768  0  0  0.104838  0  4.026933  0  0  0.121305  0.104298  0  3.996441  0
C  C32  1  0.08143984  0.58352383  0.34954614  1  0  0.100212  0  3.759859  0  0  0.104621  0  4.008735  0  0  0.104875  0  4.026905  0  0  0.121278  0.104326  0  3.996414  0
C  C33  1  0.65045821  0.91856067  0.41647708  1  0  0.100317  0  3.759882  0  0  0.104613  0  4.008866  0  0  0.104864  0  4.027035  0  0  0.121311  0.10432  0  3.996542  0
C  C34  1  0.41647486  0.65045547  0.91856050  1  0  0.100161  0  3.759907  0  0  0.104572  0  4.008716  0  0  0.104826  0  4.026886  0  0  0.121291  0.104282  0  3.996391  0
C  C35  1  0.91856116  0.41647552  0.65045412  1  0  0.100168  0  3.759936  0  0  0.10463  0  4.008744  0  0  0.104884  0  4.026916  0  0  0.121271  0.104332  0  3.996426  0
C  C36  1  0.49539639  0.15122525  0.66154410  1  0  -0.10819  0  3.681329  0  0  -0.131737  0  3.933666  0  0  -0.134957  0  3.95262  0  0  -0.069338  -0.130077  0  3.92134  0
C  C37  1  0.66154675  0.49539910  0.15122771  1  0  -0.108083  0  3.681234  0  0  -0.131582  0  3.933573  0  0  -0.134794  0  3.952521  0  0  -0.069275  -0.129917  0  3.921247  0
C  C38  1  0.15122582  0.66154529  0.49539974  1  0  -0.108022  0  3.681239  0  0  -0.13157  0  3.933537  0  0  -0.134785  0  3.952487  0  0  -0.069247  -0.129911  0  3.921216  0
C  C39  1  0.50460510  0.84877515  0.33845666  1  0  -0.108173  0  3.681327  0  0  -0.1317  0  3.933674  0  0  -0.134917  0  3.952628  0  0  -0.069311  -0.130031  0  3.921343  0
C  C40  1  0.33845100  0.50459920  0.84877205  1  0  -0.10802  0  3.681184  0  0  -0.131515  0  3.933489  0  0  -0.134727  0  3.952437  0  0  -0.06924  -0.129867  0  3.921175  0
C  C41  1  0.84877384  0.33845510  0.50460130  1  0  -0.108083  0  3.681259  0  0  -0.131643  0  3.933562  0  0  -0.134858  0  3.952513  0  0  -0.069296  -0.129982  0  3.921251  0
C  C42  1  0.57359729  0.19450380  0.59802161  1  0  -0.004811  0  3.698951  0  0  -0.021058  0  3.952499  0  0  -0.019927  0  3.971294  0  0  -0.0618  -0.021492  0  3.939993  0
C  C43  1  0.59802615  0.57359786  0.19450560  1  0  -0.004794  0  3.698956  0  0  -0.021048  0  3.952483  0  0  -0.019919  0  3.971279  0  0  -0.061783  -0.021481  0  3.939977  0
C  C44  1  0.19450419  0.59802054  0.57359828  1  0  -0.004846  0  3.698992  0  0  -0.021084  0  3.952556  0  0  -0.019955  0  3.971354  0  0  -0.061809  -0.02152  0  3.940053  0
C  C45  1  0.42640513  0.80549660  0.40197857  1  0  -0.004759  0  3.699037  0  0  -0.021017  0  3.952596  0  0  -0.019886  0  3.971392  0  0  -0.061799  -0.021456  0  3.940095  0
C  C46  1  0.40197437  0.42640045  0.80549505  1  0  -0.004782  0  3.69897  0  0  -0.021048  0  3.952518  0  0  -0.019918  0  3.971313  0  0  -0.061782  -0.021485  0  3.940022  0
C  C47  1  0.80549541  0.40197777  0.42640120  1  0  -0.004855  0  3.698922  0  0  -0.021103  0  3.952482  0  0  -0.019976  0  3.971282  0  0  -0.061806  -0.021543  0  3.939997  0
C  C48  1  0.50474441  0.15872841  0.45717773  1  0  -0.099011  0  3.680345  0  0  -0.12334  0  3.927339  0  0  -0.126287  0  3.946615  0  0  -0.068188  -0.121708  0  3.914627  0
C  C49  1  0.45718159  0.50474703  0.15872810  1  0  -0.09907  0  3.680255  0  0  -0.123379  0  3.927286  0  0  -0.126329  0  3.946564  0  0  -0.068168  -0.121753  0  3.914566  0
C  C50  1  0.15872980  0.45718027  0.50474755  1  0  -0.098967  0  3.680387  0  0  -0.123294  0  3.927369  0  0  -0.126242  0  3.946644  0  0  -0.068113  -0.121659  0  3.914656  0
C  C51  1  0.49525473  0.84127092  0.54281845  1  0  -0.09896  0  3.680422  0  0  -0.123306  0  3.927402  0  0  -0.126255  0  3.946682  0  0  -0.068117  -0.121667  0  3.914686  0
C  C52  1  0.54281849  0.49525233  0.84127275  1  0  -0.099086  0  3.68034  0  0  -0.123383  0  3.927361  0  0  -0.126335  0  3.946639  0  0  -0.068181  -0.121761  0  3.914646  0
C  C53  1  0.84127126  0.54282117  0.49525253  1  0  -0.098941  0  3.680315  0  0  -0.123254  0  3.927307  0  0  -0.126205  0  3.946585  0  0  -0.068131  -0.121629  0  3.914604  0
C  C54  1  0.35883353  0.08046542  0.38469241  1  0  0.10895  0  3.742846  0  0  0.115585  0  3.983559  0  0  0.116055  0  4.001416  0  0  0.126416  0.114976  0  3.971614  0
C  C55  1  0.38469372  0.35883331  0.08046233  1  0  0.109008  0  3.742747  0  0  0.115504  0  3.983666  0  0  0.115974  0  4.001524  0  0  0.126399  0.114922  0  3.971686  0
C  C56  1  0.08046485  0.38469317  0.35883554  1  0  0.108942  0  3.742869  0  0  0.115587  0  3.983605  0  0  0.116059  0  4.001461  0  0  0.126406  0.114978  0  3.971659  0
C  C57  1  0.64116704  0.91953497  0.61530718  1  0  0.108878  0  3.742746  0  0  0.115509  0  3.983468  0  0  0.115978  0  4.001327  0  0  0.126363  0.114891  0  3.971531  0
C  C58  1  0.61530631  0.64116396  0.91953783  1  0  0.108976  0  3.742804  0  0  0.115469  0  3.983721  0  0  0.11594  0  4.001577  0  0  0.126392  0.114889  0  3.971742  0
C  C59  1  0.91953622  0.61530827  0.64116542  1  0  0.108984  0  3.742724  0  0  0.115572  0  3.983504  0  0  0.116046  0  4.001359  0  0  0.126417  0.114971  0  3.971542  0
C  C60  1  0.27660260  0.01955678  0.22795024  1  0  0.66445  0  3.90583  0  0  0.612952  0  4.202411  0  0  0.648062  0  4.191848  0  0  0.24543  0.589155  0  4.208754  0
C  C61  1  0.22795081  0.27660021  0.01955132  1  0  0.664462  0  3.905994  0  0  0.612965  0  4.202643  0  0  0.648074  0  4.192074  0  0  0.245425  0.589157  0  4.208984  0
C  C62  1  0.01955565  0.22795105  0.27660371  1  0  0.664472  0  3.905972  0  0  0.612907  0  4.202666  0  0  0.648012  0  4.192108  0  0  0.245396  0.589116  0  4.209001  0
C  C63  1  0.72339705  0.98044361  0.77204992  1  0  0.664456  0  3.905994  0  0  0.612968  0  4.202562  0  0  0.648071  0  4.192007  0  0  0.245434  0.589178  0  4.208889  0
C  C64  1  0.77205063  0.72339810  0.98044876  1  0  0.664473  0  3.906133  0  0  0.612985  0  4.202766  0  0  0.648094  0  4.192197  0  0  0.245418  0.58918  0  4.209112  0
C  C65  1  0.98044449  0.77205039  0.72339695  1  0  0.664413  0  3.90598  0  0  0.612921  0  4.202575  0  0  0.648023  0  4.192017  0  0  0.245411  0.589129  0  4.208912  0
N  N66  1  0.28329176  0.04745269  0.44825094  1  0  -0.393951  0  3.233013  0  0  -0.349432  0  3.483582  0  0  -0.362169  0  3.502123  0  0  -0.353557  -0.340057  0  3.470718  0
N  N67  1  0.44825293  0.28329286  0.04745115  1  0  -0.393863  0  3.232836  0  0  -0.349272  0  3.483434  0  0  -0.36201  0  3.50198  0  0  -0.353513  -0.339902  0  3.470556  0
N  N68  1  0.04745199  0.44825279  0.28329371  1  0  -0.393927  0  3.232913  0  0  -0.349417  0  3.483448  0  0  -0.362152  0  3.50199  0  0  -0.353559  -0.340038  0  3.470584  0
N  N69  1  0.71670973  0.95254771  0.55174894  1  0  -0.393874  0  3.232871  0  0  -0.349336  0  3.483445  0  0  -0.362069  0  3.501988  0  0  -0.353545  -0.339957  0  3.470576  0
N  N70  1  0.55174808  0.71670649  0.95255000  1  0  -0.393844  0  3.232907  0  0  -0.349288  0  3.483474  0  0  -0.362025  0  3.502019  0  0  -0.35354  -0.339918  0  3.470599  0
N  N71  1  0.95254908  0.55174866  0.71670724  1  0  -0.393906  0  3.232871  0  0  -0.349396  0  3.483408  0  0  -0.362131  0  3.50195  0  0  -0.353572  -0.340025  0  3.470541  0
O  O72  1  0.29825611  0.00767726  0.74025045  1  0  -0.683091  0  1.971156  0  0  -0.627209  0  2.222856  0  0  -0.654071  0  2.210687  0  0  -0.364823  -0.608247  0  2.230739  0
O  O73  1  0.74025244  0.29825318  0.00767584  1  0  -0.683116  0  1.970907  0  0  -0.62725  0  2.222609  0  0  -0.654118  0  2.210437  0  0  -0.364836  -0.608276  0  2.230491  0
O  O74  1  0.00768096  0.74025556  0.29826358  1  0  -0.683169  0  1.970963  0  0  -0.62729  0  2.222729  0  0  -0.654156  0  2.210558  0  0  -0.364862  -0.608313  0  2.230596  0
O  O75  1  0.70174490  0.99232209  0.25974894  1  0  -0.68309  0  1.971108  0  0  -0.627213  0  2.222803  0  0  -0.65408  0  2.210631  0  0  -0.36484  -0.60824  0  2.230679  0
O  O76  1  0.25974672  0.70174616  0.99232296  1  0  -0.6831  0  1.970944  0  0  -0.627222  0  2.222646  0  0  -0.654085  0  2.210479  0  0  -0.364835  -0.608254  0  2.230525  0
O  O77  1  0.99232061  0.25974693  0.70173874  1  0  -0.683123  0  1.97111  0  0  -0.627222  0  2.222853  0  0  -0.654081  0  2.210682  0  0  -0.36484  -0.608265  0  2.230728  0
O  O78  1  0.13771284  0.03809173  0.59319810  1  0  -0.704709  0  1.965608  0  0  -0.641754  0  2.213823  0  0  -0.669698  0  2.2019  0  0  -0.346471  -0.621525  0  2.221352  0
O  O79  1  0.59319748  0.13771444  0.03809575  1  0  -0.704781  0  1.965731  0  0  -0.641813  0  2.213917  0  0  -0.669761  0  2.201995  0  0  -0.346495  -0.621583  0  2.221446  0
O  O80  1  0.03809016  0.59320118  0.13771668  1  0  -0.704734  0  1.965562  0  0  -0.641761  0  2.213796  0  0  -0.669704  0  2.201874  0  0  -0.346446  -0.621525  0  2.221326  0
O  O81  1  0.86228540  0.96190761  0.40680040  1  0  -0.704741  0  1.965708  0  0  -0.641788  0  2.213919  0  0  -0.669736  0  2.201991  0  0  -0.346469  -0.621555  0  2.221444  0
O  O82  1  0.40680545  0.86228702  0.96190930  1  0  -0.704742  0  1.965686  0  0  -0.641787  0  2.213902  0  0  -0.669731  0  2.201983  0  0  -0.346488  -0.621576  0  2.221443  0
O  O83  1  0.96190901  0.40679817  0.86228387  1  0  -0.704733  0  1.965587  0  0  -0.641761  0  2.213836  0  0  -0.669704  0  2.201916  0  0  -0.346462  -0.621522  0  2.22136  0
O  O84  1  0.33721541  0.07094530  0.16885610  1  0  -0.664805  0  1.95555  0  0  -0.610052  0  2.197509  0  0  -0.636356  0  2.184601  0  0  -0.364404  -0.591477  0  2.205782  0
O  O85  1  0.16885615  0.33721472  0.07094140  1  0  -0.664865  0  1.955537  0  0  -0.610091  0  2.197488  0  0  -0.636398  0  2.184579  0  0  -0.36439  -0.591515  0  2.205769  0
O  O86  1  0.07094561  0.16885831  0.33721684  1  0  -0.664817  0  1.955542  0  0  -0.610028  0  2.197515  0  0  -0.636335  0  2.18461  0  0  -0.3644  -0.591471  0  2.205793  0
O  O87  1  0.66278190  0.92905403  0.83114036  1  0  -0.664832  0  1.955663  0  0  -0.610081  0  2.197612  0  0  -0.636385  0  2.184708  0  0  -0.364411  -0.591512  0  2.205884  0
O  O88  1  0.83114203  0.66278253  0.92905729  1  0  -0.664825  0  1.955627  0  0  -0.610057  0  2.19758  0  0  -0.63636  0  2.184671  0  0  -0.364378  -0.591497  0  2.205862  0
O  O89  1  0.92905447  0.83114103  0.66278226  1  0  -0.664841  0  1.955648  0  0  -0.610076  0  2.197586  0  0  -0.636377  0  2.18468  0  0  -0.364443  -0.591543  0  2.205877  0
O  O90  1  0.15338803  0.91719399  0.16876900  1  0  -0.726222  0  1.974312  0  0  -0.664467  0  2.224652  0  0  -0.692501  0  2.211752  0  0  -0.355662  -0.644128  0  2.232538  0
O  O91  1  0.16877116  0.15339032  0.91719092  1  0  -0.726279  0  1.974496  0  0  -0.664501  0  2.224824  0  0  -0.692536  0  2.211935  0  0  -0.355699  -0.644143  0  2.232702  0
O  O92  1  0.91719426  0.16877114  0.15339143  1  0  -0.726272  0  1.974438  0  0  -0.664495  0  2.224809  0  0  -0.692537  0  2.21193  0  0  -0.355693  -0.644166  0  2.232704  0
O  O93  1  0.84661021  0.08280535  0.83123037  1  0  -0.726208  0  1.97437  0  0  -0.664463  0  2.224707  0  0  -0.692496  0  2.211819  0  0  -0.35564  -0.644105  0  2.232579  0
O  O94  1  0.83123027  0.84660799  0.08280741  1  0  -0.726275  0  1.974579  0  0  -0.664486  0  2.224883  0  0  -0.692533  0  2.212005  0  0  -0.355707  -0.644159  0  2.232781  0
O  O95  1  0.08280638  0.83123134  0.84660972  1  0  -0.726192  0  1.974381  0  0  -0.664432  0  2.224712  0  0  -0.692471  0  2.211832  0  0  -0.355652  -0.644121  0  2.232612  0
