# generated using pymatgen
data_NdCoH16C16(N5O3)2
_symmetry_space_group_name_H-M   'P 1'
_cell_length_a   10.26874123
_cell_length_b   10.67681707
_cell_length_c   12.35160701
_cell_angle_alpha   73.49748428
_cell_angle_beta   74.76161406
_cell_angle_gamma   70.57370653
_symmetry_Int_Tables_number   1
_chemical_formula_structural   NdCoH16C16(N5O3)2
_chemical_formula_sum   'Nd2 Co2 H32 C32 N20 O12'
_cell_volume   1203.08461726
_cell_formula_units_Z   2
loop_
 _symmetry_equiv_pos_site_id
 _symmetry_equiv_pos_as_xyz
  1  'x, y, z'
loop_
 _atom_site_type_symbol
 _atom_site_label
 _atom_site_symmetry_multiplicity
 _atom_site_fract_x
 _atom_site_fract_y
 _atom_site_fract_z
 _atom_site_occupancy
 _atom_site_hle17_bader_spin_density
 _atom_site_hle17_ddec_charge
 _atom_site_hle17_ddec_spin_density
 _atom_site_hle17_ddec_sum_bond_order
 _atom_site_hle17_magmom
 _atom_site_hse06_10hf_bader_spin_density
 _atom_site_hse06_10hf_ddec_charge
 _atom_site_hse06_10hf_ddec_spin_density
 _atom_site_hse06_10hf_ddec_sum_bond_order
 _atom_site_hse06_10hf_magmom
 _atom_site_hse06_bader_spin_density
 _atom_site_hse06_ddec_charge
 _atom_site_hse06_ddec_spin_density
 _atom_site_hse06_ddec_sum_bond_order
 _atom_site_hse06_magmom
 _atom_site_pbe_bader_spin_density
 _atom_site_pbe_cm5_charge
 _atom_site_pbe_ddec_charge
 _atom_site_pbe_ddec_spin_density
 _atom_site_pbe_ddec_sum_bond_order
 _atom_site_pbe_magmom
Nd  Nd0  1  0.41590916  0.30775367  0.28207985  1  0  2.310646  0  1.668722  0  0  2.152902  0  2.144718  0  0  2.239089  0  2.007382  0  0  1.529397  2.12549  0  2.176215  0
Nd  Nd1  1  0.58408925  0.69224361  0.71792274  1  0  2.310639  0  1.668686  0  0  2.152995  0  2.144513  0  0  2.239088  0  2.007333  0  0  1.529408  2.125597  0  2.176006  0
Co  Co2  1  0.32221229  0.30426404  0.74110746  1  0  0.022405  0  4.564872  0  0  0.149434  0  4.882226  0  0  0.140971  0  4.879575  0  0  0.508556  0.165382  0  4.875479  0
Co  Co3  1  0.67778228  0.69573929  0.25889279  1  0  0.022317  0  4.565146  0  0  0.149493  0  4.882184  0  0  0.14102  0  4.87953  0  0  0.508535  0.165443  0  4.875552  0
H  H4  1  0.29055040  0.76312994  0.53564081  1  0  0.128043  0  0.938194  0  0  0.133254  0  1.004847  0  0  0.136969  0  1.002744  0  0  0.121526  0.130628  0  1.006358  0
H  H5  1  0.70944169  0.23686824  0.46436208  1  0  0.128078  0  0.938122  0  0  0.1333  0  1.004779  0  0  0.137018  0  1.00267  0  0  0.121516  0.130672  0  1.006298  0
H  H6  1  0.31548128  0.90474752  0.04783060  1  0  0.141464  0  0.918496  0  0  0.14989  0  0.974588  0  0  0.153403  0  0.972923  0  0  0.124893  0.147225  0  0.975553  0
H  H7  1  0.68452856  0.09525200  0.95216898  1  0  0.141489  0  0.918448  0  0  0.149894  0  0.974575  0  0  0.153406  0  0.972907  0  0  0.12489  0.147232  0  0.975547  0
H  H8  1  0.14409454  0.51921836  0.06199952  1  0  0.131421  0  0.925256  0  0  0.139214  0  0.985246  0  0  0.142756  0  0.982045  0  0  0.139555  0.136444  0  0.987709  0
H  H9  1  0.85591049  0.48078714  0.93799472  1  0  0.131389  0  0.925209  0  0  0.139188  0  0.9852  0  0  0.14273  0  0.981995  0  0  0.139569  0.136419  0  0.987667  0
H  H10  1  0.46551254  0.65933055  0.08198423  1  0  0.131233  0  0.923395  0  0  0.139097  0  0.982821  0  0  0.141567  0  0.980984  0  0  0.142163  0.137225  0  0.984396  0
H  H11  1  0.53449560  0.34066792  0.91801598  1  0  0.131163  0  0.92341  0  0  0.139036  0  0.982832  0  0  0.141505  0  0.980998  0  0  0.142125  0.137166  0  0.984397  0
H  H12  1  0.02511563  0.68102993  0.29576447  1  0  0.120115  0  0.956224  0  0  0.126203  0  1.020657  0  0  0.128585  0  1.019942  0  0  0.132313  0.12452  0  1.021166  0
H  H13  1  0.97487690  0.31897025  0.70423378  1  0  0.120033  0  0.956278  0  0  0.1261  0  1.02072  0  0  0.12848  0  1.020007  0  0  0.132284  0.124418  0  1.021223  0
H  H14  1  0.37353596  0.55490247  0.44935860  1  0  0.121453  0  0.944186  0  0  0.130193  0  1.003044  0  0  0.131843  0  1.003096  0  0  0.138775  0.128953  0  1.003152  0
H  H15  1  0.62645653  0.44509774  0.55064207  1  0  0.121475  0  0.944138  0  0  0.130197  0  1.003003  0  0  0.131843  0  1.003052  0  0  0.138773  0.128953  0  1.003117  0
H  H16  1  0.98131164  0.75935568  0.02143355  1  0  0.134401  0  0.96414  0  0  0.135483  0  1.034703  0  0  0.138612  0  1.033865  0  0  0.116267  0.133349  0  1.035951  0
H  H17  1  0.01869706  0.24065095  0.97856286  1  0  0.134382  0  0.964128  0  0  0.135475  0  1.034684  0  0  0.138607  0  1.033841  0  0  0.116227  0.133339  0  1.035922  0
H  H18  1  0.92662933  0.89467922  0.37381967  1  0  0.128507  0  0.968098  0  0  0.127619  0  1.041882  0  0  0.132109  0  1.038017  0  0  0.115638  0.124459  0  1.044595  0
H  H19  1  0.07336328  0.10532401  0.62617697  1  0  0.128468  0  0.968094  0  0  0.127605  0  1.041861  0  0  0.132092  0  1.037998  0  0  0.115638  0.124446  0  1.044574  0
H  H20  1  0.41431632  0.08300886  0.16854416  1  0  0.422015  0  0.883715  0  0  0.393364  0  0.943245  0  0  0.402912  0  0.92965  0  0  0.294435  0.386635  0  0.952923  0
H  H21  1  0.58568353  0.91699043  0.83145356  1  0  0.422009  0  0.883711  0  0  0.393352  0  0.943252  0  0  0.402902  0  0.929654  0  0  0.29444  0.386627  0  0.952927  0
H  H22  1  0.34973234  0.22714843  0.09204029  1  0  0.423967  0  0.887414  0  0  0.389288  0  0.958033  0  0  0.400174  0  0.942434  0  0  0.291417  0.381437  0  0.969415  0
H  H23  1  0.65026709  0.77284884  0.90796046  1  0  0.42397  0  0.887406  0  0  0.389295  0  0.958017  0  0  0.400179  0  0.942421  0  0  0.291426  0.381443  0  0.969402  0
H  H24  1  0.73663865  0.24503128  0.23653011  1  0  0.44327  0  0.810217  0  0  0.426988  0  0.858045  0  0  0.434551  0  0.847394  0  0  0.330468  0.421866  0  0.865402  0
H  H25  1  0.26336156  0.75497008  0.76346862  1  0  0.44326  0  0.810248  0  0  0.426975  0  0.85807  0  0  0.434538  0  0.847419  0  0  0.330471  0.421857  0  0.865423  0
H  H26  1  0.72180250  0.09659180  0.24293237  1  0  0.44282  0  0.859652  0  0  0.40585  0  0.931481  0  0  0.417419  0  0.915008  0  0  0.293963  0.397728  0  0.943017  0
H  H27  1  0.27819600  0.90340852  0.75706780  1  0  0.44285  0  0.85961  0  0  0.405891  0  0.931417  0  0  0.417461  0  0.914944  0  0  0.293986  0.397768  0  0.942958  0
H  H28  1  0.42331852  0.99497987  0.35683786  1  0  0.431448  0  0.857271  0  0  0.403634  0  0.918403  0  0  0.411964  0  0.906741  0  0  0.310111  0.397796  0  0.926656  0
H  H29  1  0.57667161  0.00502137  0.64316629  1  0  0.431489  0  0.85719  0  0  0.403668  0  0.918353  0  0  0.411997  0  0.906691  0  0  0.310077  0.397834  0  0.926601  0
H  H30  1  0.39440329  0.04351794  0.47262912  1  0  0.447148  0  0.803737  0  0  0.427443  0  0.861426  0  0  0.435948  0  0.849827  0  0  0.334616  0.421552  0  0.868443  0
H  H31  1  0.60567713  0.95644824  0.52737927  1  0  0.447108  0  0.803688  0  0  0.427351  0  0.86149  0  0  0.435856  0  0.849935  0  0  0.33458  0.421461  0  0.868507  0
H  H32  1  0.16862487  0.20203265  0.29946879  1  0  0.435738  0  0.818189  0  0  0.421112  0  0.865517  0  0  0.427912  0  0.855735  0  0  0.327859  0.415993  0  0.873079  0
H  H33  1  0.83137004  0.79796263  0.70054233  1  0  0.435843  0  0.818067  0  0  0.421206  0  0.865386  0  0  0.428003  0  0.855607  0  0  0.327903  0.4161  0  0.872934  0
H  H34  1  0.09054036  0.35106354  0.32230117  1  0  0.440462  0  0.864285  0  0  0.399906  0  0.942607  0  0  0.41204  0  0.925101  0  0  0.288626  0.391302  0  0.95509  0
H  H35  1  0.90945552  0.64893563  0.67769419  1  0  0.440489  0  0.864256  0  0  0.400012  0  0.942467  0  0  0.41214  0  0.924964  0  0  0.288658  0.391411  0  0.954949  0
C  C36  1  0.37692544  0.30109798  0.58605138  1  0  0.166259  0  3.525931  0  0  0.122676  0  3.835663  0  0  0.134936  0  3.847202  0  0  0.060122  0.112463  0  3.829008  0
C  C37  1  0.62307244  0.69890438  0.41394841  1  0  0.166286  0  3.525827  0  0  0.122691  0  3.835523  0  0  0.134951  0  3.847057  0  0  0.060133  0.112478  0  3.828873  0
C  C38  1  0.60281320  0.55513768  0.27163742  1  0  0.156702  0  3.536106  0  0  0.111638  0  3.851195  0  0  0.12306  0  3.862231  0  0  0.054305  0.102063  0  3.844977  0
C  C39  1  0.39718290  0.44486057  0.72836460  1  0  0.156578  0  3.536086  0  0  0.11153  0  3.851205  0  0  0.12295  0  3.862239  0  0  0.054197  0.101953  0  3.844986  0
C  C40  1  0.26796776  0.29758936  0.89864642  1  0  0.104891  0  3.519518  0  0  0.058498  0  3.830272  0  0  0.066062  0  3.843138  0  0  0.035714  0.051122  0  3.820305  0
C  C41  1  0.73202877  0.70241090  0.10135177  1  0  0.104931  0  3.519579  0  0  0.058518  0  3.830292  0  0  0.066082  0  3.843156  0  0  0.035759  0.051157  0  3.820318  0
C  C42  1  0.35789068  0.68985514  0.06902742  1  0  0.034611  0  3.558896  0  0  -0.011428  0  3.828451  0  0  -0.002463  0  3.838706  0  0  0.058408  -0.016571  0  3.820323  0
C  C43  1  0.64211717  0.31014432  0.93097098  1  0  0.034744  0  3.558891  0  0  -0.011335  0  3.828468  0  0  -0.002369  0  3.838723  0  0  0.058415  -0.016471  0  3.820323  0
C  C44  1  0.49205290  0.17290733  0.76005643  1  0  0.118381  0  3.515272  0  0  0.074783  0  3.817999  0  0  0.083694  0  3.830039  0  0  0.045908  0.066631  0  3.809319  0
C  C45  1  0.50794740  0.82708381  0.23994488  1  0  0.118441  0  3.514896  0  0  0.074821  0  3.817603  0  0  0.083742  0  3.829643  0  0  0.045931  0.066656  0  3.808928  0
C  C46  1  0.27663045  0.63412947  0.43738222  1  0  0.024936  0  3.562752  0  0  -0.017424  0  3.821977  0  0  -0.012088  0  3.837292  0  0  0.053599  -0.0204  0  3.811255  0
C  C47  1  0.72336062  0.36586871  0.56262170  1  0  0.024972  0  3.562598  0  0  -0.017328  0  3.82181  0  0  -0.011986  0  3.837121  0  0  0.053665  -0.020303  0  3.811095  0
C  C48  1  0.24951263  0.15955018  0.75816813  1  0  0.115723  0  3.506281  0  0  0.070688  0  3.811009  0  0  0.079439  0  3.824807  0  0  0.044222  0.062912  0  3.800503  0
C  C49  1  0.75048063  0.84045414  0.24183134  1  0  0.115699  0  3.506571  0  0  0.07063  0  3.811283  0  0  0.07938  0  3.82508  0  0  0.044211  0.062854  0  3.800778  0
C  C50  1  0.15455783  0.43752394  0.71474012  1  0  0.08929  0  3.541673  0  0  0.042408  0  3.855183  0  0  0.049444  0  3.86835  0  0  0.031851  0.035262  0  3.845932  0
C  C51  1  0.84544167  0.56247641  0.28526064  1  0  0.08927  0  3.541788  0  0  0.042353  0  3.855269  0  0  0.049386  0  3.868438  0  0  0.031872  0.035201  0  3.846021  0
C  C52  1  0.22851041  0.74857552  0.48330550  1  0  -0.122968  0  3.683492  0  0  -0.14635  0  3.943682  0  0  -0.151313  0  3.962774  0  0  -0.05916  -0.143492  0  3.93043  0
C  C53  1  0.77148276  0.25142574  0.51669557  1  0  -0.122975  0  3.683557  0  0  -0.146415  0  3.943763  0  0  -0.151371  0  3.962851  0  0  -0.059252  -0.143563  0  3.930518  0
C  C54  1  0.13683905  0.85084060  0.03210882  1  0  0.184709  0  3.798483  0  0  0.180715  0  4.059227  0  0  0.184595  0  4.08057  0  0  0.105016  0.178943  0  4.043998  0
C  C55  1  0.86317023  0.14916405  0.96789121  1  0  0.18463  0  3.798814  0  0  0.180595  0  4.059588  0  0  0.18448  0  4.080929  0  0  0.104875  0.178819  0  4.04436  0
C  C56  1  0.10147225  0.84486792  0.46189103  1  0  0.181297  0  3.81676  0  0  0.177907  0  4.074689  0  0  0.180234  0  4.095912  0  0  0.098761  0.176638  0  4.060323  0
C  C57  1  0.89851554  0.15513118  0.53811011  1  0  0.181018  0  3.816985  0  0  0.177675  0  4.074893  0  0  0.179994  0  4.096117  0  0  0.098857  0.176411  0  4.060519  0
C  C58  1  0.17324383  0.61036095  0.05613962  1  0  0.02241  0  3.56677  0  0  -0.018666  0  3.823989  0  0  -0.012523  0  3.836392  0  0  0.052924  -0.021661  0  3.817063  0
C  C59  1  0.82676177  0.38964257  0.94385904  1  0  0.022504  0  3.566744  0  0  -0.018571  0  3.823943  0  0  -0.012425  0  3.836345  0  0  0.052887  -0.021582  0  3.817029  0
C  C60  1  0.27424108  0.82252324  0.04940280  1  0  -0.127744  0  3.676714  0  0  -0.151976  0  3.937629  0  0  -0.157483  0  3.955101  0  0  -0.056269  -0.145203  0  3.92235  0
C  C61  1  0.72576977  0.17747628  0.95059576  1  0  -0.127683  0  3.67679  0  0  -0.151867  0  3.937656  0  0  -0.157372  0  3.955126  0  0  -0.05609  -0.145103  0  3.922389  0
C  C62  1  0.08760123  0.74157082  0.03410883  1  0  -0.150704  0  3.694398  0  0  -0.16618  0  3.9418  0  0  -0.172756  0  3.963118  0  0  -0.068015  -0.165666  0  3.930786  0
C  C63  1  0.91240349  0.25843570  0.96588521  1  0  -0.150771  0  3.694673  0  0  -0.166235  0  3.942042  0  0  -0.172818  0  3.963371  0  0  -0.067979  -0.165703  0  3.931003  0
C  C64  1  0.07651509  0.70795836  0.34870600  1  0  0.024758  0  3.573635  0  0  -0.013517  0  3.822736  0  0  -0.00823  0  3.836653  0  0  0.048177  -0.016818  0  3.812974  0
C  C65  1  0.92347841  0.29204187  0.65129446  1  0  0.024791  0  3.573674  0  0  -0.013415  0  3.822762  0  0  -0.008127  0  3.836685  0  0  0.048178  -0.016715  0  3.812986  0
C  C66  1  0.02525429  0.82238064  0.39317481  1  0  -0.123301  0  3.693659  0  0  -0.140807  0  3.940507  0  0  -0.14517  0  3.958791  0  0  -0.062317  -0.137968  0  3.928278  0
C  C67  1  0.97474115  0.17761655  0.60682519  1  0  -0.123146  0  3.693454  0  0  -0.140728  0  3.940327  0  0  -0.145086  0  3.958609  0  0  -0.062333  -0.137886  0  3.928091  0
N  N68  1  0.30621798  0.58574408  0.07436901  1  0  0.296931  0  3.702288  0  0  0.348862  0  3.968307  0  0  0.349966  0  3.989855  0  0  -0.101306  0.345294  0  3.955741  0
N  N69  1  0.69378756  0.41425636  0.92562883  1  0  0.296924  0  3.702221  0  0  0.348878  0  3.968237  0  0  0.349984  0  3.989781  0  0  -0.101293  0.34531  0  3.955678  0
N  N70  1  0.20097209  0.61522065  0.37075978  1  0  0.318412  0  3.683254  0  0  0.373525  0  3.939039  0  0  0.37535  0  3.961549  0  0  -0.088551  0.371802  0  3.924705  0
N  N71  1  0.79902179  0.38478163  0.62924007  1  0  0.318365  0  3.683337  0  0  0.37344  0  3.939128  0  0  0.375264  0  3.961637  0  0  -0.088636  0.371722  0  3.924789  0
N  N72  1  0.41319658  0.28944570  0.49028858  1  0  -0.584389  0  2.927462  0  0  -0.531228  0  3.222241  0  0  -0.551708  0  3.226274  0  0  -0.463459  -0.521682  0  3.218103  0
N  N73  1  0.58680236  0.71055977  0.50971182  1  0  -0.584413  0  2.927314  0  0  -0.531278  0  3.222095  0  0  -0.551741  0  3.226126  0  0  -0.463449  -0.521693  0  3.217939  0
N  N74  1  0.55774158  0.46618706  0.27538383  1  0  -0.581373  0  2.955441  0  0  -0.53241  0  3.25598  0  0  -0.550856  0  3.259849  0  0  -0.453769  -0.523552  0  3.252587  0
N  N75  1  0.44225952  0.53381130  0.72461872  1  0  -0.581318  0  2.955434  0  0  -0.532353  0  3.255949  0  0  -0.550787  0  3.259821  0  0  -0.453741  -0.523539  0  3.252581  0
N  N76  1  0.05878733  0.95878714  0.51056443  1  0  -0.151863  0  2.981727  0  0  -0.130889  0  3.264332  0  0  -0.125896  0  3.264403  0  0  -0.150364  -0.134167  0  3.263896  0
N  N77  1  0.94120309  0.04120996  0.48943666  1  0  -0.151703  0  2.981732  0  0  -0.13072  0  3.264301  0  0  -0.125727  0  3.264371  0  0  -0.150328  -0.133995  0  3.26386  0
N  N78  1  0.05290719  0.52503748  0.69620025  1  0  -0.434412  0  2.860328  0  0  -0.380906  0  3.118016  0  0  -0.394295  0  3.128466  0  0  -0.347456  -0.370695  0  3.111  0
N  N79  1  0.94708741  0.47496581  0.30379758  1  0  -0.434385  0  2.860506  0  0  -0.380829  0  3.118199  0  0  -0.394217  0  3.128654  0  0  -0.34742  -0.37057  0  3.111146  0
N  N80  1  0.59705793  0.08416821  0.76427990  1  0  -0.483959  0  2.813635  0  0  -0.429115  0  3.057441  0  0  -0.443242  0  3.067507  0  0  -0.367871  -0.418937  0  3.051218  0
N  N81  1  0.40292935  0.91583595  0.23571764  1  0  -0.484026  0  2.813083  0  0  -0.429196  0  3.056887  0  0  -0.443324  0  3.066955  0  0  -0.367887  -0.418974  0  3.050633  0
N  N82  1  0.21513039  0.06299879  0.76477039  1  0  -0.443381  0  2.852174  0  0  -0.386386  0  3.106842  0  0  -0.402887  0  3.118618  0  0  -0.350404  -0.374042  0  3.098413  0
N  N83  1  0.78486410  0.93700146  0.23523065  1  0  -0.443373  0  2.852449  0  0  -0.386365  0  3.107118  0  0  -0.402858  0  3.118885  0  0  -0.350365  -0.37398  0  3.098658  0
N  N84  1  0.23606315  0.29380285  0.99777049  1  0  -0.450577  0  2.811618  0  0  -0.401999  0  3.066867  0  0  -0.414894  0  3.075405  0  0  -0.359094  -0.392062  0  3.06082  0
N  N85  1  0.76393100  0.70619845  0.00223198  1  0  -0.4506  0  2.81173  0  0  -0.402023  0  3.066975  0  0  -0.414917  0  3.075512  0  0  -0.35909  -0.392045  0  3.0609  0
N  N86  1  0.05635918  0.98784218  0.01793354  1  0  -0.121571  0  2.963149  0  0  -0.10685  0  3.255839  0  0  -0.103884  0  3.258636  0  0  -0.133613  -0.108591  0  3.253131  0
N  N87  1  0.94364900  0.01215938  0.98206830  1  0  -0.121404  0  2.963067  0  0  -0.106639  0  3.25574  0  0  -0.103675  0  3.258536  0  0  -0.133486  -0.108385  0  3.253041  0
O  O88  1  0.41913496  0.17866407  0.14495377  1  0  -0.924992  0  1.864023  0  0  -0.869122  0  2.051303  0  0  -0.894159  0  2.018093  0  0  -0.65315  -0.85601  0  2.072629  0
O  O89  1  0.58086720  0.82133424  0.85504451  1  0  -0.924972  0  1.864009  0  0  -0.869107  0  2.051278  0  0  -0.894129  0  2.018074  0  0  -0.653154  -0.85599  0  2.072598  0
O  O90  1  0.38362471  0.45896268  0.09909068  1  0  -0.631063  0  1.846651  0  0  -0.596616  0  2.110587  0  0  -0.627536  0  2.108226  0  0  -0.312639  -0.578623  0  2.110844  0
O  O91  1  0.61637883  0.54103770  0.90090679  1  0  -0.631081  0  1.846696  0  0  -0.596675  0  2.110651  0  0  -0.627581  0  2.108297  0  0  -0.312646  -0.578685  0  2.11091  0
O  O92  1  0.24395366  0.50870324  0.32534655  1  0  -0.625824  0  1.909328  0  0  -0.587453  0  2.163771  0  0  -0.621058  0  2.165329  0  0  -0.3111  -0.568211  0  2.160773  0
O  O93  1  0.75603814  0.49129594  0.67465453  1  0  -0.625812  0  1.909424  0  0  -0.587449  0  2.16389  0  0  -0.621039  0  2.165452  0  0  -0.311068  -0.568209  0  2.160896  0
O  O94  1  0.66924161  0.19354862  0.25166610  1  0  -0.930845  0  1.840355  0  0  -0.881164  0  2.038563  0  0  -0.905626  0  2.003138  0  0  -0.640367  -0.86882  0  2.060117  0
O  O95  1  0.33075790  0.80645172  0.74833386  1  0  -0.930839  0  1.840333  0  0  -0.881187  0  2.038536  0  0  -0.905624  0  2.003094  0  0  -0.640383  -0.868843  0  2.060079  0
O  O96  1  0.17872770  0.27177577  0.33037057  1  0  -0.928539  0  1.846433  0  0  -0.882936  0  2.04132  0  0  -0.90566  0  2.007139  0  0  -0.643287  -0.871312  0  2.062924  0
O  O97  1  0.82127027  0.72822965  0.66962762  1  0  -0.928685  0  1.846356  0  0  -0.883142  0  2.041117  0  0  -0.905847  0  2.006958  0  0  -0.643331  -0.871521  0  2.062713  0
O  O98  1  0.43961838  0.05935730  0.39196013  1  0  -0.878397  0  1.849868  0  0  -0.829264  0  2.033198  0  0  -0.852003  0  2.003434  0  0  -0.607551  -0.81684  0  2.050231  0
O  O99  1  0.56038040  0.94064902  0.60802875  1  0  -0.878377  0  1.8497  0  0  -0.829201  0  2.033033  0  0  -0.851936  0  2.00334  0  0  -0.607403  -0.816783  0  2.050055  0
