# generated using pymatgen
data_CdH8C10(BrN)2
_symmetry_space_group_name_H-M   'P 1'
_cell_length_a   7.36942953
_cell_length_b   9.61809027
_cell_length_c   9.62566891
_cell_angle_alpha   119.92895617
_cell_angle_beta   105.00754183
_cell_angle_gamma   90.01366691
_symmetry_Int_Tables_number   1
_chemical_formula_structural   CdH8C10(BrN)2
_chemical_formula_sum   'Cd2 H16 C20 Br4 N4'
_cell_volume   564.24592401
_cell_formula_units_Z   2
loop_
 _symmetry_equiv_pos_site_id
 _symmetry_equiv_pos_as_xyz
  1  'x, y, z'
loop_
 _atom_site_type_symbol
 _atom_site_label
 _atom_site_symmetry_multiplicity
 _atom_site_fract_x
 _atom_site_fract_y
 _atom_site_fract_z
 _atom_site_occupancy
 _atom_site_pbe_bader_spin_density
 _atom_site_pbe_cm5_charge
 _atom_site_pbe_ddec_charge
 _atom_site_pbe_ddec_spin_density
 _atom_site_pbe_ddec_sum_bond_order
 _atom_site_pbe_magmom
Cd  Cd0  1  0.75002675  0.08508052  0.99994746  1  0  0.539851  0.652673  0  2.517737  0
Cd  Cd1  1  0.24997514  0.91491952  0.00004920  1  0  0.539846  0.652656  0  2.517775  0
H  H2  1  0.07939551  0.34603552  0.33991272  1  0  0.100732  0.075664  0  1.038516  0
H  H3  1  0.42072886  0.00615007  0.65985900  1  0  0.100731  0.075644  0  1.038255  0
H  H4  1  0.92060496  0.65396455  0.66008575  1  0  0.100736  0.075665  0  1.038492  0
H  H5  1  0.57927395  0.99384758  0.34013979  1  0  0.10074  0.075675  0  1.038281  0
H  H6  1  0.20215997  0.64759379  0.51598835  1  0  0.090627  0.107609  0  1.053455  0
H  H7  1  0.29784420  0.13167557  0.48365832  1  0  0.090671  0.107396  0  1.053871  0
H  H8  1  0.79783323  0.35240516  0.48401225  1  0  0.090608  0.107556  0  1.053429  0
H  H9  1  0.70215226  0.86832579  0.51634411  1  0  0.090671  0.10738  0  1.053913  0
H  H10  1  0.83169730  0.69540387  0.12108558  1  0  0.097924  0.115311  0  1.037464  0
H  H11  1  0.66778652  0.57426787  0.87862345  1  0  0.097537  0.114842  0  1.037993  0
H  H12  1  0.16830901  0.30459739  0.87891465  1  0  0.097923  0.115335  0  1.037356  0
H  H13  1  0.33221018  0.42573468  0.12137753  1  0  0.097545  0.114833  0  1.038022  0
H  H14  1  0.06976146  0.82221265  0.39933957  1  0  0.101601  0.107605  0  0.99265  0
H  H15  1  0.42991155  0.42289904  0.60028209  1  0  0.10173  0.107581  0  0.993064  0
H  H16  1  0.93023780  0.17778870  0.60066343  1  0  0.10159  0.107591  0  0.99267  0
H  H17  1  0.57008210  0.57710235  0.39972083  1  0  0.101741  0.107617  0  0.99303  0
C  C18  1  0.82366329  0.45225494  0.08314235  1  0  0.117428  0.169407  0  3.969669  0
C  C19  1  0.67612892  0.36902511  0.91659087  1  0  0.117149  0.169216  0  3.970393  0
C  C20  1  0.17633813  0.54774270  0.91685512  1  0  0.117362  0.169344  0  3.96981  0
C  C21  1  0.32387341  0.63097738  0.08340915  1  0  0.117165  0.169167  0  3.970458  0
C  C22  1  0.02714629  0.42913022  0.29780654  1  0  0.043025  0.09584  0  3.949482  0
C  C23  1  0.47283913  0.13132179  0.70191334  1  0  0.042906  0.096098  0  3.947964  0
C  C24  1  0.97285164  0.57086378  0.70218845  1  0  0.042956  0.095757  0  3.949664  0
C  C25  1  0.52716134  0.86867827  0.29808408  1  0  0.042871  0.096046  0  3.948064  0
C  C26  1  0.09427162  0.59524547  0.39411817  1  0  -0.084887  -0.121798  0  3.956818  0
C  C27  1  0.40567726  0.20116880  0.60557771  1  0  -0.085193  -0.121778  0  3.957918  0
C  C28  1  0.90572994  0.40476077  0.60589079  1  0  -0.084839  -0.12169  0  3.956909  0
C  C29  1  0.59432202  0.79883253  0.39442425  1  0  -0.08519  -0.121706  0  3.957901  0
C  C30  1  0.88702907  0.61973993  0.17175336  1  0  -0.082988  -0.155758  0  3.935563  0
C  C31  1  0.61264280  0.44794082  0.82796564  1  0  -0.082395  -0.154388  0  3.935079  0
C  C32  1  0.11297370  0.38026500  0.82824898  1  0  -0.082987  -0.155789  0  3.935511  0
C  C33  1  0.38735625  0.55205930  0.17203567  1  0  -0.082393  -0.154301  0  3.935052  0
C  C34  1  0.02202318  0.69156466  0.32897634  1  0  -0.067905  -0.015471  0  3.952577  0
C  C35  1  0.47770674  0.36259006  0.67066947  1  0  -0.067934  -0.016053  0  3.953513  0
C  C36  1  0.97797283  0.30843424  0.67102273  1  0  -0.067892  -0.015467  0  3.95242  0
C  C37  1  0.52228972  0.63741128  0.32933192  1  0  -0.067959  -0.016178  0  3.953624  0
Br  Br38  1  0.50623128  0.80157041  0.79366937  1  0  -0.257655  -0.449928  0  1.355896  0
Br  Br39  1  0.99373975  0.00776814  0.20636910  1  0  -0.257564  -0.449909  0  1.356375  0
Br  Br40  1  0.49377036  0.19842844  0.20632874  1  0  -0.257657  -0.449928  0  1.355922  0
Br  Br41  1  0.00625798  0.99222459  0.79362108  1  0  -0.257557  -0.449893  0  1.356404  0
N  N42  1  0.89440162  0.36020273  0.14768061  1  0  -0.327701  -0.254777  0  3.501924  0
N  N43  1  0.60557338  0.21247096  0.85209810  1  0  -0.327678  -0.255009  0  3.5006  0
N  N44  1  0.10560189  0.63979854  0.85231906  1  0  -0.327628  -0.254682  0  3.501862  0
N  N45  1  0.39443107  0.78752788  0.14790057  1  0  -0.327668  -0.255005  0  3.500775  0
