# generated using pymatgen
data_La3P3H47C37(NO8)3
_symmetry_space_group_name_H-M   'P 1'
_cell_length_a   15.16896409
_cell_length_b   15.36198693
_cell_length_c   15.15820270
_cell_angle_alpha   107.93597794
_cell_angle_beta   116.41352514
_cell_angle_gamma   103.14603517
_symmetry_Int_Tables_number   1
_chemical_formula_structural   La3P3H47C37(NO8)3
_chemical_formula_sum   'La6 P6 H94 C74 N6 O48'
_cell_volume   2720.60112482
_cell_formula_units_Z   2
loop_
 _symmetry_equiv_pos_site_id
 _symmetry_equiv_pos_as_xyz
  1  'x, y, z'
loop_
 _atom_site_type_symbol
 _atom_site_label
 _atom_site_symmetry_multiplicity
 _atom_site_fract_x
 _atom_site_fract_y
 _atom_site_fract_z
 _atom_site_occupancy
 _atom_site_pbe_bader_charge
 _atom_site_pbe_bader_spin_density
 _atom_site_pbe_cm5_charge
 _atom_site_pbe_ddec_charge
 _atom_site_pbe_ddec_spin_density
 _atom_site_pbe_ddec_sum_bond_order
 _atom_site_pbe_magmom
La  La0  1  0.05695080  0.19692069  0.36450290  1  2.229484  0  1.447146  1.896491  0  2.399425  0
La  La1  1  0.94304788  0.80308255  0.63549883  1  2.229463  0  1.447202  1.896618  0  2.399236  0
La  La2  1  0.32176833  0.18928727  0.61921539  1  2.229719  0  1.454613  1.887642  0  2.433295  0
La  La3  1  0.67823117  0.81071295  0.38078580  1  2.229602  0  1.454612  1.887603  0  2.433332  0
La  La4  1  0.08783278  0.85866845  0.43552047  1  2.262904  0  1.453377  1.993957  0  2.267483  0
La  La5  1  0.91216995  0.14133396  0.56447623  1  2.262981  0  1.453365  1.993861  0  2.267669  0
P  P6  1  0.11988948  0.01305027  0.30424248  1  3.41675  0  0.301322  1.286685  0  5.503536  0
P  P7  1  0.88011243  0.98695518  0.69575675  1  3.416628  0  0.301224  1.286537  0  5.503653  0
P  P8  1  0.19620441  0.31071724  0.68465096  1  3.416953  0  0.315245  1.305146  0  5.440163  0
P  P9  1  0.80379653  0.68928452  0.31535332  1  3.417153  0  0.315294  1.305249  0  5.44008  0
P  P10  1  0.88057337  0.97463074  0.35365311  1  3.347136  0  0.330923  1.327822  0  5.383475  0
P  P11  1  0.11942430  0.02536865  0.64634173  1  3.347146  0  0.330931  1.327839  0  5.383584  0
H  H12  1  0.61884150  0.37999767  0.83367351  1  0.657904  0  0.306828  0.36851  0  0.970896  0
H  H13  1  0.38115631  0.61999724  0.16632467  1  0.65796  0  0.306814  0.368523  0  0.970812  0
H  H14  1  0.99647365  0.65799249  0.27592382  1  0.629767  0  0.302152  0.390092  0  0.935267  0
H  H15  1  0.00352658  0.34200771  0.72407571  1  0.629787  0  0.302117  0.39005  0  0.935334  0
H  H16  1  0.11052975  0.67106042  0.36101329  1  0.608221  0  0.314215  0.397244  0  0.908136  0
H  H17  1  0.88947256  0.32894430  0.63898721  1  0.608199  0  0.314208  0.397203  0  0.908186  0
H  H18  1  0.33604989  0.06007852  0.40282878  1  0.518718  0  0.332495  0.268931  0  0.9068  0
H  H19  1  0.66395306  0.93992920  0.59717093  1  0.518638  0  0.332517  0.268975  0  0.906761  0
H  H20  1  0.14950215  0.43151773  0.59160183  1  0.501585  0  0.33303  0.271722  0  0.898047  0
H  H21  1  0.85049700  0.56848173  0.40839832  1  0.50158  0  0.333035  0.271709  0  0.89808  0
H  H22  1  0.74231552  0.78005058  0.18073133  1  0.536725  0  0.318064  0.271411  0  0.973783  0
H  H23  1  0.25769356  0.21994966  0.81927416  1  0.53676  0  0.318078  0.27139  0  0.973767  0
H  H24  1  0.16884562  0.98565450  0.16648548  1  0.08627  0  0.12503  0.149023  0  0.95903  0
H  H25  1  0.83115738  0.01435168  0.83351247  1  0.086286  0  0.125022  0.14899  0  0.959073  0
H  H26  1  0.22098754  0.11630040  0.26243836  1  0.148626  0  0.132243  0.162114  0  1.012412  0
H  H27  1  0.77901689  0.88370731  0.73756135  1  0.148754  0  0.132217  0.162096  0  1.012405  0
H  H28  1  0.40287298  0.19133071  0.36672670  1  0.131024  0  0.121236  0.110749  0  0.996857  0
H  H29  1  0.59713122  0.80867166  0.63326801  1  0.131025  0  0.121222  0.110727  0  0.996799  0
H  H30  1  0.38251359  0.09730050  0.24467806  1  0.030613  0  0.110724  0.089793  0  0.957836  0
H  H31  1  0.61748845  0.90270040  0.75531854  1  0.030777  0  0.110721  0.089837  0  0.957755  0
H  H32  1  0.57796516  0.17764017  0.40646433  1  0.041575  0  0.10408  0.112502  0  0.974595  0
H  H33  1  0.42203761  0.82236069  0.59352994  1  0.041703  0  0.10409  0.112496  0  0.974676  0
H  H34  1  0.53522555  0.15037715  0.48968044  1  0.031486  0  0.103313  0.108889  0  0.990409  0
H  H35  1  0.46477783  0.84962829  0.51031812  1  0.031379  0  0.103346  0.108915  0  0.990422  0
H  H36  1  0.50855000  0.99827569  0.28205165  1  0.05847  0  0.105386  0.092594  0  0.969335  0
H  H37  1  0.49145283  0.00172374  0.71794816  1  0.058361  0  0.105371  0.092578  0  0.969358  0
H  H38  1  0.41717446  0.86151685  0.30640564  1  0.086651  0  0.107227  0.119878  0  1.001611  0
H  H39  1  0.58282530  0.13848711  0.69359348  1  0.086828  0  0.107223  0.119871  0  1.001609  0
H  H40  1  0.43615876  0.94893526  0.42668556  1  0.027288  0  0.096114  0.092665  0  1.039597  0
H  H41  1  0.56384468  0.05106871  0.57331589  1  0.027346  0  0.09613  0.092699  0  1.039548  0
H  H42  1  0.29080807  0.91743382  0.18948177  1  0.062975  0  0.107283  0.083256  0  0.993025  0
H  H43  1  0.70919503  0.08256942  0.81052062  1  0.063253  0  0.107296  0.083225  0  0.992996  0
H  H44  1  0.24749041  0.88576731  0.27207074  1  0.107754  0  0.12792  0.125124  0  0.956865  0
H  H45  1  0.75251151  0.11423819  0.72793181  1  0.107605  0  0.127929  0.125113  0  0.956945  0
H  H46  1  0.30601845  0.48853853  0.82610534  1  0.115338  0  0.122039  0.156819  0  1.006574  0
H  H47  1  0.69398789  0.51146695  0.17389720  1  0.1153  0  0.121991  0.156744  0  1.006578  0
H  H48  1  0.34418791  0.44884771  0.72914018  1  0.153873  0  0.132284  0.163298  0  1.019827  0
H  H49  1  0.65581119  0.55115319  0.27085576  1  0.154143  0  0.13228  0.163304  0  1.019893  0
H  H50  1  0.22907967  0.59914612  0.80864893  1  0.064134  0  0.112639  0.092255  0  0.982204  0
H  H51  1  0.77091260  0.40084960  0.19135164  1  0.06424  0  0.112663  0.092309  0  0.982218  0
H  H52  1  0.11274515  0.48149531  0.73275989  1  0.08626  0  0.119017  0.102942  0  0.978017  0
H  H53  1  0.88724563  0.51850030  0.26723205  1  0.086325  0  0.118995  0.102969  0  0.977955  0
H  H54  1  0.02339111  0.51658686  0.57591726  1  0.028226  0  0.094933  0.092731  0  1.033268  0
H  H55  1  0.97660253  0.48341181  0.42407886  1  0.028937  0  0.094953  0.092735  0  1.033343  0
H  H56  1  0.05925558  0.61721969  0.69790730  1  0.099004  0  0.109519  0.120411  0  1.001652  0
H  H57  1  0.94074205  0.38278126  0.30209195  1  0.099011  0  0.109515  0.120404  0  1.001654  0
H  H58  1  0.22075115  0.72249351  0.71410065  1  0.056227  0  0.106661  0.096493  0  0.966152  0
H  H59  1  0.77924545  0.27750518  0.28589746  1  0.056188  0  0.106659  0.096482  0  0.966063  0
H  H60  1  0.15816787  0.54258745  0.50285745  1  0.039991  0  0.101281  0.10564  0  0.996353  0
H  H61  1  0.84183518  0.45741727  0.49714404  1  0.04029  0  0.101277  0.105601  0  0.996375  0
H  H62  1  0.27173392  0.66168518  0.58296605  1  0.063281  0  0.103561  0.112397  0  0.97669  0
H  H63  1  0.72826767  0.33831961  0.41703943  1  0.063267  0  0.103568  0.11243  0  0.976743  0
H  H64  1  0.31583090  0.52210755  0.61818226  1  0.122071  0  0.120823  0.109899  0  1.000677  0
H  H65  1  0.68416886  0.47789648  0.38182218  1  0.121054  0  0.1208  0.10987  0  1.000733  0
H  H66  1  0.34946235  0.62347217  0.74349758  1  0.05648  0  0.11087  0.089752  0  0.960519  0
H  H67  1  0.65053192  0.37653109  0.25650415  1  0.056435  0  0.11082  0.089697  0  0.960521  0
H  H68  1  0.71370900  0.94138778  0.19206875  1  0.101653  0  0.128125  0.152695  0  0.986983  0
H  H69  1  0.28628767  0.05860783  0.80792517  1  0.101809  0  0.128141  0.152739  0  0.986963  0
H  H70  1  0.82462166  0.97281455  0.17556410  1  0.129165  0  0.128026  0.15725  0  1.015054  0
H  H71  1  0.17537609  0.02718181  0.82442987  1  0.129608  0  0.128018  0.157243  0  1.015107  0
H  H72  1  0.90904111  0.84057546  0.18277647  1  0.150906  0  0.125095  0.11386  0  1.02122  0
H  H73  1  0.09095645  0.15942685  0.81721195  1  0.150956  0  0.125094  0.113826  0  1.021234  0
H  H74  1  0.82533542  0.82813186  0.04860132  1  0.046165  0  0.112881  0.093898  0  0.952165  0
H  H75  1  0.17465275  0.17186444  0.95138571  1  0.046025  0  0.112852  0.093864  0  0.952243  0
H  H76  1  0.81115643  0.66293284  0.12273826  1  0.075911  0  0.098489  0.099377  0  1.029616  0
H  H77  1  0.18884918  0.33707269  0.87726726  1  0.075872  0  0.098444  0.099295  0  1.029711  0
H  H78  1  0.85228463  0.67054546  0.03212545  1  0.05514  0  0.107586  0.11559  0  0.951327  0
H  H79  1  0.14771525  0.32945397  0.96787370  1  0.054921  0  0.107551  0.115506  0  0.951204  0
H  H80  1  0.67127789  0.62274530  0.88198666  1  0.060471  0  0.098873  0.084339  0  0.985134  0
H  H81  1  0.32871222  0.37724892  0.11801315  1  0.060422  0  0.098897  0.084375  0  0.985165  0
H  H82  1  0.58478468  0.62869273  0.03068745  1  0.106333  0  0.106127  0.122182  0  0.992865  0
H  H83  1  0.41522891  0.37129336  0.96933033  1  0.106591  0  0.106103  0.12214  0  0.992899  0
H  H84  1  0.51849573  0.62025205  0.89683672  1  0.027052  0  0.094332  0.094569  0  0.988458  0
H  H85  1  0.48150080  0.37972581  0.10317953  1  0.027256  0  0.094292  0.09442  0  0.98861  0
H  H86  1  0.64442206  0.80113060  0.97450701  1  0.03279  0  0.10574  0.080029  0  0.967352  0
H  H87  1  0.35555546  0.19884100  0.02548696  1  0.032362  0  0.105705  0.079869  0  0.96739  0
H  H88  1  0.58424747  0.79196511  0.05170313  1  0.0937  0  0.112133  0.096035  0  1.01446  0
H  H89  1  0.41574895  0.20801563  0.94830403  1  0.094182  0  0.111986  0.095859  0  1.014621  0
H  H90  1  0.73532382  0.32289520  0.92544140  1  0.097786  0  0.110507  0.112578  0  0.998045  0
H  H91  1  0.26466778  0.67709736  0.07454801  1  0.097579  0  0.110532  0.112613  0  0.998106  0
H  H92  1  0.89002173  0.31052270  0.07238072  1  0.110737  0  0.111936  0.121048  0  0.982462  0
H  H93  1  0.10997621  0.68948051  0.92761803  1  0.110797  0  0.111916  0.121011  0  0.982491  0
H  H94  1  0.66327901  0.08547040  0.07216183  1  0.105768  0  0.102804  0.109619  0  1.003722  0
H  H95  1  0.33672665  0.91453365  0.92784591  1  0.105452  0  0.102774  0.109508  0  1.003787  0
H  H96  1  0.50683294  0.09476458  0.92169490  1  0.084535  0  0.102589  0.104201  0  1.016064  0
H  H97  1  0.49316570  0.90522733  0.07830341  1  0.084511  0  0.102625  0.10422  0  1.016142  0
H  H98  1  0.50840625  0.45901624  0.33169913  1  0.061843  0  0.098284  0.093161  0  1.024348  0
H  H99  1  0.49159197  0.54097798  0.66830364  1  0.063007  0  0.0983  0.09317  0  1.024321  0
H  H100  1  0.36896471  0.32434297  0.32288667  1  0.058587  0  0.098057  0.096087  0  1.021269  0
H  H101  1  0.63102570  0.67565348  0.67711129  1  0.058664  0  0.098058  0.096126  0  1.021335  0
H  H102  1  0.25871557  0.54060846  0.43562240  1  0.06996  0  0.099898  0.096472  0  1.047596  0
H  H103  1  0.74127684  0.45939388  0.56436635  1  0.070163  0  0.09992  0.096501  0  1.04758  0
H  H104  1  0.39817642  0.67522904  0.44523988  1  0.07616  0  0.102795  0.103053  0  1.028284  0
H  H105  1  0.60182410  0.32477333  0.55475384  1  0.076191  0  0.102808  0.103093  0  1.028284  0
C  C106  1  0.20766952  0.04007486  0.25400276  1  -0.312112  0  -0.067362  -0.383666  0  3.755862  0
C  C107  1  0.79233166  0.95993060  0.74599679  1  -0.31211  0  -0.067302  -0.383486  0  3.755706  0
C  C108  1  0.40521744  0.11879611  0.33070136  1  0.210134  0  -0.057673  -0.062721  0  3.790997  0
C  C109  1  0.59478524  0.88120779  0.66929445  1  0.209679  0  -0.057686  -0.062791  0  3.790994  0
C  C110  1  0.51541732  0.12230642  0.40399251  1  0.022181  0  -0.159883  -0.195179  0  3.93093  0
C  C111  1  0.48458511  0.87769369  0.59600138  1  0.02263  0  -0.159887  -0.195102  0  3.931063  0
C  C112  1  0.51730422  0.01862720  0.36308217  1  -0.038832  0  -0.088329  -0.120445  0  3.871882  0
C  C113  1  0.48269960  0.98137598  0.63691657  1  -0.038901  0  -0.088314  -0.120507  0  3.872041  0
C  C114  1  0.42226086  0.93713355  0.34567765  1  -0.026098  0  -0.164478  -0.200394  0  3.920952  0
C  C115  1  0.57774189  0.06286893  0.65432435  1  -0.026313  0  -0.164489  -0.20044  0  3.921009  0
C  C116  1  0.31340103  0.93741002  0.27520481  1  0.20822  0  -0.05444  -0.059673  0  3.771692  0
C  C117  1  0.68660202  0.06259468  0.72479469  1  0.208021  0  -0.054451  -0.05957  0  3.771695  0
C  C118  1  0.62880302  0.02348383  0.44006553  1  1.60383  0  0.233108  0.633454  0  4.134083  0
C  C119  1  0.37119972  0.97651863  0.55993515  1  1.603764  0  0.233165  0.633603  0  4.13406  0
C  C120  1  0.27558208  0.44508157  0.73792792  1  -0.322247  0  -0.070256  -0.397007  0  3.741052  0
C  C121  1  0.72441665  0.55492017  0.26207404  1  -0.322548  0  -0.070244  -0.39705  0  3.741142  0
C  C122  1  0.16142833  0.53925918  0.72449441  1  0.212355  0  -0.056313  -0.052909  0  3.781547  0
C  C123  1  0.83856467  0.46073648  0.27550184  1  0.21215  0  -0.056312  -0.053037  0  3.781624  0
C  C124  1  0.09338517  0.58042295  0.65561210  1  -0.042201  0  -0.164997  -0.204654  0  3.928286  0
C  C125  1  0.90661356  0.41957877  0.34438853  1  -0.041836  0  -0.164973  -0.204609  0  3.928314  0
C  C126  1  0.15886147  0.65321846  0.63410722  1  -0.004415  0  -0.090747  -0.120875  0  3.875167  0
C  C127  1  0.84113833  0.34678402  0.36589413  1  -0.004394  0  -0.090688  -0.120754  0  3.875098  0
C  C128  1  0.21743106  0.60545751  0.58809025  1  -0.022144  0  -0.162214  -0.201353  0  3.940535  0
C  C129  1  0.78256523  0.39453891  0.41190705  1  -0.021819  0  -0.1622  -0.201349  0  3.940532  0
C  C130  1  0.28320354  0.56394000  0.65843658  1  0.195736  0  -0.055378  -0.057995  0  3.783983  0
C  C131  1  0.71679367  0.43606325  0.34156515  1  0.19654  0  -0.055284  -0.057893  0  3.783827  0
C  C132  1  0.08963885  0.69064750  0.55825717  1  1.589838  0  0.231509  0.62976  0  4.14241  0
C  C133  1  0.91035839  0.30935419  0.44174081  1  1.589658  0  0.231416  0.62966  0  4.142661  0
C  C134  1  0.78544561  0.92889447  0.20330230  1  -0.259057  0  -0.063193  -0.374893  0  3.735582  0
C  C135  1  0.21455033  0.07110114  0.79669130  1  -0.259652  0  -0.063242  -0.374991  0  3.735513  0
C  C136  1  0.82752221  0.79760079  0.10596289  1  0.201076  0  -0.055713  -0.054714  0  3.767479  0
C  C137  1  0.17247619  0.20239859  0.89403228  1  0.20121  0  -0.055696  -0.054701  0  3.767602  0
C  C138  1  0.79684540  0.68475051  0.05678216  1  -0.044511  0  -0.155804  -0.187629  0  3.894145  0
C  C139  1  0.20315521  0.31524887  0.94321268  1  -0.044303  0  -0.15574  -0.187382  0  3.893901  0
C  C140  1  0.67759993  0.61968181  0.95603706  1  0.010234  0  -0.087957  -0.114944  0  3.862333  0
C  C141  1  0.32240162  0.38031164  0.04396499  1  0.010225  0  -0.087937  -0.115144  0  3.862659  0
C  C142  1  0.59814144  0.65518446  0.97620986  1  -0.039284  0  -0.159005  -0.189526  0  3.899095  0
C  C143  1  0.40185851  0.34480243  0.02380733  1  -0.039999  0  -0.158899  -0.189279  0  3.899372  0
C  C144  1  0.63769101  0.76965687  0.02861443  1  0.206175  0  -0.060241  -0.059199  0  3.810794  0
C  C145  1  0.36230223  0.23033135  0.97138828  1  0.206108  0  -0.060146  -0.05891  0  3.81079  0
C  C146  1  0.64848184  0.51054872  0.93558148  1  1.525133  0  0.232223  0.608216  0  4.060022  0
C  C147  1  0.35153535  0.48943870  0.06442512  1  1.524914  0  0.232289  0.608355  0  4.059507  0
C  C148  1  0.51742968  0.21166971  0.82423139  1  1.566372  0  0.205078  0.562962  0  4.225832  0
C  C149  1  0.48256667  0.78832526  0.17577012  1  1.566865  0  0.205182  0.56307  0  4.225746  0
C  C150  1  0.61166389  0.20993130  0.91560304  1  -0.02538  0  -0.017588  -0.038072  0  3.983861  0
C  C151  1  0.38833535  0.79006513  0.08439624  1  -0.025391  0  -0.017559  -0.03795  0  3.983706  0
C  C152  1  0.71951248  0.27093982  0.95755199  1  -0.083581  0  -0.078369  -0.088633  0  3.961769  0
C  C153  1  0.28048233  0.72905657  0.04244265  1  -0.08352  0  -0.078425  -0.088838  0  3.961903  0
C  C154  1  0.80555138  0.26427370  0.03892207  1  -0.065776  0  -0.08178  -0.100972  0  3.961371  0
C  C155  1  0.19444694  0.73572876  0.96107729  1  -0.065914  0  -0.081771  -0.100864  0  3.961378  0
C  C156  1  0.78486993  0.19723453  0.07992284  1  0.00503  0  -0.013762  -0.02181  0  3.968612  0
C  C157  1  0.21513121  0.80277247  0.92007914  1  0.005102  0  -0.013815  -0.021949  0  3.968754  0
C  C158  1  0.67716351  0.13668229  0.03854853  1  -0.095944  0  -0.092094  -0.113083  0  4.005693  0
C  C159  1  0.32283963  0.86331946  0.96145541  1  -0.095527  0  -0.092021  -0.112838  0  4.005637  0
C  C160  1  0.59121884  0.14261698  0.95654342  1  -0.080167  0  -0.093103  -0.11683  0  4.018561  0
C  C161  1  0.40878296  0.85738021  0.04345724  1  -0.080165  0  -0.093163  -0.116923  0  4.018674  0
C  C162  1  0.87752699  0.19184506  0.16996306  1  1.562382  0  0.186233  0.543097  0  4.277055  0
C  C163  1  0.12247594  0.80816425  0.83004305  1  1.562499  0  0.186214  0.543091  0  4.276951  0
C  C164  1  0.54586152  0.65560163  0.39865356  1  1.539502  0  0.196972  0.570992  0  4.212119  0
C  C165  1  0.45414470  0.34439559  0.60135107  1  1.538901  0  0.19697  0.57109  0  4.212102  0
C  C166  1  0.46265275  0.57503978  0.39147723  1  0.018055  0  -0.00976  -0.015247  0  3.969315  0
C  C167  1  0.53734793  0.42495819  0.60852514  1  0.018258  0  -0.009748  -0.015217  0  3.969347  0
C  C168  1  0.45347005  0.47592488  0.35479272  1  -0.066329  0  -0.082519  -0.093046  0  3.990177  0
C  C169  1  0.54652590  0.52407081  0.64520618  1  -0.067687  0  -0.082519  -0.093073  0  3.990143  0
C  C170  1  0.37646734  0.40161513  0.34961041  1  -0.027513  0  -0.082064  -0.096599  0  3.985373  0
C  C171  1  0.62352592  0.59838430  0.65038643  1  -0.027431  0  -0.082078  -0.096651  0  3.985409  0
C  C172  1  0.30765385  0.42568296  0.38101433  1  -0.008437  0  -0.012299  -0.018258  0  3.962965  0
C  C173  1  0.69233893  0.57432022  0.61898078  1  -0.008344  0  -0.012267  -0.018096  0  3.962902  0
C  C174  1  0.31493307  0.52413455  0.41463336  1  -0.035829  0  -0.086442  -0.09799  0  3.987207  0
C  C175  1  0.68506195  0.47586707  0.58535899  1  -0.036128  0  -0.086466  -0.098009  0  3.987237  0
C  C176  1  0.39207058  0.59849773  0.42011972  1  -0.048594  0  -0.086524  -0.09864  0  3.976414  0
C  C177  1  0.60792890  0.40150240  0.57987484  1  -0.048623  0  -0.086571  -0.098793  0  3.976538  0
C  C178  1  0.22887558  0.34807740  0.38199006  1  1.557142  0  0.197596  0.571353  0  4.22011  0
C  C179  1  0.77112006  0.65192887  0.61801188  1  1.556382  0  0.197478  0.571205  0  4.22029  0
N  N180  1  0.31664849  0.04090954  0.32194546  1  -1.006803  0  -0.336972  0.041916  0  3.545103  0
N  N181  1  0.68335234  0.95909515  0.67805305  1  -1.006683  0  -0.33705  0.041731  0  3.545212  0
N  N182  1  0.21249804  0.48968686  0.67163166  1  -0.996426  0  -0.336348  0.043326  0  3.536524  0
N  N183  1  0.78750068  0.51031485  0.32836831  1  -0.996645  0  -0.336398  0.043333  0  3.536552  0
N  N184  1  0.74878265  0.81860922  0.13402625  1  -1.008699  0  -0.34355  0.021033  0  3.554215  0
N  N185  1  0.25121152  0.18138417  0.86596985  1  -1.008526  0  -0.34352  0.021116  0  3.554021  0
O  O186  1  0.01759641  0.02194021  0.23003198  1  -1.469904  0  -0.425509  -0.783822  0  2.10022  0
O  O187  1  0.98240737  0.97806448  0.76996719  1  -1.469801  0  -0.425535  -0.783849  0  2.100191  0
O  O188  1  0.18252287  0.10434342  0.42243902  1  -1.47323  0  -0.497522  -0.862134  0  2.344767  0
O  O189  1  0.81747870  0.89566127  0.57755916  1  -1.473216  0  -0.497509  -0.86207  0  2.344734  0
O  O190  1  0.10822007  0.91233400  0.30676206  1  -1.472159  0  -0.448183  -0.808031  0  2.177352  0
O  O191  1  0.89178366  0.08767218  0.69323622  1  -1.472328  0  -0.44809  -0.807988  0  2.177478  0
O  O192  1  0.71273014  0.10114769  0.47922541  1  -1.206477  0  -0.364929  -0.613145  0  2.211508  0
O  O193  1  0.28727160  0.89885094  0.52077037  1  -1.206355  0  -0.365053  -0.613287  0  2.211359  0
O  O194  1  0.62995924  0.94767930  0.45852456  1  -1.22514  0  -0.378412  -0.636514  0  2.283663  0
O  O195  1  0.37004027  0.05232096  0.54147995  1  -1.225182  0  -0.378348  -0.636548  0  2.283857  0
O  O196  1  0.27856874  0.28048476  0.75882726  1  -1.460202  0  -0.40784  -0.761725  0  2.203658  0
O  O197  1  0.72143546  0.71951929  0.24117982  1  -1.460235  0  -0.40786  -0.761745  0  2.203674  0
O  O198  1  0.17226009  0.25681365  0.56716934  1  -1.472525  0  -0.475578  -0.846195  0  2.341076  0
O  O199  1  0.82773977  0.74318736  0.43283423  1  -1.472586  0  -0.475598  -0.846222  0  2.341165  0
O  O200  1  0.09473004  0.29777626  0.68763138  1  -1.485852  0  -0.422217  -0.825326  0  2.238807  0
O  O201  1  0.90527272  0.70222624  0.31237262  1  -1.485776  0  -0.422223  -0.825378  0  2.238802  0
O  O202  1  0.13026239  0.73502439  0.51821422  1  -1.212341  0  -0.356869  -0.639245  0  2.233921  0
O  O203  1  0.86974145  0.26497885  0.48178849  1  -1.212377  0  -0.356834  -0.639184  0  2.234115  0
O  O204  1  0.99600628  0.67574222  0.54137497  1  -1.225372  0  -0.3675  -0.625827  0  2.279913  0
O  O205  1  0.00399027  0.32425795  0.45862158  1  -1.225439  0  -0.36748  -0.625827  0  2.279929  0
O  O206  1  0.94272715  0.09054581  0.40606724  1  -1.459257  0  -0.468615  -0.840756  0  2.256927  0
O  O207  1  0.05726718  0.90945432  0.59392633  1  -1.459233  0  -0.468609  -0.840805  0  2.256994  0
O  O208  1  0.95021285  0.91672200  0.36632646  1  -1.473668  0  -0.438392  -0.808905  0  2.317223  0
O  O209  1  0.04979097  0.08328115  0.63367028  1  -1.473765  0  -0.438357  -0.808872  0  2.317302  0
O  O210  1  0.81351018  0.96003727  0.40528733  1  -1.463536  0  -0.480955  -0.859892  0  2.275125  0
O  O211  1  0.18648827  0.03996064  0.59471006  1  -1.463583  0  -0.481001  -0.859894  0  2.275124  0
O  O212  1  0.65463698  0.45392644  0.85370679  1  -1.175243  0  -0.338212  -0.497798  0  2.287628  0
O  O213  1  0.34535388  0.54606613  0.14628296  1  -1.175221  0  -0.33828  -0.497868  0  2.287188  0
O  O214  1  0.62443472  0.47902084  0.99101050  1  -1.162049  0  -0.302922  -0.513087  0  2.093769  0
O  O215  1  0.37561155  0.52098026  0.00901390  1  -1.161822  0  -0.302952  -0.513152  0  2.093383  0
O  O216  1  0.53447596  0.26638516  0.77943985  1  -1.19661  0  -0.338316  -0.601602  0  2.288767  0
O  O217  1  0.46551762  0.73361663  0.22056378  1  -1.196776  0  -0.338382  -0.601712  0  2.288685  0
O  O218  1  0.42113613  0.15458118  0.78876848  1  -1.190529  0  -0.350932  -0.585804  0  2.204178  0
O  O219  1  0.57886017  0.84541529  0.21123280  1  -1.19084  0  -0.350943  -0.585803  0  2.204173  0
O  O220  1  0.97450555  0.24347375  0.20272491  1  -1.178839  0  -0.361757  -0.591112  0  2.14596  0
O  O221  1  0.02549890  0.75654691  0.79728529  1  -1.178744  0  -0.361795  -0.591105  0  2.146082  0
O  O222  1  0.85485040  0.13750944  0.21284183  1  -1.192422  0  -0.36963  -0.603263  0  2.192338  0
O  O223  1  0.14515455  0.86249298  0.78715719  1  -1.192574  0  -0.369594  -0.60327  0  2.192103  0
O  O224  1  0.59247872  0.63045553  0.34894318  1  -1.190665  0  -0.370112  -0.60793  0  2.206498  0
O  O225  1  0.40752534  0.36954019  0.65106068  1  -1.190655  0  -0.370183  -0.608006  0  2.206446  0
O  O226  1  0.56729431  0.74824591  0.45286201  1  -1.186293  0  -0.373649  -0.601813  0  2.197449  0
O  O227  1  0.43271743  0.25175212  0.54714796  1  -1.185847  0  -0.373605  -0.601878  0  2.197618  0
O  O228  1  0.20728341  0.25486650  0.33180164  1  -1.185592  0  -0.367949  -0.604536  0  2.191631  0
O  O229  1  0.79271120  0.74513751  0.66819982  1  -1.185161  0  -0.367912  -0.604544  0  2.191611  0
O  O230  1  0.18564723  0.37759955  0.43425640  1  -1.192007  0  -0.374462  -0.60648  0  2.199604  0
O  O231  1  0.81435054  0.62240976  0.56574806  1  -1.191711  0  -0.374385  -0.606401  0  2.199705  0
O  O232  1  0.07314249  0.68582475  0.29959299  1  -1.221622  0  -0.602917  -0.764938  0  1.892126  0
O  O233  1  0.92685808  0.31417617  0.70040494  1  -1.221615  0  -0.602881  -0.764866  0  1.892225  0
