# generated using pymatgen
data_LiH8C7N4ClO4
_symmetry_space_group_name_H-M   'P 1'
_cell_length_a   9.08649043
_cell_length_b   9.08791869
_cell_length_c   12.91680829
_cell_angle_alpha   90.00103337
_cell_angle_beta   89.99939726
_cell_angle_gamma   90.03914833
_symmetry_Int_Tables_number   1
_chemical_formula_structural   LiH8C7N4ClO4
_chemical_formula_sum   'Li4 H32 C28 N16 Cl4 O16'
_cell_volume   1066.63472610
_cell_formula_units_Z   4
loop_
 _symmetry_equiv_pos_site_id
 _symmetry_equiv_pos_as_xyz
  1  'x, y, z'
loop_
 _atom_site_type_symbol
 _atom_site_label
 _atom_site_symmetry_multiplicity
 _atom_site_fract_x
 _atom_site_fract_y
 _atom_site_fract_z
 _atom_site_occupancy
 _atom_site_hle17_bader_spin_density
 _atom_site_hle17_ddec_charge
 _atom_site_hle17_ddec_spin_density
 _atom_site_hle17_ddec_sum_bond_order
 _atom_site_hle17_magmom
 _atom_site_hse06_10hf_bader_spin_density
 _atom_site_hse06_10hf_ddec_charge
 _atom_site_hse06_10hf_ddec_spin_density
 _atom_site_hse06_10hf_ddec_sum_bond_order
 _atom_site_hse06_10hf_magmom
 _atom_site_hse06_bader_spin_density
 _atom_site_hse06_ddec_charge
 _atom_site_hse06_ddec_spin_density
 _atom_site_hse06_ddec_sum_bond_order
 _atom_site_hse06_magmom
 _atom_site_pbe_bader_spin_density
 _atom_site_pbe_cm5_charge
 _atom_site_pbe_ddec_charge
 _atom_site_pbe_ddec_spin_density
 _atom_site_pbe_ddec_sum_bond_order
 _atom_site_pbe_magmom
Li  Li0  1  0.28952037  0.59844022  0.05945781  1  0  0.815564  0  0.452799  0  0  0.753299  0  0.591851  0  0  0.7639  0  0.575096  0  0  0.529949  0.746428  0  0.602725  0
Li  Li1  1  0.71048322  0.40155852  0.55945856  1  0  0.815588  0  0.452748  0  0  0.753326  0  0.591809  0  0  0.763921  0  0.575056  0  0  0.529946  0.746454  0  0.602682  0
Li  Li2  1  0.40139674  0.28939655  0.30922767  1  0  0.815444  0  0.452965  0  0  0.752951  0  0.592506  0  0  0.763534  0  0.575769  0  0  0.530245  0.746102  0  0.603361  0
Li  Li3  1  0.59859870  0.71059319  0.80923006  1  0  0.815484  0  0.452848  0  0  0.75297  0  0.592412  0  0  0.763557  0  0.575682  0  0  0.53024  0.746104  0  0.603274  0
H  H4  1  0.62552520  0.51549787  0.17657321  1  0  0.09361  0  0.952889  0  0  0.099565  0  1.02255  0  0  0.102101  0  1.019699  0  0  0.135028  0.097654  0  1.024502  0
H  H5  1  0.37447223  0.48449837  0.67656433  1  0  0.093565  0  0.952936  0  0  0.099589  0  1.022524  0  0  0.102125  0  1.01967  0  0  0.135023  0.097675  0  1.024478  0
H  H6  1  0.48429955  0.62550334  0.42570099  1  0  0.093541  0  0.952883  0  0  0.09943  0  1.022743  0  0  0.10197  0  1.019913  0  0  0.134894  0.097523  0  1.024671  0
H  H7  1  0.51570845  0.37448500  0.92569896  1  0  0.093422  0  0.953062  0  0  0.099396  0  1.022805  0  0  0.101938  0  1.019974  0  0  0.134889  0.097488  0  1.024735  0
H  H8  1  0.34146945  0.88258383  0.16791500  1  0  0.102848  0  0.960155  0  0  0.110751  0  1.022961  0  0  0.113049  0  1.022572  0  0  0.119415  0.109442  0  1.022762  0
H  H9  1  0.65853141  0.11741328  0.66791718  1  0  0.102868  0  0.960174  0  0  0.110777  0  1.022973  0  0  0.113074  0  1.022585  0  0  0.119421  0.109471  0  1.022772  0
H  H10  1  0.11707384  0.34102555  0.41808798  1  0  0.102728  0  0.960596  0  0  0.110361  0  1.023841  0  0  0.112631  0  1.02353  0  0  0.119303  0.1091  0  1.023563  0
H  H11  1  0.88292217  0.65897910  0.91809536  1  0  0.102779  0  0.960566  0  0  0.110424  0  1.023805  0  0  0.112695  0  1.023492  0  0  0.119308  0.109162  0  1.023526  0
H  H12  1  0.59334049  0.95705026  0.27861526  1  0  0.115262  0  0.99415  0  0  0.121244  0  1.063224  0  0  0.124154  0  1.061609  0  0  0.118262  0.118805  0  1.065041  0
H  H13  1  0.40665542  0.04295960  0.77861991  1  0  0.115239  0  0.994205  0  0  0.121284  0  1.063206  0  0  0.124194  0  1.061591  0  0  0.118276  0.11884  0  1.065028  0
H  H14  1  0.04317010  0.59289660  0.52884012  1  0  0.115023  0  0.994057  0  0  0.121274  0  1.062849  0  0  0.124152  0  1.061244  0  0  0.117961  0.118836  0  1.064663  0
H  H15  1  0.95683174  0.40711565  0.02884750  1  0  0.115136  0  0.993947  0  0  0.121267  0  1.062855  0  0  0.124186  0  1.061209  0  0  0.117971  0.118836  0  1.064661  0
H  H16  1  0.80974389  0.61906719  0.32715218  1  0  0.101001  0  0.939938  0  0  0.111515  0  1.006037  0  0  0.112564  0  1.004807  0  0  0.132853  0.110036  0  1.007733  0
H  H17  1  0.19025018  0.38094062  0.82715574  1  0  0.100951  0  0.940041  0  0  0.111497  0  1.006064  0  0  0.112545  0  1.004832  0  0  0.132824  0.110023  0  1.007745  0
H  H18  1  0.38160872  0.80945403  0.57668642  1  0  0.101138  0  0.939387  0  0  0.111478  0  1.005727  0  0  0.112488  0  1.004489  0  0  0.132883  0.110034  0  1.007393  0
H  H19  1  0.61839131  0.19054514  0.07668195  1  0  0.101133  0  0.939425  0  0  0.111474  0  1.005789  0  0  0.112485  0  1.004549  0  0  0.132879  0.110031  0  1.007453  0
H  H20  1  0.80157263  0.81334346  0.34613413  1  0  0.092598  0  0.907486  0  0  0.105362  0  0.96981  0  0  0.106231  0  0.968194  0  0  0.129645  0.103589  0  0.972435  0
H  H21  1  0.19842337  0.18666594  0.84613053  1  0  0.092673  0  0.907504  0  0  0.105407  0  0.969817  0  0  0.106276  0  0.968199  0  0  0.129636  0.10363  0  0.972443  0
H  H22  1  0.18730515  0.80103726  0.59611061  1  0  0.092368  0  0.906843  0  0  0.104922  0  0.969575  0  0  0.105847  0  0.967873  0  0  0.129602  0.103068  0  0.972309  0
H  H23  1  0.81269459  0.19895911  0.09610559  1  0  0.092383  0  0.906775  0  0  0.104969  0  0.969513  0  0  0.105896  0  0.967804  0  0  0.129621  0.103116  0  0.972242  0
H  H24  1  0.02005795  0.53200838  0.22587333  1  0  0.101028  0  0.943441  0  0  0.109194  0  1.00965  0  0  0.111681  0  1.006575  0  0  0.137366  0.107191  0  1.01203  0
H  H25  1  0.97993875  0.46799793  0.72587681  1  0  0.100984  0  0.943411  0  0  0.109186  0  1.009608  0  0  0.111671  0  1.006535  0  0  0.137331  0.107181  0  1.01199  0
H  H26  1  0.46836786  0.02001993  0.47515138  1  0  0.100976  0  0.942402  0  0  0.109255  0  1.00857  0  0  0.111738  0  1.005516  0  0  0.137142  0.107228  0  1.010963  0
H  H27  1  0.53163060  0.97998068  0.97513987  1  0  0.100893  0  0.942446  0  0  0.109219  0  1.008561  0  0  0.111709  0  1.005486  0  0  0.13714  0.10719  0  1.010954  0
H  H28  1  0.86842479  0.96106216  0.15721973  1  0  0.114161  0  0.966069  0  0  0.123215  0  1.030033  0  0  0.12596  0  1.028536  0  0  0.119105  0.121245  0  1.03115  0
H  H29  1  0.13157404  0.03894349  0.65721630  1  0  0.114136  0  0.965901  0  0  0.123183  0  1.029892  0  0  0.125928  0  1.028396  0  0  0.119105  0.121215  0  1.031008  0
H  H30  1  0.03841850  0.86873438  0.40818359  1  0  0.114598  0  0.965934  0  0  0.12306  0  1.030554  0  0  0.125798  0  1.029031  0  0  0.119103  0.121106  0  1.031665  0
H  H31  1  0.96158756  0.13125791  0.90817752  1  0  0.114608  0  0.965984  0  0  0.123038  0  1.030625  0  0  0.125778  0  1.029099  0  0  0.119051  0.121084  0  1.031736  0
H  H32  1  0.10773844  0.89426510  0.03081628  1  0  0.099569  0  0.964675  0  0  0.104822  0  1.031764  0  0  0.107491  0  1.030436  0  0  0.11419  0.103001  0  1.032399  0
H  H33  1  0.89226337  0.10573399  0.53081504  1  0  0.099592  0  0.964614  0  0  0.104828  0  1.031745  0  0  0.107497  0  1.030416  0  0  0.114201  0.103008  0  1.032381  0
H  H34  1  0.10478036  0.10784628  0.28138715  1  0  0.099743  0  0.964232  0  0  0.105023  0  1.03131  0  0  0.107675  0  1.030005  0  0  0.114245  0.103211  0  1.03195  0
H  H35  1  0.89522980  0.89214386  0.78137648  1  0  0.099831  0  0.964072  0  0  0.105126  0  1.031125  0  0  0.107781  0  1.029816  0  0  0.114305  0.103315  0  1.031768  0
C  C36  1  0.57951380  0.62456338  0.18728879  1  0  0.18029  0  3.668242  0  0  0.122021  0  3.943101  0  0  0.134743  0  3.954863  0  0  0.148879  0.114106  0  3.934386  0
C  C37  1  0.42048127  0.37543423  0.68728593  1  0  0.180258  0  3.668375  0  0  0.121921  0  3.943255  0  0  0.134647  0  3.955011  0  0  0.14882  0.114004  0  3.934545  0
C  C38  1  0.37523171  0.57941607  0.43662098  1  0  0.180867  0  3.670023  0  0  0.122603  0  3.944557  0  0  0.135329  0  3.956351  0  0  0.148946  0.114682  0  3.93582  0
C  C39  1  0.62477282  0.42057475  0.93662338  1  0  0.181077  0  3.670364  0  0  0.122779  0  3.944829  0  0  0.135503  0  3.956626  0  0  0.149056  0.114856  0  3.936095  0
C  C40  1  0.43771282  0.81674156  0.18537829  1  0  0.018822  0  3.762989  0  0  -0.010238  0  4.03075  0  0  -0.008915  0  4.050252  0  0  0.00065  -0.011534  0  4.017298  0
C  C41  1  0.56228558  0.18325601  0.68538202  1  0  0.018791  0  3.762875  0  0  -0.010276  0  4.030646  0  0  -0.008952  0  4.050143  0  0  0.000655  -0.01157  0  4.017191  0
C  C42  1  0.18298027  0.43740919  0.43529771  1  0  0.019397  0  3.762267  0  0  -0.009369  0  4.029908  0  0  -0.008058  0  4.049396  0  0  0.001262  -0.010677  0  4.016437  0
C  C43  1  0.81701989  0.56259260  0.93530126  1  0  0.019358  0  3.762039  0  0  -0.009427  0  4.029668  0  0  -0.008115  0  4.049156  0  0  0.001213  -0.010738  0  4.016201  0
C  C44  1  0.56013612  0.85600100  0.24099013  1  0  -0.082171  0  3.687785  0  0  -0.124578  0  3.950172  0  0  -0.124095  0  3.970319  0  0  -0.007105  -0.124727  0  3.936788  0
C  C45  1  0.43986365  0.14400130  0.74099194  1  0  -0.082134  0  3.68772  0  0  -0.124591  0  3.950083  0  0  -0.124105  0  3.970224  0  0  -0.0071  -0.124734  0  3.936699  0
C  C46  1  0.14401873  0.55985148  0.49091066  1  0  -0.082422  0  3.686803  0  0  -0.125033  0  3.949117  0  0  -0.124513  0  3.969346  0  0  -0.007548  -0.125175  0  3.935697  0
C  C47  1  0.85597949  0.44014844  0.99091625  1  0  -0.08271  0  3.686677  0  0  -0.125199  0  3.949056  0  0  -0.124716  0  3.969244  0  0  -0.007581  -0.125346  0  3.935637  0
C  C48  1  0.79473827  0.72502313  0.28856597  1  0  0.092716  0  3.626061  0  0  0.013423  0  3.871639  0  0  0.023694  0  3.879212  0  0  0.059998  0.008226  0  3.866639  0
C  C49  1  0.20525528  0.27498589  0.78856653  1  0  0.092577  0  3.626329  0  0  0.013363  0  3.871719  0  0  0.023638  0  3.879286  0  0  0.060104  0.008168  0  3.866707  0
C  C50  1  0.27538355  0.79446994  0.53832585  1  0  0.094023  0  3.623529  0  0  0.015014  0  3.868793  0  0  0.02535  0  3.876253  0  0  0.060417  0.009799  0  3.863854  0
C  C51  1  0.72461485  0.20552715  0.03832388  1  0  0.09401  0  3.623269  0  0  0.014894  0  3.868734  0  0  0.02524  0  3.876178  0  0  0.060354  0.009679  0  3.863795  0
C  C52  1  0.01411093  0.63827883  0.18773999  1  0  0.169616  0  3.687558  0  0  0.112026  0  3.960256  0  0  0.124614  0  3.973106  0  0  0.14521  0.104295  0  3.950825  0
C  C53  1  0.98588633  0.36172650  0.68774208  1  0  0.169745  0  3.687439  0  0  0.112079  0  3.960159  0  0  0.124668  0  3.973008  0  0  0.145267  0.104348  0  3.950727  0
C  C54  1  0.36180788  0.01398717  0.43735138  1  0  0.169586  0  3.687325  0  0  0.111726  0  3.960056  0  0  0.124294  0  3.972921  0  0  0.145497  0.104031  0  3.950592  0
C  C55  1  0.63819555  0.98600917  0.93733838  1  0  0.169644  0  3.687747  0  0  0.111788  0  3.960451  0  0  0.124364  0  3.973325  0  0  0.145489  0.104093  0  3.950981  0
C  C56  1  0.93536665  0.86316262  0.15025198  1  0  -0.059833  0  3.662943  0  0  -0.103526  0  3.924827  0  0  -0.102205  0  3.944741  0  0  -0.002561  -0.104205  0  3.91148  0
C  C57  1  0.06463008  0.13684065  0.65025182  1  0  -0.059782  0  3.662853  0  0  -0.103484  0  3.924743  0  0  -0.102163  0  3.944659  0  0  -0.002548  -0.104163  0  3.911397  0
C  C58  1  0.13650122  0.93544642  0.40063147  1  0  -0.060288  0  3.662854  0  0  -0.103539  0  3.924999  0  0  -0.102199  0  3.944875  0  0  -0.00297  -0.104241  0  3.911682  0
C  C59  1  0.86350936  0.06454237  0.90062374  1  0  -0.060398  0  3.662731  0  0  -0.103571  0  3.924843  0  0  -0.102228  0  3.944722  0  0  -0.002917  -0.104274  0  3.911525  0
C  C60  1  0.05397394  0.82771300  0.08933980  1  0  0.012933  0  3.770426  0  0  -0.014147  0  4.041108  0  0  -0.013365  0  4.061093  0  0  0.000312  -0.015007  0  4.027277  0
C  C61  1  0.94602920  0.17228540  0.58934133  1  0  0.012971  0  3.770443  0  0  -0.014096  0  4.041092  0  0  -0.013315  0  4.061077  0  0  0.000315  -0.014959  0  4.027266  0
C  C62  1  0.17175441  0.05406990  0.33963702  1  0  0.012884  0  3.770552  0  0  -0.014277  0  4.041197  0  0  -0.013474  0  4.061147  0  0  0.000563  -0.015155  0  4.027389  0
C  C63  1  0.82825488  0.94592393  0.83962675  1  0  0.012783  0  3.770615  0  0  -0.014415  0  4.041229  0  0  -0.013614  0  4.061177  0  0  0.000466  -0.015297  0  4.027428  0
N  N64  1  0.45097906  0.67223402  0.15216479  1  0  -0.463443  0  3.151113  0  0  -0.414832  0  3.43458  0  0  -0.427778  0  3.447447  0  0  -0.429535  -0.406162  0  3.424918  0
N  N65  1  0.54901543  0.32776599  0.65216348  1  0  -0.463391  0  3.150973  0  0  -0.414772  0  3.434452  0  0  -0.427717  0  3.447318  0  0  -0.42948  -0.406101  0  3.424796  0
N  N66  1  0.32736318  0.45080106  0.40172937  1  0  -0.464109  0  3.152695  0  0  -0.415304  0  3.435792  0  0  -0.428257  0  3.448664  0  0  -0.43002  -0.406635  0  3.426134  0
N  N67  1  0.67263638  0.54918996  0.90173227  1  0  -0.464166  0  3.152763  0  0  -0.415367  0  3.435911  0  0  -0.428325  0  3.448783  0  0  -0.430066  -0.406692  0  3.426259  0
N  N68  1  0.64937148  0.73243003  0.24234926  1  0  -0.090792  0  3.569088  0  0  0.000607  0  3.79307  0  0  -0.014974  0  3.819189  0  0  -0.247261  0.010661  0  3.775083  0
N  N69  1  0.35062386  0.26757340  0.74235020  1  0  -0.09071  0  3.568805  0  0  0.000638  0  3.792846  0  0  -0.014947  0  3.818967  0  0  -0.247284  0.010693  0  3.774859  0
N  N70  1  0.26762944  0.64924201  0.49189244  1  0  -0.09126  0  3.569372  0  0  4.1e-05  0  3.793761  0  0  -0.015601  0  3.81987  0  0  -0.247064  0.01014  0  3.775762  0
N  N71  1  0.73237097  0.35075243  0.99189471  1  0  -0.091165  0  3.569324  0  0  0.000164  0  3.793698  0  0  -0.015479  0  3.819813  0  0  -0.247008  0.010261  0  3.775704  0
N  N72  1  0.91091587  0.74157606  0.21230145  1  0  -0.092151  0  3.584745  0  0  -0.001961  0  3.810656  0  0  -0.017851  0  3.837608  0  0  -0.247798  0.007854  0  3.792131  0
N  N73  1  0.08908102  0.25842990  0.71230266  1  0  -0.092121  0  3.584735  0  0  -0.001925  0  3.810609  0  0  -0.017818  0  3.837561  0  0  -0.247825  0.007889  0  3.792084  0
N  N74  1  0.25842394  0.91090017  0.46230322  1  0  -0.093008  0  3.585096  0  0  -0.002503  0  3.810772  0  0  -0.018418  0  3.837692  0  0  -0.247981  0.007334  0  3.792255  0
N  N75  1  0.74157911  0.08909681  0.96229283  1  0  -0.092934  0  3.584846  0  0  -0.002478  0  3.810624  0  0  -0.01841  0  3.837558  0  0  -0.247966  0.007366  0  3.792101  0
N  N76  1  0.10248138  0.68728077  0.11356608  1  0  -0.473013  0  3.16882  0  0  -0.423756  0  3.450345  0  0  -0.437511  0  3.464436  0  0  -0.438962  -0.414786  0  3.439897  0
N  N77  1  0.89751919  0.31271935  0.61356820  1  0  -0.473183  0  3.16888  0  0  -0.423925  0  3.45043  0  0  -0.437678  0  3.464519  0  0  -0.439024  -0.414956  0  3.439987  0
N  N78  1  0.31246866  0.10243627  0.36337254  1  0  -0.472603  0  3.170257  0  0  -0.423219  0  3.451695  0  0  -0.436958  0  3.465774  0  0  -0.439157  -0.414266  0  3.441226  0
N  N79  1  0.68753478  0.89755817  0.86336348  1  0  -0.472541  0  3.170564  0  0  -0.423156  0  3.452016  0  0  -0.436902  0  3.466096  0  0  -0.439097  -0.414196  0  3.441552  0
Cl  Cl80  1  0.25328311  0.27057308  0.08304374  1  0  1.416661  0  6.196021  0  0  1.355911  0  6.755867  0  0  1.40788  0  6.731677  0  0  0.756654  1.320308  0  6.770523  0
Cl  Cl81  1  0.74670913  0.72943396  0.58303753  1  0  1.416633  0  6.196038  0  0  1.355851  0  6.755899  0  0  1.407809  0  6.73173  0  0  0.756585  1.320244  0  6.770556  0
Cl  Cl82  1  0.72945047  0.25349407  0.33303784  1  0  1.418591  0  6.194264  0  0  1.357804  0  6.753997  0  0  1.409812  0  6.729669  0  0  0.756972  1.322205  0  6.768692  0
Cl  Cl83  1  0.27055562  0.74650179  0.83303691  1  0  1.418552  0  6.194659  0  0  1.357751  0  6.75442  0  0  1.409763  0  6.7301  0  0  0.756987  1.322148  0  6.769122  0
O  O84  1  0.26985640  0.39229982  0.00797791  1  0  -0.624156  0  1.873927  0  0  -0.595447  0  2.1346  0  0  -0.610315  0  2.118867  0  0  -0.358588  -0.584837  0  2.144652  0
O  O85  1  0.73014796  0.60769979  0.50797494  1  0  -0.624165  0  1.873984  0  0  -0.595467  0  2.134706  0  0  -0.610332  0  2.118975  0  0  -0.358577  -0.584856  0  2.144762  0
O  O86  1  0.60769872  0.26923401  0.25791689  1  0  -0.624261  0  1.873375  0  0  -0.595839  0  2.134468  0  0  -0.610679  0  2.118638  0  0  -0.358281  -0.585229  0  2.144521  0
O  O87  1  0.39230299  0.73076322  0.75791099  1  0  -0.624207  0  1.873363  0  0  -0.595807  0  2.134515  0  0  -0.61064  0  2.118674  0  0  -0.358275  -0.585191  0  2.144575  0
O  O88  1  0.36395360  0.15942453  0.06216363  1  0  -0.522826  0  1.842311  0  0  -0.496533  0  2.079621  0  0  -0.512196  0  2.066908  0  0  -0.289618  -0.485109  0  2.08813  0
O  O89  1  0.63603894  0.84057647  0.56215113  1  0  -0.522796  0  1.842374  0  0  -0.496467  0  2.079719  0  0  -0.512126  0  2.067012  0  0  -0.289572  -0.485042  0  2.088231  0
O  O90  1  0.84035754  0.36448009  0.31193540  1  0  -0.52313  0  1.841725  0  0  -0.497223  0  2.07958  0  0  -0.512898  0  2.066842  0  0  -0.289778  -0.4858  0  2.088108  0
O  O91  1  0.15964006  0.63552293  0.81193234  1  0  -0.523184  0  1.84188  0  0  -0.497231  0  2.079713  0  0  -0.512908  0  2.066978  0  0  -0.289796  -0.485808  0  2.088241  0
O  O92  1  0.10667612  0.20823468  0.07344244  1  0  -0.526498  0  1.848026  0  0  -0.497357  0  2.085601  0  0  -0.513527  0  2.073578  0  0  -0.294609  -0.486186  0  2.094084  0
O  O93  1  0.89331626  0.79177541  0.57343672  1  0  -0.526508  0  1.848194  0  0  -0.497354  0  2.085781  0  0  -0.51352  0  2.073754  0  0  -0.29453  -0.48618  0  2.094265  0
O  O94  1  0.79217504  0.10712871  0.32377666  1  0  -0.527025  0  1.847376  0  0  -0.497522  0  2.084762  0  0  -0.51369  0  2.072703  0  0  -0.294489  -0.486354  0  2.093259  0
O  O95  1  0.20783448  0.89287021  0.82379043  1  0  -0.526925  0  1.847362  0  0  -0.497478  0  2.084753  0  0  -0.513655  0  2.072711  0  0  -0.294536  -0.48631  0  2.093252  0
O  O96  1  0.27249693  0.33284496  0.18680112  1  0  -0.591769  0  1.887431  0  0  -0.5604  0  2.141125  0  0  -0.575149  0  2.126086  0  0  -0.33156  -0.550157  0  2.150821  0
O  O97  1  0.72748934  0.66717465  0.68679504  1  0  -0.591838  0  1.887292  0  0  -0.560449  0  2.140987  0  0  -0.575197  0  2.125946  0  0  -0.331631  -0.550195  0  2.150684  0
O  O98  1  0.66706813  0.27298901  0.43672635  1  0  -0.592781  0  1.88686  0  0  -0.561251  0  2.1404  0  0  -0.576014  0  2.125333  0  0  -0.33168  -0.550957  0  2.15003  0
O  O99  1  0.33294081  0.72699411  0.93672084  1  0  -0.592851  0  1.887125  0  0  -0.561297  0  2.140651  0  0  -0.576065  0  2.125589  0  0  -0.33165  -0.551003  0  2.150274  0
