# generated using pymatgen
data_ZnH2C14Br3NO4
_symmetry_space_group_name_H-M   'P 1'
_cell_length_a   14.00165703
_cell_length_b   14.84954065
_cell_length_c   16.21313105
_cell_angle_alpha   89.06172581
_cell_angle_beta   90.47537530
_cell_angle_gamma   97.18665595
_symmetry_Int_Tables_number   1
_chemical_formula_structural   ZnH2C14Br3NO4
_chemical_formula_sum   'Zn2 H4 C28 Br6 N2 O8'
_cell_volume   3344.00677487
_cell_formula_units_Z   2
loop_
 _symmetry_equiv_pos_site_id
 _symmetry_equiv_pos_as_xyz
  1  'x, y, z'
loop_
 _atom_site_type_symbol
 _atom_site_label
 _atom_site_symmetry_multiplicity
 _atom_site_fract_x
 _atom_site_fract_y
 _atom_site_fract_z
 _atom_site_occupancy
 _atom_site_pbe_bader_charge
 _atom_site_pbe_bader_spin_density
 _atom_site_pbe_cm5_charge
 _atom_site_pbe_ddec_charge
 _atom_site_pbe_ddec_spin_density
 _atom_site_pbe_ddec_sum_bond_order
 _atom_site_pbe_magmom
Zn  Zn0  1  0.49974055  0.40502740  0.50150929  1  1.320806  0  0.684256  0.88989  0  2.414467  0
Zn  Zn1  1  0.50025584  0.59496624  0.49848391  1  1.319148  0  0.684233  0.889877  0  2.415063  0
H  H2  1  0.97567844  0.39578207  0.50002540  1  0.078146  0  0.119721  0.12088  0  0.959591  0
H  H3  1  0.02432262  0.60424688  0.49996504  1  0.077963  0  0.119658  0.12087  0  0.959172  0
H  H4  1  0.49539479  0.91651261  0.36731394  1  0.146732  0  0.134074  0.154095  0  0.947109  0
H  H5  1  0.50460449  0.08346465  0.63269175  1  0.146259  0  0.134061  0.154081  0  0.947258  0
C  C6  1  0.49964304  0.49934314  0.33916028  1  1.64762  0  0.221389  0.666667  0  4.233717  0
C  C7  1  0.50035266  0.50064501  0.66083974  1  1.647809  0  0.221306  0.66652  0  4.234157  0
C  C8  1  0.49967226  0.49929483  0.24983045  1  0.172837  0  -0.028303  -0.136109  0  3.899577  0
C  C9  1  0.50031719  0.50070013  0.75016703  1  0.172689  0  -0.02805  -0.135699  0  3.899071  0
C  C10  1  0.50147502  0.04771242  0.42391181  1  -0.073386  0  0.004477  0.073832  0  3.966811  0
C  C11  1  0.49853630  0.95226417  0.57609206  1  -0.074453  0  0.004501  0.073729  0  3.966269  0
C  C12  1  0.50398289  0.09404444  0.49949526  1  0.150066  0  0.020217  0.033187  0  4.056311  0
C  C13  1  0.49602175  0.90594097  0.50050914  1  0.150972  0  0.020114  0.033483  0  4.056573  0
C  C14  1  0.50259587  0.04631902  0.57518435  1  0.070505  0  -0.056758  -0.126023  0  3.891098  0
C  C15  1  0.49741349  0.95366438  0.42481638  1  0.069741  0  -0.056764  -0.126077  0  3.891538  0
C  C16  1  0.50695165  0.18991560  0.50042998  1  0.890611  0  0.239857  0.296686  0  3.932913  0
C  C17  1  0.49306157  0.81008068  0.49957312  1  0.890357  0  0.239826  0.296537  0  3.932608  0
C  C18  1  0.31295430  0.47128485  0.49977908  1  1.614306  0  0.219416  0.668655  0  4.237641  0
C  C19  1  0.68704336  0.52875008  0.50022919  1  1.613589  0  0.219221  0.668269  0  4.238415  0
C  C20  1  0.79100087  0.53744452  0.50017587  1  0.113772  0  -0.038526  -0.174575  0  3.932409  0
C  C21  1  0.20898828  0.46257482  0.49982880  1  0.114131  0  -0.038355  -0.174387  0  3.932268  0
C  C22  1  0.97864488  0.53890028  0.50002987  1  0.166354  0  -0.058936  -0.043583  0  4.046447  0
C  C23  1  0.02135647  0.46110976  0.49994717  1  0.067158  0  -0.059161  -0.043531  0  4.047454  0
C  C24  1  0.12160438  0.46123819  0.49989893  1  -0.350236  0  -0.034834  -0.013488  0  4.159434  0
C  C25  1  0.87838507  0.53878858  0.50011246  1  -0.349518  0  -0.034668  -0.013249  0  4.158471  0
C  C26  1  0.49951871  0.41787891  0.95777227  1  -0.075664  0  -0.01525  0.026669  0  3.919877  0
C  C27  1  0.50045071  0.58210522  0.04222153  1  -0.07567  0  -0.015215  0.02664  0  3.919972  0
C  C28  1  0.50006057  0.50047412  0.91222318  1  0.169766  0  -0.005  0.065043  0  4.076505  0
C  C29  1  0.49992486  0.49951744  0.08777678  1  0.169522  0  -0.005102  0.065126  0  4.076821  0
C  C30  1  0.50053358  0.58249157  0.95612817  1  0.043619  0  -0.014335  0.028655  0  3.915658  0
C  C31  1  0.49948417  0.41750678  0.04386938  1  0.044217  0  -0.014238  0.028682  0  3.915341  0
C  C32  1  0.50022797  0.50089376  0.82528428  1  -0.381044  0  -0.049831  -0.055585  0  4.154238  0
C  C33  1  0.49976031  0.49909782  0.17471199  1  -0.381126  0  -0.04963  -0.055382  0  4.154841  0
Br  Br34  1  0.49871786  0.30821540  0.10513536  1  -0.013714  0  0.033418  -0.035396  0  1.461548  0
Br  Br35  1  0.50129353  0.69177824  0.89485727  1  -0.013508  0  0.033465  -0.035357  0  1.461733  0
Br  Br36  1  0.49890570  0.30945125  0.89871352  1  -0.002076  0  0.039693  -0.028993  0  1.450162  0
Br  Br37  1  0.50111266  0.69054101  0.10128223  1  -0.001995  0  0.0397  -0.028997  0  1.449961  0
Br  Br38  1  0.50368488  0.11256326  0.32331700  1  0.040258  0  0.095133  0.017687  0  1.350776  0
Br  Br39  1  0.49631379  0.88740921  0.67669366  1  0.040579  0  0.095072  0.017646  0  1.350497  0
N  N40  1  0.49139740  0.73191090  0.49685586  1  -1.130553  0  -0.25291  -0.251326  0  3.079639  0
N  N41  1  0.50860802  0.26808068  0.50313985  1  -1.130478  0  -0.253048  -0.251478  0  3.080076  0
O  O42  1  0.49843835  0.42228040  0.37495208  1  -1.139001  0  -0.311991  -0.541832  0  2.2532  0
O  O43  1  0.50156351  0.57771660  0.62504542  1  -1.138834  0  -0.312084  -0.541968  0  2.252894  0
O  O44  1  0.50084465  0.57643218  0.37264571  1  -1.136646  0  -0.312818  -0.542175  0  2.249539  0
O  O45  1  0.49915099  0.42356612  0.62735916  1  -1.136976  0  -0.312745  -0.542083  0  2.24997  0
O  O46  1  0.35241032  0.39843672  0.50076471  1  -1.135359  0  -0.316371  -0.542873  0  2.242597  0
O  O47  1  0.64758306  0.60159822  0.49924293  1  -1.134658  0  -0.316305  -0.54263  0  2.242964  0
O  O48  1  0.35526625  0.55253743  0.49875640  1  -1.137243  0  -0.315882  -0.55043  0  2.267108  0
O  O49  1  0.64474134  0.44750223  0.50125556  1  -1.137394  0  -0.315698  -0.550183  0  2.266984  0
