# generated using pymatgen
data_Al2H20C33N4O11
_symmetry_space_group_name_H-M   'P 1'
_cell_length_a   6.63569535
_cell_length_b   21.90862528
_cell_length_c   24.58845470
_cell_angle_alpha   70.85536605
_cell_angle_beta   89.98203827
_cell_angle_gamma   89.98988094
_symmetry_Int_Tables_number   1
_chemical_formula_structural   Al2H20C33N4O11
_chemical_formula_sum   'Al4 H40 C66 N8 O22'
_cell_volume   3376.94360323
_cell_formula_units_Z   2
loop_
 _symmetry_equiv_pos_site_id
 _symmetry_equiv_pos_as_xyz
  1  'x, y, z'
loop_
 _atom_site_type_symbol
 _atom_site_label
 _atom_site_symmetry_multiplicity
 _atom_site_fract_x
 _atom_site_fract_y
 _atom_site_fract_z
 _atom_site_occupancy
 _atom_site_pbe_bader_charge
 _atom_site_pbe_bader_spin_density
 _atom_site_pbe_cm5_charge
 _atom_site_pbe_ddec_charge
 _atom_site_pbe_ddec_spin_density
 _atom_site_pbe_ddec_sum_bond_order
 _atom_site_pbe_magmom
Al  Al0  1  0.85617332  0.50017791  0.50093999  1  2.500117  0  0.397081  1.637811  0  2.580147  0
Al  Al1  1  0.35615456  0.49982283  0.49907087  1  2.500575  0  0.396953  1.637904  0  2.580262  0
Al  Al2  1  0.35243210  0.99945684  0.00152245  1  2.500703  0  0.398751  1.640449  0  2.586612  0
Al  Al3  1  0.85249790  0.00059216  0.99849527  1  2.500939  0  0.398218  1.640053  0  2.587491  0
H  H4  1  0.18515523  0.21612340  0.95022400  1  0.061512  0  0.107994  0.109994  0  0.986468  0
H  H5  1  0.68315750  0.78379789  0.04974176  1  0.061917  0  0.107968  0.110031  0  0.986084  0
H  H6  1  0.22842318  0.39963407  0.78188780  1  0.058005  0  0.103843  0.118776  0  1.017626  0
H  H7  1  0.72821487  0.60032649  0.21810049  1  0.056567  0  0.103705  0.118499  0  1.017902  0
H  H8  1  0.21427889  0.32711215  0.87987575  1  0.032704  0  0.10192  0.102576  0  0.9942  0
H  H9  1  0.71345337  0.67287377  0.12009231  1  0.033193  0  0.101926  0.102479  0  0.994076  0
H  H10  1  0.04717620  0.14221931  0.81295928  1  0.066777  0  0.103584  0.103999  0  1.014419  0
H  H11  1  0.54839331  0.85781098  0.18718111  1  0.065646  0  0.103715  0.104448  0  1.01436  0
H  H12  1  0.05081194  0.29139684  0.55754742  1  0.054723  0  0.10801  0.110398  0  0.984114  0
H  H13  1  0.55096650  0.70858651  0.44248546  1  0.053916  0  0.107965  0.110276  0  0.983932  0
H  H14  1  0.04141644  0.15785888  0.72992908  1  0.072557  0  0.102328  0.100524  0  1.014734  0
H  H15  1  0.54176710  0.84212637  0.27012053  1  0.071915  0  0.102226  0.100282  0  1.014833  0
H  H16  1  0.02047534  0.17881750  0.62575763  1  0.059857  0  0.104013  0.099863  0  0.989754  0
H  H17  1  0.52070808  0.82117891  0.37428723  1  0.059689  0  0.104085  0.100184  0  0.989408  0
H  H18  1  0.42628905  0.87721061  0.90742659  1  0.0964  0  0.110596  0.11613  0  0.99877  0
H  H19  1  0.92670987  0.12312161  0.09238186  1  0.095868  0  0.110281  0.115224  0  0.999631  0
H  H20  1  0.43069716  0.80796387  0.84357777  1  0.065846  0  0.105448  0.103766  0  1.028377  0
H  H21  1  0.93071684  0.19231243  0.15627515  1  0.108782  0  0.105568  0.103976  0  1.028246  0
H  H22  1  0.79065724  0.83455794  0.81841366  1  0.104938  0  0.105631  0.104373  0  1.024692  0
H  H23  1  0.29079062  0.16527773  0.18164931  1  0.105712  0  0.105589  0.104363  0  1.024698  0
H  H24  1  0.78810272  0.90353710  0.88243071  1  0.100968  0  0.110132  0.11615  0  1.001487  0
H  H25  1  0.28879550  0.09621225  0.11769634  1  0.10595  0  0.110324  0.116424  0  1.0009  0
H  H26  1  0.41974606  0.70158609  0.65046839  1  0.074794  0  0.106597  0.106623  0  1.019303  0
H  H27  1  0.91980592  0.29835960  0.34948728  1  0.07287  0  0.106453  0.106307  0  1.019355  0
H  H28  1  0.41843775  0.63900648  0.58130625  1  0.091338  0  0.110915  0.114914  0  0.994757  0
H  H29  1  0.91862315  0.36094412  0.41864870  1  0.090995  0  0.110697  0.114687  0  0.99493  0
H  H30  1  0.79491905  0.59169193  0.61933798  1  0.113693  0  0.111093  0.117371  0  0.995328  0
H  H31  1  0.29513826  0.40840568  0.38068252  1  0.111011  0  0.110934  0.117212  0  0.994807  0
H  H32  1  0.79586081  0.65281662  0.68983955  1  0.104484  0  0.105492  0.104392  0  1.025262  0
H  H33  1  0.29600340  0.34728730  0.31017144  1  0.104654  0  0.105743  0.104673  0  1.025108  0
H  H34  1  0.47405009  0.44601014  0.70791225  1  0.046919  0  0.101397  0.09998  0  0.986866  0
H  H35  1  0.26787259  0.49861301  0.71019757  1  0.041887  0  0.096049  0.094883  0  0.990884  0
H  H36  1  0.39647204  0.50899384  0.64359849  1  0.085012  0  0.108693  0.119372  0  1.017885  0
H  H37  1  0.97418532  0.55394158  0.29201379  1  0.047591  0  0.101303  0.099864  0  0.987034  0
H  H38  1  0.76801715  0.50134443  0.28977164  1  0.041149  0  0.095954  0.094713  0  0.991145  0
H  H39  1  0.89665978  0.49095748  0.35634087  1  0.08722  0  0.10864  0.119456  0  1.017947  0
H  H40  1  0.60376000  0.45280405  0.57089046  1  0.62392  0  0.353483  0.430531  0  0.855189  0
H  H41  1  0.10384460  0.54716157  0.42910704  1  0.624757  0  0.353565  0.430695  0  0.85498  0
H  H42  1  0.59673229  0.04805895  0.92862113  1  0.618543  0  0.356032  0.434086  0  0.848974  0
H  H43  1  0.09627857  0.95181731  0.07131589  1  0.617934  0  0.355896  0.434065  0  0.849249  0
C  C44  1  0.60698586  0.42981072  0.44101402  1  1.589607  0  0.264567  0.628302  0  4.11436  0
C  C45  1  0.10680949  0.57019949  0.55897983  1  1.589853  0  0.26485  0.62872  0  4.114071  0
C  C46  1  0.60926940  0.60144767  0.42120432  1  1.612228  0  0.27684  0.666695  0  4.100452  0
C  C47  1  0.10917051  0.39854615  0.57882029  1  1.612484  0  0.276574  0.666445  0  4.100753  0
C  C48  1  0.17953586  0.28638108  0.86519426  1  -0.008757  0  -0.092924  -0.134123  0  4.002637  0
C  C49  1  0.67882762  0.71359699  0.13480060  1  -0.010744  0  -0.093136  -0.133748  0  4.002082  0
C  C50  1  0.11422619  0.17306861  0.88470259  1  0.000984  0  -0.017073  -0.037985  0  4.011593  0
C  C51  1  0.61373344  0.82691153  0.11535133  1  0.001129  0  -0.016976  -0.037913  0  4.012942  0
C  C52  1  0.06494311  0.28183767  0.60379323  1  -0.010215  0  -0.086942  -0.107103  0  4.0012  0
C  C53  1  0.56513380  0.71815203  0.39623172  1  -0.010327  0  -0.086852  -0.1067  0  4.001438  0
C  C54  1  0.04609570  0.21870562  0.64223111  1  -0.066502  0  -0.093013  -0.08085  0  4.068573  0
C  C55  1  0.54640111  0.78128479  0.35781388  1  -0.068022  0  -0.093515  -0.082159  0  4.070117  0
C  C56  1  0.05815713  0.20721883  0.70089171  1  0.009531  0  -0.090152  -0.131242  0  4.005236  0
C  C57  1  0.55853458  0.79276291  0.29915874  1  0.011118  0  -0.08993  -0.130503  0  4.005418  0
C  C58  1  0.09392797  0.25767184  0.72359500  1  0.012734  0  -0.000679  0.048235  0  3.959991  0
C  C59  1  0.59436287  0.74230605  0.27645568  1  0.017522  0  -0.000405  0.048517  0  3.960099  0
C  C60  1  0.12048542  0.32184712  0.68424219  1  0.03504  0  -0.004281  -0.033488  0  3.937586  0
C  C61  1  0.62083831  0.67812553  0.31578607  1  0.025469  0  -0.004405  -0.033679  0  3.93786  0
C  C62  1  0.11017280  0.24538440  0.78530317  1  -0.029711  0  -0.006695  0.022654  0  3.959609  0
C  C63  1  0.61053061  0.75461285  0.21473868  1  -0.028553  0  -0.00684  0.022713  0  3.960008  0
C  C64  1  0.15745505  0.29777849  0.80542569  1  0.026276  0  -0.008459  0.100534  0  4.049333  0
C  C65  1  0.65738472  0.70220162  0.19458729  1  0.026791  0  -0.008571  0.100195  0  4.048533  0
C  C66  1  0.18854030  0.36082442  0.76530890  1  -0.005099  0  -0.119644  -0.296128  0  4.041214  0
C  C67  1  0.68853862  0.63914652  0.23469855  1  -0.003574  0  -0.119431  -0.295676  0  4.040897  0
C  C68  1  0.17219250  0.37262757  0.70727299  1  0.461259  0  0.082309  0.206988  0  4.086661  0
C  C69  1  0.67234725  0.62733412  0.29273951  1  0.464421  0  0.082335  0.20683  0  4.086979  0
C  C70  1  0.08529847  0.18343209  0.82648613  1  -0.031447  0  -0.085547  -0.148268  0  3.96198  0
C  C71  1  0.58589391  0.81659087  0.17359248  1  -0.033441  0  -0.085869  -0.14944  0  3.963826  0
C  C72  1  0.16249593  0.22494649  0.90436135  1  -0.066975  0  -0.087845  -0.105365  0  4.018628  0
C  C73  1  0.66121255  0.77501710  0.09563684  1  -0.065365  0  -0.087892  -0.105769  0  4.018708  0
C  C74  1  0.10180467  0.33289348  0.62417925  1  -0.05752  0  -0.005049  -0.054647  0  3.928958  0
C  C75  1  0.60202939  0.66708596  0.37585182  1  -0.056864  0  -0.005066  -0.054647  0  3.92853  0
C  C76  1  0.28865100  0.86759532  0.88742529  1  0.052149  0  -0.078165  -0.086273  0  3.960537  0
C  C77  1  0.78903690  0.13264380  0.11244117  1  0.053407  0  -0.077496  -0.084097  0  3.960359  0
C  C78  1  0.29117230  0.82943530  0.85206847  1  -0.041489  0  -0.080746  -0.108894  0  3.961783  0
C  C79  1  0.79128676  0.17075802  0.14783405  1  -0.08989  0  -0.080943  -0.109713  0  3.962426  0
C  C80  1  0.11115043  0.81748341  0.82705869  1  -0.029093  0  -0.002717  0.022715  0  3.995366  0
C  C81  1  0.61114894  0.18256875  0.17289984  1  -0.026979  0  -0.00246  0.023148  0  3.995965  0
C  C82  1  0.92891031  0.84401771  0.83821401  1  0.008796  0  -0.081951  -0.110984  0  3.965531  0
C  C83  1  0.42913555  0.15590642  0.16180425  1  0.010467  0  -0.081642  -0.110381  0  3.965011  0
C  C84  1  0.92731279  0.88209545  0.87362869  1  -0.041956  0  -0.079122  -0.087702  0  3.967371  0
C  C85  1  0.42786524  0.11778424  0.12641903  1  -0.04633  0  -0.079213  -0.088311  0  3.966598  0
C  C86  1  0.10699048  0.89423725  0.89832546  1  -0.081497  0  -0.008597  -0.029809  0  3.955248  0
C  C87  1  0.60765031  0.10580241  0.10163410  1  -0.081582  0  -0.009485  -0.031317  0  3.95634  0
C  C88  1  0.11115095  0.71373069  0.71772165  1  0.933371  0  0.2401  0.244114  0  3.983331  0
C  C89  1  0.61111525  0.28628739  0.28227368  1  0.932878  0  0.239789  0.240884  0  3.987342  0
C  C90  1  0.11263524  0.77746970  0.78947541  1  0.931295  0  0.241198  0.243341  0  3.98465  0
C  C91  1  0.61254400  0.22255844  0.21050047  1  0.931454  0  0.241016  0.24376  0  3.983355  0
C  C92  1  0.28369162  0.67735423  0.64344117  1  -0.030511  0  -0.081588  -0.110494  0  3.962944  0
C  C93  1  0.78379239  0.32262113  0.35652788  1  -0.025234  0  -0.081372  -0.109959  0  3.961807  0
C  C94  1  0.28270685  0.64285377  0.60499705  1  -0.028249  0  -0.079178  -0.094017  0  3.977588  0
C  C95  1  0.78286025  0.35713618  0.39496618  1  -0.027626  0  -0.078882  -0.093519  0  3.977257  0
C  C96  1  0.10666240  0.61158839  0.59671832  1  -0.051562  0  -0.00817  -0.032606  0  3.956891  0
C  C97  1  0.60687374  0.38843648  0.40327180  1  -0.051539  0  -0.007918  -0.032621  0  3.957196  0
C  C98  1  0.93010377  0.61630045  0.62648036  1  -0.012219  0  -0.077924  -0.083171  0  3.955812  0
C  C99  1  0.43030805  0.38375164  0.37352535  1  -0.010116  0  -0.07798  -0.083175  0  3.95564  0
C  C100  1  0.93058211  0.65013625  0.66538936  1  -0.051754  0  -0.081937  -0.112747  0  3.964496  0
C  C101  1  0.43070528  0.34991895  0.33461290  1  -0.050129  0  -0.082281  -0.113079  0  3.965282  0
C  C102  1  0.10820791  0.68045509  0.67464424  1  0.014495  0  -0.003751  0.020587  0  3.99233  0
C  C103  1  0.60828196  0.31956463  0.32533880  1  0.00949  0  -0.00356  0.021488  0  3.993537  0
C  C104  1  0.60384818  0.89367621  0.07280718  1  1.583159  0  0.278004  0.666508  0  4.075216  0
C  C105  1  0.10503130  0.10631275  0.92724411  1  1.577204  0  0.278502  0.666699  0  4.074173  0
C  C106  1  0.60602806  0.06399213  0.06430177  1  1.580068  0  0.263906  0.63006  0  4.118197  0
C  C107  1  0.10456189  0.93600889  0.93570810  1  1.573306  0  0.263592  0.629482  0  4.118353  0
C  C108  1  0.34503858  0.47357867  0.68392893  1  0.38716  0  -0.13576  -0.171114  0  3.887955  0
C  C109  1  0.84521781  0.52637031  0.31601912  1  0.384678  0  -0.135601  -0.170807  0  3.888023  0
N  N110  1  0.93565458  0.75124318  0.78051694  1  -0.540596  0  -0.152442  -0.143536  0  3.203953  0
N  N111  1  0.43551571  0.24872669  0.21955058  1  -0.53997  0  -0.152568  -0.143706  0  3.202712  0
N  N112  1  0.93485207  0.71962418  0.74336680  1  -0.536553  0  -0.152386  -0.142145  0  3.21506  0
N  N113  1  0.43474190  0.28033102  0.25671662  1  -0.536449  0  -0.15211  -0.141275  0  3.215428  0
N  N114  1  0.29169823  0.73296702  0.73221262  1  -0.532533  0  -0.153811  -0.146951  0  3.210877  0
N  N115  1  0.79167712  0.26708366  0.26770606  1  -0.531463  0  -0.153621  -0.145181  0  3.211093  0
N  N116  1  0.29189066  0.76621230  0.76810820  1  -0.575857  0  -0.151304  -0.140187  0  3.210444  0
N  N117  1  0.79183130  0.23383684  0.23181088  1  -0.576793  0  -0.151391  -0.140949  0  3.210137  0
O  O118  1  0.43877705  0.57564235  0.43816015  1  -1.263079  0  -0.23266  -0.594957  0  2.332935  0
O  O119  1  0.93872868  0.42436334  0.56187034  1  -1.263272  0  -0.232589  -0.59476  0  2.333307  0
O  O120  1  0.77800657  0.44542715  0.45613033  1  -1.255005  0  -0.235683  -0.592585  0  2.353102  0
O  O121  1  0.27789310  0.55456063  0.54387172  1  -1.254697  0  -0.235669  -0.592607  0  2.353337  0
O  O122  1  0.77842756  0.57881435  0.44246638  1  -1.261075  0  -0.232889  -0.596144  0  2.356668  0
O  O123  1  0.27836877  0.42116107  0.55754890  1  -1.260136  0  -0.232751  -0.596012  0  2.356046  0
O  O124  1  0.93546449  0.55242414  0.54665587  1  -1.251878  0  -0.233175  -0.583691  0  2.366593  0
O  O125  1  0.43559732  0.44760133  0.45334223  1  -1.251562  0  -0.233122  -0.583499  0  2.366415  0
O  O126  1  0.60460737  0.48994722  0.53588409  1  -1.427081  0  -0.44915  -0.983796  0  2.183348  0
O  O127  1  0.10469108  0.51004234  0.46412959  1  -1.428225  0  -0.449079  -0.9838  0  2.183465  0
O  O128  1  0.77627267  0.04965031  0.04784695  1  -1.249706  0  -0.236606  -0.590914  0  2.350399  0
O  O129  1  0.27456220  0.95201550  0.95090040  1  -1.251468  0  -0.236827  -0.59135  0  2.349755  0
O  O130  1  0.43156737  0.91916445  0.05813903  1  -1.256132  0  -0.231678  -0.58914  0  2.310301  0
O  O131  1  0.93345231  0.07983505  0.94074823  1  -1.259028  0  -0.232403  -0.590744  0  2.31152  0
O  O132  1  0.43443506  0.04535433  0.05265842  1  -1.2589  0  -0.237001  -0.592501  0  2.353735  0
O  O133  1  0.93229087  0.95297219  0.94859365  1  -1.249931  0  -0.236938  -0.591898  0  2.353969  0
O  O134  1  0.27327034  0.08081076  0.94709695  1  -1.256896  0  -0.230706  -0.591629  0  2.326618  0
O  O135  1  0.77203110  0.92013357  0.05414334  1  -1.26254  0  -0.23066  -0.591555  0  2.328142  0
O  O136  1  0.60053312  0.01221240  0.96450919  1  -1.420121  0  -0.448332  -0.989398  0  2.194717  0
O  O137  1  0.10049639  0.98780093  0.03552538  1  -1.419012  0  -0.448446  -0.989429  0  2.194265  0
O  O138  1  0.21098566  0.43142331  0.66740542  1  -1.077519  0  -0.179273  -0.151718  0  2.604124  0
O  O139  1  0.71116617  0.56852647  0.33259445  1  -1.076022  0  -0.179464  -0.152107  0  2.603585  0
