# generated using pymatgen
data_NdH6C6(NO4)2
_symmetry_space_group_name_H-M   'P 1'
_cell_length_a   7.46340688
_cell_length_b   8.29671819
_cell_length_c   17.21267455
_cell_angle_alpha   89.99991895
_cell_angle_beta   90.00003407
_cell_angle_gamma   110.74743493
_symmetry_Int_Tables_number   1
_chemical_formula_structural   NdH6C6(NO4)2
_chemical_formula_sum   'Nd4 H24 C24 N8 O32'
_cell_volume   996.72095734
_cell_formula_units_Z   4
loop_
 _symmetry_equiv_pos_site_id
 _symmetry_equiv_pos_as_xyz
  1  'x, y, z'
loop_
 _atom_site_type_symbol
 _atom_site_label
 _atom_site_symmetry_multiplicity
 _atom_site_fract_x
 _atom_site_fract_y
 _atom_site_fract_z
 _atom_site_occupancy
 _atom_site_hle17_bader_spin_density
 _atom_site_hle17_ddec_charge
 _atom_site_hle17_ddec_spin_density
 _atom_site_hle17_ddec_sum_bond_order
 _atom_site_hle17_magmom
 _atom_site_hse06_10hf_bader_charge
 _atom_site_hse06_10hf_bader_spin_density
 _atom_site_hse06_10hf_ddec_charge
 _atom_site_hse06_10hf_ddec_spin_density
 _atom_site_hse06_10hf_ddec_sum_bond_order
 _atom_site_hse06_10hf_magmom
 _atom_site_hse06_bader_spin_density
 _atom_site_hse06_ddec_charge
 _atom_site_hse06_ddec_spin_density
 _atom_site_hse06_ddec_sum_bond_order
 _atom_site_hse06_magmom
 _atom_site_pbe_bader_spin_density
 _atom_site_pbe_cm5_charge
 _atom_site_pbe_ddec_charge
 _atom_site_pbe_ddec_spin_density
 _atom_site_pbe_ddec_sum_bond_order
 _atom_site_pbe_magmom
Nd  Nd0  1  0.81756279  0.75620694  0.41522759  1  0  2.272426  0  1.639377  0  2.274907  0  2.096225  0  2.115552  0  0  2.198419  0  1.958383  0  0  1.474232  2.062746  0  2.149899  0
Nd  Nd1  1  0.18243836  0.74379101  0.91522767  1  0  2.272475  0  1.639321  0  2.274938  0  2.096308  0  2.11544  0  0  2.198478  0  1.958314  0  0  1.474257  2.062828  0  2.14979  0
Nd  Nd2  1  0.18243371  0.24379704  0.58477135  1  0  2.272556  0  1.639299  0  2.27497  0  2.096365  0  2.115453  0  0  2.198551  0  1.958291  0  0  1.474278  2.062892  0  2.149798  0
Nd  Nd3  1  0.81756790  0.25620387  0.08477185  1  0  2.272548  0  1.639262  0  2.274933  0  2.096308  0  2.115493  0  0  2.198539  0  1.958256  0  0  1.474255  2.062836  0  2.149831  0
H  H4  1  0.45453632  0.90118460  0.20997642  1  0  0.327546  0  0.88135  0  0.566574  0  0.305842  0  0.94326  0  0  0.315978  0  0.934513  0  0  0.321809  0.298761  0  0.949264  0
H  H5  1  0.54546396  0.59881524  0.70997611  1  0  0.327534  0  0.881367  0  0.566575  0  0.305835  0  0.943277  0  0  0.315971  0  0.93453  0  0  0.321805  0.298755  0  0.94928  0
H  H6  1  0.54546264  0.09881549  0.79002543  1  0  0.327536  0  0.881334  0  0.566555  0  0.305836  0  0.94323  0  0  0.31597  0  0.934491  0  0  0.321847  0.298756  0  0.949234  0
H  H7  1  0.45453820  0.40118613  0.29002574  1  0  0.327521  0  0.881324  0  0.566549  0  0.305823  0  0.943218  0  0  0.315956  0  0.93448  0  0  0.321841  0.298742  0  0.949221  0
H  H8  1  0.35657515  0.92753638  0.34819547  1  0  0.098799  0  0.912914  0  0.161261  0  0.111513  0  0.969239  0  0  0.114306  0  0.965512  0  0  0.149538  0.109494  0  0.971707  0
H  H9  1  0.64342701  0.57246435  0.84819637  1  0  0.098839  0  0.912889  0  0.161315  0  0.111557  0  0.969195  0  0  0.114329  0  0.965497  0  0  0.149561  0.10954  0  0.971663  0
H  H10  1  0.64342062  0.07246244  0.65180521  1  0  0.098774  0  0.9129  0  0.161235  0  0.111505  0  0.969202  0  0  0.114278  0  0.965502  0  0  0.149545  0.109487  0  0.97167  0
H  H11  1  0.35657915  0.42753700  0.15180548  1  0  0.09878  0  0.912957  0  0.16124  0  0.11151  0  0.969257  0  0  0.114303  0  0.96553  0  0  0.149536  0.109492  0  0.971725  0
H  H12  1  0.42305458  0.66039746  0.46779058  1  0  0.441069  0  0.835259  0  0.654013  0  0.415631  0  0.899633  0  0  0.425065  0  0.885884  0  0  0.315071  0.408791  0  0.909778  0
H  H13  1  0.57694679  0.83960421  0.96779070  1  0  0.441069  0  0.83526  0  0.654012  0  0.415634  0  0.899627  0  0  0.425068  0  0.885878  0  0  0.315071  0.408795  0  0.909772  0
H  H14  1  0.57694141  0.33960523  0.53220894  1  0  0.441115  0  0.835184  0  0.654027  0  0.41568  0  0.899562  0  0  0.425113  0  0.885816  0  0  0.315078  0.408841  0  0.909706  0
H  H15  1  0.42306071  0.16039712  0.03220940  1  0  0.441134  0  0.835158  0  0.654043  0  0.4157  0  0.899535  0  0  0.425132  0  0.88579  0  0  0.315097  0.408861  0  0.909679  0
H  H16  1  0.40201725  0.49585458  0.41912417  1  0  0.437582  0  0.868404  0  0.665496  0  0.405139  0  0.934272  0  0  0.416786  0  0.917576  0  0  0.299301  0.396931  0  0.946187  0
H  H17  1  0.59798310  0.00414538  0.91912394  1  0  0.437572  0  0.868419  0  0.665494  0  0.405129  0  0.934287  0  0  0.416776  0  0.917591  0  0  0.299295  0.39692  0  0.946203  0
H  H18  1  0.59797451  0.50414426  0.58087651  1  0  0.437595  0  0.868381  0  0.665507  0  0.405157  0  0.934248  0  0  0.416806  0  0.917548  0  0  0.299313  0.39695  0  0.946163  0
H  H19  1  0.40202625  0.99585724  0.08087674  1  0  0.43757  0  0.86842  0  0.665512  0  0.40514  0  0.934278  0  0  0.416789  0  0.917577  0  0  0.299294  0.396932  0  0.946193  0
H  H20  1  0.73748447  0.07709083  0.47945606  1  0  0.442345  0  0.84976  0  0.674913  0  0.412491  0  0.91111  0  0  0.423993  0  0.894306  0  0  0.303335  0.404433  0  0.922972  0
H  H21  1  0.26251353  0.42290639  0.97945662  1  0  0.442373  0  0.849724  0  0.675414  0  0.412546  0  0.911025  0  0  0.424047  0  0.894219  0  0  0.303365  0.404488  0  0.92289  0
H  H22  1  0.26250687  0.92290026  0.52054230  1  0  0.442562  0  0.849475  0  0.675366  0  0.412707  0  0.910835  0  0  0.424215  0  0.89402  0  0  0.303376  0.404649  0  0.922697  0
H  H23  1  0.73749418  0.57709882  0.02054232  1  0  0.442575  0  0.849461  0  0.675379  0  0.412726  0  0.910811  0  0  0.424232  0  0.893997  0  0  0.303389  0.404668  0  0.922674  0
H  H24  1  0.65855137  0.00608714  0.39771341  1  0  0.411695  0  0.871725  0  0.628746  0  0.389813  0  0.932499  0  0  0.398622  0  0.919614  0  0  0.305542  0.383297  0  0.942162  0
H  H25  1  0.34144846  0.49391159  0.89771510  1  0  0.411696  0  0.871714  0  0.628779  0  0.389817  0  0.93249  0  0  0.398626  0  0.919603  0  0  0.305547  0.383302  0  0.942153  0
H  H26  1  0.34144522  0.99391038  0.60228380  1  0  0.411696  0  0.871714  0  0.628816  0  0.389822  0  0.932483  0  0  0.398631  0  0.919597  0  0  0.305535  0.383306  0  0.942149  0
H  H27  1  0.65855503  0.50608977  0.10228384  1  0  0.411705  0  0.871706  0  0.628813  0  0.38983  0  0.932473  0  0  0.398639  0  0.919588  0  0  0.305536  0.383314  0  0.942138  0
C  C28  1  0.01753404  0.65892899  0.24760744  1  0  0.006976  0  3.724731  0  0.461107  0  0.001708  0  3.985513  0  0  -0.000402  0  4.007654  0  0  0.090486  0.002909  0  3.972283  0
C  C29  1  0.98246573  0.84106945  0.74760708  1  0  0.006983  0  3.724729  0  0.4611  0  0.001736  0  3.985505  0  0  -0.000374  0  4.007646  0  0  0.090487  0.002935  0  3.972279  0
C  C30  1  0.98246358  0.34107111  0.75239151  1  0  0.007003  0  3.724808  0  0.461757  0  0.001722  0  3.985586  0  0  -0.000388  0  4.007727  0  0  0.090493  0.002924  0  3.972356  0
C  C31  1  0.01753673  0.15892933  0.25239245  1  0  0.006989  0  3.724811  0  0.462112  0  0.001711  0  3.985631  0  0  -0.0004  0  4.007773  0  0  0.090512  0.002912  0  3.972399  0
C  C32  1  0.81418220  0.53950146  0.24595066  1  0  0.695894  0  3.879737  0  1.646344  0  0.645348  0  4.179434  0  0  0.681138  0  4.169231  0  0  0.233964  0.621325  0  4.187302  0
C  C33  1  0.18581726  0.96049957  0.74595001  1  0  0.69593  0  3.879653  0  1.646351  0  0.645345  0  4.179409  0  0  0.681133  0  4.169206  0  0  0.233977  0.62132  0  4.187281  0
C  C34  1  0.18581460  0.46049994  0.75404770  1  0  0.695678  0  3.879956  0  1.64634  0  0.645152  0  4.179631  0  0  0.680942  0  4.169429  0  0  0.233868  0.621132  0  4.187499  0
C  C35  1  0.81418705  0.03950049  0.25404893  1  0  0.695875  0  3.879719  0  1.645837  0  0.645317  0  4.179439  0  0  0.681108  0  4.169235  0  0  0.233961  0.621293  0  4.187308  0
C  C36  1  0.26222393  0.84701108  0.30453290  1  0  0.287347  0  3.639285  0  1.034948  0  0.220539  0  3.931224  0  0  0.235513  0  3.941553  0  0  0.172194  0.210909  0  3.924979  0
C  C37  1  0.73777554  0.65298978  0.80453318  1  0  0.287265  0  3.639339  0  1.034897  0  0.220465  0  3.931287  0  0  0.235451  0  3.941617  0  0  0.172153  0.210833  0  3.925046  0
C  C38  1  0.73777184  0.15298774  0.69546721  1  0  0.287409  0  3.639168  0  1.03493  0  0.220591  0  3.931123  0  0  0.235577  0  3.941452  0  0  0.172212  0.210959  0  3.924884  0
C  C39  1  0.26222846  0.34701286  0.19546751  1  0  0.287317  0  3.639327  0  1.03493  0  0.220502  0  3.931261  0  0  0.235473  0  3.941591  0  0  0.172183  0.210868  0  3.925021  0
C  C40  1  0.17224196  0.67804501  0.10813464  1  0  0.68517  0  3.929112  0  1.670396  0  0.634258  0  4.22966  0  0  0.669309  0  4.222323  0  0  0.232182  0.610477  0  4.236803  0
C  C41  1  0.82775881  0.82195641  0.60813426  1  0  0.685126  0  3.929113  0  1.670393  0  0.634224  0  4.229645  0  0  0.669273  0  4.222311  0  0  0.232171  0.610442  0  4.236788  0
C  C42  1  0.82776421  0.32195633  0.89186430  1  0  0.685365  0  3.928754  0  1.67049  0  0.634426  0  4.229351  0  0  0.669474  0  4.222014  0  0  0.232275  0.610645  0  4.236496  0
C  C43  1  0.17223614  0.17804370  0.39186527  1  0  0.685355  0  3.928749  0  1.670371  0  0.634419  0  4.229356  0  0  0.669466  0  4.222018  0  0  0.232268  0.610637  0  4.236497  0
C  C44  1  0.16537887  0.71327882  0.19244285  1  0  0.011787  0  3.633178  0  0.388175  0  -0.001805  0  3.892372  0  0  -0.002955  0  3.909294  0  0  0.096102  -0.000796  0  3.880138  0
C  C45  1  0.83462222  0.78671977  0.69244249  1  0  0.011768  0  3.63321  0  0.388179  0  -0.001822  0  3.892391  0  0  -0.002972  0  3.909313  0  0  0.096087  -0.000811  0  3.880159  0
C  C46  1  0.83462091  0.28671997  0.80755609  1  0  0.011779  0  3.63313  0  0.387272  0  -0.001784  0  3.892304  0  0  -0.002931  0  3.909224  0  0  0.096109  -0.000774  0  3.880071  0
C  C47  1  0.16537993  0.21328160  0.30755645  1  0  0.011767  0  3.63313  0  0.387378  0  -0.001828  0  3.892358  0  0  -0.002977  0  3.909279  0  0  0.09608  -0.000818  0  3.880121  0
C  C48  1  0.08922432  0.57896954  0.51138693  1  0  0.564391  0  3.916031  0  1.613226  0  0.518831  0  4.215094  0  0  0.548374  0  4.21074  0  0  0.221819  0.498575  0  4.220939  0
C  C49  1  0.91077406  0.92102959  0.01138734  1  0  0.564413  0  3.916117  0  1.613219  0  0.518839  0  4.215178  0  0  0.548384  0  4.210822  0  0  0.221817  0.498584  0  4.221024  0
C  C50  1  0.91075417  0.42102292  0.48861550  1  0  0.564357  0  3.915901  0  1.633752  0  0.518758  0  4.214972  0  0  0.548352  0  4.210548  0  0  0.221778  0.498503  0  4.220819  0
C  C51  1  0.08924383  0.07897427  0.98861625  1  0  0.564205  0  3.916137  0  1.633724  0  0.518647  0  4.215144  0  0  0.548238  0  4.210725  0  0  0.221739  0.498393  0  4.22099  0
N  N52  1  0.31739124  0.83311308  0.23081107  1  0  -0.275345  0  3.370786  0  -1.313476  0  -0.212008  0  3.60753  0  0  -0.226613  0  3.617912  0  0  -0.35155  -0.20199  0  3.599559  0
N  N53  1  0.68260987  0.66688541  0.73081075  1  0  -0.275321  0  3.370788  0  -1.313468  0  -0.212001  0  3.607535  0  0  -0.226604  0  3.61791  0  0  -0.351547  -0.201982  0  3.599565  0
N  N54  1  0.68260670  0.16688444  0.76918962  1  0  -0.275393  0  3.37066  0  -1.313514  0  -0.212065  0  3.607429  0  0  -0.22667  0  3.617802  0  0  -0.351618  -0.202046  0  3.599461  0
N  N55  1  0.31739280  0.33311725  0.26918994  1  0  -0.275321  0  3.370651  0  -1.313529  0  -0.21198  0  3.607426  0  0  -0.226584  0  3.617807  0  0  -0.351589  -0.201962  0  3.599455  0
N  N56  1  0.08081116  0.74699249  0.31600643  1  0  -0.493928  0  3.219205  0  -1.241387  0  -0.449945  0  3.507227  0  0  -0.472306  0  3.5255  0  0  -0.405593  -0.439156  0  3.495258  0
N  N57  1  0.91918884  0.75300963  0.81600669  1  0  -0.493895  0  3.219223  0  -1.241377  0  -0.449918  0  3.507234  0  0  -0.472274  0  3.525497  0  0  -0.405557  -0.439129  0  3.495269  0
N  N58  1  0.91918328  0.25300634  0.68399193  1  0  -0.493941  0  3.219245  0  -1.241093  0  -0.449966  0  3.507293  0  0  -0.472326  0  3.525557  0  0  -0.4056  -0.439179  0  3.495327  0
N  N59  1  0.08081568  0.24699430  0.18399341  1  0  -0.493893  0  3.219315  0  -1.241067  0  -0.449906  0  3.507359  0  0  -0.472272  0  3.525632  0  0  -0.405565  -0.43912  0  3.495392  0
O  O60  1  0.70753281  0.55593912  0.30132321  1  0  -0.677356  0  1.995594  0  -1.205701  0  -0.622487  0  2.234427  0  0  -0.652943  0  2.22082  0  0  -0.36085  -0.605389  0  2.24177  0
O  O61  1  0.29246533  0.94406176  0.80132318  1  0  -0.677418  0  1.995543  0  -1.205691  0  -0.622537  0  2.234385  0  0  -0.65299  0  2.220779  0  0  -0.360872  -0.605434  0  2.241728  0
O  O62  1  0.29246543  0.44405581  0.69867632  1  0  -0.677331  0  1.995617  0  -1.205711  0  -0.622476  0  2.23445  0  0  -0.652933  0  2.220842  0  0  -0.360849  -0.605385  0  2.241797  0
O  O63  1  0.70753518  0.05594220  0.19867751  1  0  -0.677449  0  1.995593  0  -1.205655  0  -0.622558  0  2.234427  0  0  -0.65302  0  2.220813  0  0  -0.3609  -0.60546  0  2.241771  0
O  O64  1  0.75267773  0.42856432  0.19240178  1  0  -0.729506  0  2.067323  0  -1.235922  0  -0.675786  0  2.31811  0  0  -0.706469  0  2.302758  0  0  -0.382233  -0.658853  0  2.325978  0
O  O65  1  0.24732309  0.07143758  0.69240141  1  0  -0.729523  0  2.06734  0  -1.235997  0  -0.675792  0  2.31813  0  0  -0.706469  0  2.30278  0  0  -0.382257  -0.658862  0  2.326009  0
O  O66  1  0.24732041  0.57143707  0.80759542  1  0  -0.729394  0  2.067476  0  -1.235897  0  -0.675691  0  2.318248  0  0  -0.706368  0  2.302904  0  0  -0.382195  -0.658761  0  2.326125  0
O  O67  1  0.75268019  0.92855991  0.30759637  1  0  -0.729468  0  2.067339  0  -1.235928  0  -0.675747  0  2.318126  0  0  -0.706426  0  2.30278  0  0  -0.382227  -0.658818  0  2.326008  0
O  O68  1  0.09012823  0.72579463  0.49000090  1  0  -0.668578  0  2.129717  0  -1.208394  0  -0.610017  0  2.366897  0  0  -0.640888  0  2.357533  0  0  -0.351856  -0.592462  0  2.371842  0
O  O69  1  0.90987345  0.77420440  0.99000231  1  0  -0.668589  0  2.129661  0  -1.208431  0  -0.610044  0  2.36685  0  0  -0.64091  0  2.357484  0  0  -0.351883  -0.592489  0  2.371795  0
O  O70  1  0.90985807  0.27419391  0.51000095  1  0  -0.66869  0  2.129431  0  -1.208536  0  -0.610061  0  2.366549  0  0  -0.640941  0  2.357156  0  0  -0.351977  -0.592507  0  2.371496  0
O  O71  1  0.09014116  0.22580465  0.01000187  1  0  -0.668608  0  2.129484  0  -1.208517  0  -0.609983  0  2.36657  0  0  -0.640868  0  2.357177  0  0  -0.351908  -0.592429  0  2.371516  0
O  O72  1  0.06663679  0.53437944  0.08127831  1  0  -0.737925  0  2.156076  0  -1.238314  0  -0.687  0  2.423668  0  0  -0.720475  0  2.412737  0  0  -0.390818  -0.670327  0  2.43104  0
O  O73  1  0.93336346  0.96562077  0.58127901  1  0  -0.737898  0  2.156111  0  -1.238348  0  -0.686973  0  2.423679  0  0  -0.720438  0  2.412744  0  0  -0.390798  -0.670298  0  2.431051  0
O  O74  1  0.93336886  0.46562061  0.91871715  1  0  -0.737942  0  2.156022  0  -1.238308  0  -0.686982  0  2.423557  0  0  -0.720456  0  2.412648  0  0  -0.390817  -0.670313  0  2.430937  0
O  O75  1  0.06663150  0.03437935  0.41871819  1  0  -0.737903  0  2.156018  0  -1.238246  0  -0.68695  0  2.423584  0  0  -0.720425  0  2.412673  0  0  -0.390802  -0.670282  0  2.430964  0
O  O76  1  0.46903952  0.62457328  0.41976785  1  0  -0.897221  0  1.833767  0  -1.303838  0  -0.850996  0  2.03757  0  0  -0.876082  0  2.001486  0  0  -0.657285  -0.837953  0  2.059803  0
O  O77  1  0.53096132  0.87542725  0.91976793  1  0  -0.897212  0  1.833773  0  -1.303841  0  -0.851007  0  2.037593  0  0  -0.876091  0  2.00151  0  0  -0.657282  -0.837964  0  2.059825  0
O  O78  1  0.53095625  0.37542554  0.58023226  1  0  -0.897283  0  1.833679  0  -1.303872  0  -0.851074  0  2.037483  0  0  -0.87616  0  2.001398  0  0  -0.657295  -0.838032  0  2.059715  0
O  O79  1  0.46904536  0.12457538  0.08023276  1  0  -0.897271  0  1.833653  0  -1.303894  0  -0.851074  0  2.037446  0  0  -0.876165  0  2.001357  0  0  -0.657302  -0.838033  0  2.059678  0
O  O80  1  0.22100009  0.55064795  0.54841200  1  0  -0.651196  0  2.053805  0  -1.197861  0  -0.602474  0  2.291819  0  0  -0.629937  0  2.279631  0  0  -0.352373  -0.587407  0  2.298556  0
O  O81  1  0.77899963  0.94935106  0.04841236  1  0  -0.651184  0  2.053857  0  -1.197871  0  -0.602456  0  2.291879  0  0  -0.629926  0  2.279689  0  0  -0.352356  -0.58739  0  2.298617  0
O  O82  1  0.77898272  0.44934190  0.45159043  1  0  -0.651068  0  2.053879  0  -1.19762  0  -0.602332  0  2.291889  0  0  -0.629807  0  2.279675  0  0  -0.352237  -0.587265  0  2.298626  0
O  O83  1  0.22101528  0.05065540  0.95159181  1  0  -0.651026  0  2.053985  0  -1.197572  0  -0.602307  0  2.291972  0  0  -0.629779  0  2.279761  0  0  -0.352271  -0.587241  0  2.29871  0
O  O84  1  0.65707982  0.97051306  0.45202538  1  0  -0.859394  0  1.856252  0  -1.288603  0  -0.813261  0  2.042049  0  0  -0.83645  0  2.007241  0  0  -0.628184  -0.800419  0  2.063752  0
O  O85  1  0.34291733  0.52948481  0.95202623  1  0  -0.859437  0  1.856262  0  -1.289139  0  -0.813336  0  2.042058  0  0  -0.836517  0  2.007249  0  0  -0.628233  -0.800498  0  2.063757  0
O  O86  1  0.34290906  0.02948192  0.54797240  1  0  -0.859614  0  1.85605  0  -1.289064  0  -0.8135  0  2.041834  0  0  -0.836689  0  2.007016  0  0  -0.628227  -0.80066  0  2.063541  0
O  O87  1  0.65709069  0.47051782  0.04797213  1  0  -0.859631  0  1.856039  0  -1.289062  0  -0.81351  0  2.041816  0  0  -0.836704  0  2.006997  0  0  -0.628234  -0.80067  0  2.063521  0
O  O88  1  0.28370787  0.79607520  0.06459345  1  0  -0.692599  0  2.034713  0  -1.216965  0  -0.631603  0  2.266993  0  0  -0.662042  0  2.254197  0  0  -0.334808  -0.613936  0  2.274426  0
O  O89  1  0.71629207  0.70392765  0.56459195  1  0  -0.692572  0  2.034641  0  -1.216981  0  -0.631586  0  2.26693  0  0  -0.662027  0  2.254134  0  0  -0.334819  -0.613918  0  2.274364  0
O  O90  1  0.71630395  0.20392353  0.93540782  1  0  -0.692741  0  2.034494  0  -1.216997  0  -0.631736  0  2.266805  0  0  -0.662178  0  2.254006  0  0  -0.334885  -0.614068  0  2.27424  0
O  O91  1  0.28369641  0.29607638  0.43540874  1  0  -0.692771  0  2.03449  0  -1.216929  0  -0.631765  0  2.266788  0  0  -0.662203  0  2.253989  0  0  -0.334914  -0.614098  0  2.274223  0
