# generated using pymatgen
data_CaH46C68(N4O5)2
_symmetry_space_group_name_H-M   'P 1'
_cell_length_a   12.44558080
_cell_length_b   12.34244477
_cell_length_c   14.02000000
_cell_angle_alpha   99.08007526
_cell_angle_beta   115.60230180
_cell_angle_gamma   107.82456479
_symmetry_Int_Tables_number   1
_chemical_formula_structural   CaH46C68(N4O5)2
_chemical_formula_sum   'Ca1 H46 C68 N8 O10'
_cell_volume   1740.17569266
_cell_formula_units_Z   1
loop_
 _symmetry_equiv_pos_site_id
 _symmetry_equiv_pos_as_xyz
  1  'x, y, z'
loop_
 _atom_site_type_symbol
 _atom_site_label
 _atom_site_symmetry_multiplicity
 _atom_site_fract_x
 _atom_site_fract_y
 _atom_site_fract_z
 _atom_site_occupancy
 _atom_site_hle17_bader_spin_density
 _atom_site_hle17_ddec_charge
 _atom_site_hle17_ddec_spin_density
 _atom_site_hle17_ddec_sum_bond_order
 _atom_site_hle17_magmom
 _atom_site_hse06_10hf_bader_spin_density
 _atom_site_hse06_10hf_ddec_charge
 _atom_site_hse06_10hf_ddec_spin_density
 _atom_site_hse06_10hf_ddec_sum_bond_order
 _atom_site_hse06_10hf_magmom
 _atom_site_hse06_bader_spin_density
 _atom_site_hse06_ddec_charge
 _atom_site_hse06_ddec_spin_density
 _atom_site_hse06_ddec_sum_bond_order
 _atom_site_hse06_magmom
 _atom_site_pbe_bader_charge
 _atom_site_pbe_bader_spin_density
 _atom_site_pbe_cm5_charge
 _atom_site_pbe_ddec_charge
 _atom_site_pbe_ddec_spin_density
 _atom_site_pbe_ddec_sum_bond_order
 _atom_site_pbe_magmom
Ca  Ca0  1  0.00000182  0.99999896  0.00000048  1  0  1.591658  0  1.109502  0  0  1.467485  0  1.468122  0  0  1.508575  0  1.420403  0  1.658094  0  0.92388  1.436264  0  1.502394  0
H  H1  1  0.35677002  0.45541462  0.68084862  1  0  0.301457  0  0.914966  0  0  0.269851  0  1.003612  0  0  0.280225  0  0.992605  0  0.53391  0  0.310025  0.262012  0  1.012282  0
H  H2  1  0.64323012  0.54458525  0.31914628  1  0  0.301566  0  0.914823  0  0  0.269943  0  1.003468  0  0  0.280318  0  0.992461  0  0.53375  0  0.310049  0.262105  0  1.012138  0
H  H3  1  0.18434772  0.42354078  0.51736337  1  0  0.299613  0  0.920376  0  0  0.267216  0  1.011143  0  0  0.277644  0  0.999837  0  0.512851  0  0.308751  0.259407  0  1.019938  0
H  H4  1  0.81564899  0.57645547  0.48263898  1  0  0.299569  0  0.920462  0  0  0.267182  0  1.011196  0  0  0.27761  0  0.999893  0  0.512901  0  0.30876  0.25937  0  1.019992  0
H  H5  1  0.96976619  0.08353173  0.33434565  1  0  0.118603  0  0.949723  0  0  0.128961  0  1.009169  0  0  0.131536  0  1.009144  0  0.115959  0  0.108603  0.1271  0  1.009323  0
H  H6  1  0.03022428  0.91646452  0.66565360  1  0  0.118568  0  0.949775  0  0  0.128931  0  1.009211  0  0  0.131505  0  1.009188  0  0.115415  0  0.108602  0.127071  0  1.009363  0
H  H7  1  0.54369566  0.78947463  0.88081554  1  0  0.112538  0  0.960038  0  0  0.123303  0  1.021333  0  0  0.125519  0  1.021699  0  0.050103  0  0.105535  0.121667  0  1.021262  0
H  H8  1  0.45631120  0.21052434  0.11918110  1  0  0.112517  0  0.960084  0  0  0.1233  0  1.021358  0  0  0.125513  0  1.021724  0  0.050045  0  0.105563  0.121665  0  1.021287  0
H  H9  1  0.86080038  0.57667249  0.33272081  1  0  0.099128  0  0.966737  0  0  0.102574  0  1.04101  0  0  0.106318  0  1.038917  0  0.0765  0  0.098758  0.099878  0  1.042596  0
H  H10  1  0.13919709  0.42332738  0.66727948  1  0  0.099086  0  0.966714  0  0  0.102534  0  1.041006  0  0  0.10628  0  1.038908  0  0.076544  0  0.098739  0.099835  0  1.042597  0
H  H11  1  0.77948890  0.70165676  0.22145426  1  0  0.10031  0  0.959752  0  0  0.106073  0  1.028723  0  0  0.1089  0  1.027706  0  0.093109  0  0.101872  0.10412  0  1.029336  0
H  H12  1  0.22051035  0.29834311  0.77854601  1  0  0.100296  0  0.959775  0  0  0.106021  0  1.028791  0  0  0.10885  0  1.027772  0  0.093117  0  0.101859  0.10409  0  1.02938  0
H  H13  1  0.66609918  0.46058783  0.97641363  1  0  0.119859  0  0.951803  0  0  0.132894  0  1.00362  0  0  0.136072  0  1.002474  0  0.097339  0  0.109008  0.130751  0  1.004255  0
H  H14  1  0.33389575  0.53940842  0.02358376  1  0  0.119825  0  0.95185  0  0  0.132908  0  1.003619  0  0  0.136084  0  1.002474  0  0.097101  0  0.109016  0.130764  0  1.004255  0
H  H15  1  0.42563954  0.90554030  0.76841026  1  0  0.108572  0  0.976026  0  0  0.117842  0  1.038359  0  0  0.120443  0  1.038188  0  0.107642  0  0.098448  0.11602  0  1.03845  0
H  H16  1  0.57435999  0.09446409  0.23158789  1  0  0.108515  0  0.976039  0  0  0.117785  0  1.038376  0  0  0.120383  0  1.03821  0  0.10748  0  0.098435  0.115963  0  1.038467  0
H  H17  1  0.67857328  0.68714539  0.00737076  1  0  0.124994  0  0.990964  0  0  0.131242  0  1.055745  0  0  0.135103  0  1.053358  0  0.115101  0  0.104757  0.128405  0  1.057694  0
H  H18  1  0.32142549  0.31285539  0.99262517  1  0  0.125009  0  0.990965  0  0  0.13126  0  1.055732  0  0  0.135119  0  1.053348  0  0.115117  0  0.104779  0.128423  0  1.057682  0
H  H19  1  0.31056036  0.03309548  0.64546009  1  0  0.110338  0  0.978909  0  0  0.122414  0  1.036478  0  0  0.125195  0  1.035536  0  0.069035  0  0.101346  0.120459  0  1.037174  0
H  H20  1  0.68943902  0.96690077  0.35453545  1  0  0.110407  0  0.978912  0  0  0.12248  0  1.036477  0  0  0.125259  0  1.035538  0  0.069255  0  0.1014  0.120536  0  1.037162  0
H  H21  1  0.08493430  0.96704183  0.44841583  1  0  0.113473  0  0.970691  0  0  0.122902  0  1.031721  0  0  0.12535  0  1.032148  0  0.082053  0  0.100998  0.121085  0  1.031696  0
H  H22  1  0.91505410  0.03294990  0.55158343  1  0  0.113483  0  0.970815  0  0  0.122905  0  1.031839  0  0  0.125353  0  1.032265  0  0.082197  0  0.101027  0.121089  0  1.031813  0
H  H23  1  0.88278375  0.41730509  0.21580412  1  0  0.118739  0  0.954277  0  0  0.131247  0  1.007388  0  0  0.134381  0  1.006146  0  0.097042  0  0.108847  0.129129  0  1.008142  0
H  H24  1  0.11721721  0.58269659  0.78419991  1  0  0.118661  0  0.954275  0  0  0.131211  0  1.007346  0  0  0.134347  0  1.006104  0  0.096986  0  0.108804  0.129092  0  1.008101  0
H  H25  1  0.46581485  0.24050740  0.94418269  1  0  0.102668  0  0.95818  0  0  0.110323  0  1.025002  0  0  0.113101  0  1.0245  0  0.080796  0  0.102213  0.10843  0  1.025278  0
H  H26  1  0.53417795  0.75948614  0.05581065  1  0  0.102665  0  0.958243  0  0  0.110351  0  1.025022  0  0  0.113077  0  1.024581  0  0.08081  0  0.102223  0.108456  0  1.025301  0
H  H27  1  0.24264432  0.75787749  0.37582108  1  0  0.094783  0  0.944814  0  0  0.106891  0  1.000044  0  0  0.110054  0  0.998898  0  0.053432  0  0.101994  0.104706  0  1.0009  0
H  H28  1  0.75735369  0.24211967  0.62418119  1  0  0.094782  0  0.944835  0  0  0.106876  0  1.000074  0  0  0.11004  0  0.998928  0  0.053413  0  0.101992  0.104691  0  1.000929  0
H  H29  1  0.58802562  0.12767441  0.04180412  1  0  0.100363  0  0.952326  0  0  0.108147  0  1.019694  0  0  0.111025  0  1.018144  0  0.088745  0  0.105232  0.106162  0  1.020649  0
H  H30  1  0.41198132  0.87233450  0.95819964  1  0  0.100394  0  0.952355  0  0  0.108175  0  1.019716  0  0  0.111046  0  1.018172  0  0.088703  0  0.105254  0.106188  0  1.020672  0
H  H31  1  0.58676746  0.19713513  0.70131129  1  0  0.099035  0  0.937725  0  0  0.11091  0  0.992959  0  0  0.114152  0  0.991868  0  0.06067  0  0.10462  0.108627  0  0.993778  0
H  H32  1  0.41323377  0.80285931  0.29868613  1  0  0.098999  0  0.937724  0  0  0.110882  0  0.992951  0  0  0.114124  0  0.99186  0  0.060676  0  0.104587  0.108597  0  0.993767  0
H  H33  1  0.84433582  0.18660517  0.20259549  1  0  0.124003  0  0.980403  0  0  0.132547  0  1.040669  0  0  0.136001  0  1.038783  0  0.113772  0  0.10625  0.130009  0  1.042221  0
H  H34  1  0.15566247  0.81339651  0.79740466  1  0  0.123956  0  0.980331  0  0  0.132493  0  1.040626  0  0  0.135952  0  1.03873  0  0.113767  0  0.106222  0.129955  0  1.042177  0
H  H35  1  0.22497255  0.84410659  0.55724046  1  0  0.110415  0  0.984418  0  0  0.121125  0  1.044596  0  0  0.123918  0  1.043777  0  0.067385  0  0.101883  0.119228  0  1.045131  0
H  H36  1  0.77502539  0.15589238  0.44275632  1  0  0.110417  0  0.984449  0  0  0.121126  0  1.044624  0  0  0.12392  0  1.043804  0  0.06741  0  0.10188  0.119229  0  1.045161  0
H  H37  1  0.15879616  0.88137608  0.26189289  1  0  0.096548  0  0.960393  0  0  0.10715  0  1.021052  0  0  0.110602  0  1.018031  0  0.092297  0  0.106465  0.104717  0  1.023224  0
H  H38  1  0.84120493  0.11862198  0.73810998  1  0  0.096486  0  0.960444  0  0  0.107127  0  1.02106  0  0  0.110582  0  1.018037  0  0.092264  0  0.106479  0.104694  0  1.023233  0
H  H39  1  0.71134131  0.08562416  0.80094582  1  0  0.100483  0  0.958355  0  0  0.110405  0  1.018956  0  0  0.113951  0  1.015795  0  0.086506  0  0.109425  0.107949  0  1.021128  0
H  H40  1  0.28867352  0.91438837  0.19906361  1  0  0.100493  0  0.958278  0  0  0.110399  0  1.018908  0  0  0.113946  0  1.015745  0  0.08658  0  0.109389  0.107936  0  1.021092  0
H  H41  1  0.76195261  0.94359378  0.09708687  1  0  0.392166  0  0.912176  0  0  0.358087  0  0.994609  0  0  0.373013  0  0.977679  0  0.642237  0  0.291404  0.347751  0  1.004645  0
H  H42  1  0.23805186  0.05640971  0.90291804  1  0  0.392141  0  0.912222  0  0  0.35807  0  0.994641  0  0  0.372994  0  0.97771  0  0.642253  0  0.291401  0.347734  0  1.004676  0
H  H43  1  0.19479203  0.27020923  0.12061427  1  0  0.436678  0  0.819158  0  0  0.414166  0  0.875646  0  0  0.422189  0  0.864214  0  0.622693  0  0.333699  0.408255  0  0.884113  0
H  H44  1  0.80521078  0.72979063  0.87938879  1  0  0.436673  0  0.819163  0  0  0.414159  0  0.875657  0  0  0.422183  0  0.864223  0  0.622798  0  0.333694  0.408247  0  0.884125  0
H  H45  1  0.13440582  0.23671317  0.19470828  1  0  0.443264  0  0.803835  0  0  0.425797  0  0.853107  0  0  0.433558  0  0.842206  0  0.61967  0  0.343589  0.420186  0  0.860993  0
H  H46  1  0.86559492  0.76328218  0.80529264  1  0  0.443274  0  0.803763  0  0  0.425809  0  0.853077  0  0  0.433571  0  0.842176  0  0.619637  0  0.343627  0.420198  0  0.860964  0
C  C47  1  0.14794691  0.16941903  0.49187000  1  0  0.249  0  3.849767  0  0  0.248392  0  4.102361  0  0  0.255294  0  4.124454  0  0.465637  0  0.088454  0.243385  0  4.087291  0
C  C48  1  0.85204665  0.83057813  0.50812913  1  0  0.249059  0  3.849783  0  0  0.248468  0  4.102364  0  0  0.255373  0  4.124454  0  0.465496  0  0.088459  0.243461  0  4.087295  0
C  C49  1  0.02495580  0.27086391  0.37282000  1  0  0.244344  0  3.826045  0  0  0.231673  0  4.079467  0  0  0.239052  0  4.101677  0  0.413272  0  0.096939  0.226695  0  4.064036  0
C  C50  1  0.97503913  0.72913234  0.62717739  1  0  0.244297  0  3.826187  0  0  0.231696  0  4.079505  0  0  0.239077  0  4.101716  0  0.413561  0  0.096986  0.226714  0  4.064077  0
C  C51  1  0.65777787  0.10078298  0.92716421  1  0  -0.102409  0  3.799695  0  0  -0.079074  0  4.032869  0  0  -0.089276  0  4.057207  0  -0.026909  0  -0.024016  -0.072225  0  4.016752  0
C  C52  1  0.34223223  0.89922503  0.07284205  1  0  -0.102432  0  3.799631  0  0  -0.07907  0  4.032796  0  0  -0.089275  0  4.057138  0  -0.02717  0  -0.023982  -0.07222  0  4.016675  0
C  C53  1  0.50409936  0.60501976  0.83307702  1  0  0.242753  0  3.837796  0  0  0.231266  0  4.087104  0  0  0.238454  0  4.109652  0  0.404444  0  0.092702  0.226254  0  4.071643  0
C  C54  1  0.49590113  0.39498282  0.16691981  1  0  0.242962  0  3.837693  0  0  0.231495  0  4.086955  0  0  0.238689  0  4.109496  0  0.404241  0  0.092763  0.226481  0  4.071497  0
C  C55  1  0.04455113  0.17108917  0.39762033  1  0  -0.216755  0  3.686976  0  0  -0.236751  0  3.936728  0  0  -0.242435  0  3.956428  0  -0.049968  0  -0.08211  -0.232576  0  3.92309  0
C  C56  1  0.95544236  0.82890979  0.60237973  1  0  -0.216741  0  3.686999  0  0  -0.236783  0  3.936748  0  0  -0.24247  0  3.956453  0  -0.049597  0  -0.082127  -0.232608  0  3.923112  0
C  C57  1  0.21817471  0.65676989  0.54426280  1  0  0.208458  0  3.79747  0  0  0.200008  0  4.056626  0  0  0.206727  0  4.078341  0  0.443418  0  0.091641  0.194977  0  4.042196  0
C  C58  1  0.78182139  0.34323089  0.45573781  1  0  0.208517  0  3.797402  0  0  0.20003  0  4.056628  0  0  0.20675  0  4.078344  0  0.443272  0  0.091657  0.195004  0  4.042198  0
C  C59  1  0.05472126  0.46391817  0.38629458  1  0  0.210283  0  3.7708  0  0  0.191519  0  4.025688  0  0  0.198565  0  4.047412  0  0.357567  0  0.102909  0.187081  0  4.010576  0
C  C60  1  0.94527669  0.53608079  0.61371005  1  0  0.210132  0  3.771003  0  0  0.19139  0  4.025873  0  0  0.198437  0  4.047601  0  0.358003  0  0.102819  0.186944  0  4.010777  0
C  C61  1  0.37957603  0.70600258  0.71465967  1  0  0.246299  0  3.864689  0  0  0.244414  0  4.118836  0  0  0.250994  0  4.14201  0  0.4977  0  0.084822  0.239486  0  4.103045  0
C  C62  1  0.62042487  0.29400091  0.28533531  1  0  0.246284  0  3.864882  0  0  0.24441  0  4.119011  0  0  0.250991  0  4.142186  0  0.498017  0  0.084796  0.239481  0  4.10322  0
C  C63  1  0.47735348  0.70336850  0.81234992  1  0  -0.228856  0  3.70792  0  0  -0.248009  0  3.957056  0  0  -0.254142  0  3.97799  0  -0.036724  0  -0.087538  -0.243607  0  3.94289  0
C  C64  1  0.52264659  0.29663317  0.18764449  1  0  -0.228888  0  3.707923  0  0  -0.248074  0  3.957069  0  0  -0.254205  0  3.978  0  -0.036819  0  -0.08756  -0.243671  0  3.942903  0
C  C65  1  0.49139010  0.41509510  0.80832315  1  0  0.20202  0  3.792524  0  0  0.183303  0  4.045957  0  0  0.189533  0  4.068597  0  0.350835  0  0.099173  0.179288  0  4.030161  0
C  C66  1  0.50860641  0.58490657  0.19167204  1  0  0.202  0  3.792611  0  0  0.1832  0  4.046139  0  0  0.189432  0  4.068782  0  0.350544  0  0.099111  0.179188  0  4.030338  0
C  C67  1  0.11118972  0.59049121  0.43336586  1  0  -0.088109  0  3.695704  0  0  -0.077846  0  3.936081  0  0  -0.082121  0  3.958902  0  0.076447  0  0.001954  -0.074954  0  3.920529  0
C  C68  1  0.88881261  0.40950956  0.56663572  1  0  -0.088032  0  3.6956  0  0  -0.077801  0  3.935991  0  0  -0.082075  0  3.958812  0  0.076463  0  0.001955  -0.074922  0  3.920467  0
C  C69  1  0.92592105  0.64210027  0.31593986  1  0  -0.115953  0  3.715589  0  0  -0.134911  0  3.967209  0  0  -0.139069  0  3.987453  0  -0.028325  0  -0.090124  -0.13188  0  3.953009  0
C  C70  1  0.07407648  0.35789779  0.68406092  1  0  -0.115998  0  3.715613  0  0  -0.134978  0  3.967207  0  0  -0.139138  0  3.987454  0  -0.028627  0  -0.09016  -0.131947  0  3.953008  0
C  C71  1  0.96417709  0.79837243  0.23387005  1  0  -0.093581  0  3.781025  0  0  -0.06956  0  4.013388  0  0  -0.079066  0  4.037193  0  -0.069262  0  -0.023976  -0.063268  0  3.997736  0
C  C72  1  0.03582353  0.20162654  0.76613276  1  0  -0.093536  0  3.781032  0  0  -0.069527  0  4.013412  0  0  -0.079029  0  4.037215  0  -0.069277  0  -0.023973  -0.063237  0  3.997767  0
C  C73  1  0.05734808  0.65897263  0.36190784  1  0  0.082537  0  3.776993  0  0  0.096389  0  4.006815  0  0  0.098055  0  4.031666  0  -0.029061  0  0.001044  0.095671  0  3.989431  0
C  C74  1  0.94265076  0.34102633  0.63809357  1  0  0.082602  0  3.776982  0  0  0.096534  0  4.006677  0  0  0.0982  0  4.031528  0  -0.029109  0  0.001081  0.095819  0  3.989294  0
C  C75  1  0.88006879  0.71172557  0.25331672  1  0  -0.051241  0  3.723251  0  0  -0.075851  0  3.971449  0  0  -0.074312  0  3.991486  0  -0.073999  0  -0.082529  -0.076621  0  3.957596  0
C  C76  1  0.11992874  0.28827250  0.74668334  1  0  -0.051256  0  3.723218  0  0  -0.075834  0  3.97145  0  0  -0.074298  0  3.991485  0  -0.073675  0  -0.082537  -0.076621  0  3.957587  0
C  C77  1  0.60228711  0.49146157  0.91745105  1  0  -0.16007  0  3.73425  0  0  -0.180081  0  3.985415  0  0  -0.182195  0  4.003847  0  -0.027091  0  -0.099027  -0.178639  0  3.972661  0
C  C78  1  0.39770651  0.50853378  0.08254643  1  0  -0.160014  0  3.734421  0  0  -0.180051  0  3.985601  0  0  -0.182163  0  4.004035  0  -0.026937  0  -0.099  -0.178607  0  3.972846  0
C  C79  1  0.51906600  0.22647980  0.81704945  1  0  0.090356  0  3.776868  0  0  0.101794  0  4.01074  0  0  0.103708  0  4.035396  0  -0.00422  0  0.004057  0.100731  0  3.993666  0
C  C80  1  0.48092947  0.77351374  0.18294563  1  0  0.090285  0  3.776896  0  0  0.101728  0  4.010752  0  0  0.10365  0  4.035384  0  -0.004192  0  0.004065  0.100656  0  3.993705  0
C  C81  1  0.32872421  0.22220813  0.65023773  1  0  0.205129  0  3.820837  0  0  0.195447  0  4.081271  0  0  0.201949  0  4.103015  0  0.465739  0  0.091508  0.190775  0  4.066519  0
C  C82  1  0.67127860  0.77779174  0.34976319  1  0  0.205172  0  3.820871  0  0  0.195467  0  4.081335  0  0  0.201969  0  4.103083  0  0.465596  0  0.091495  0.190795  0  4.06658  0
C  C83  1  0.91865478  0.87783685  0.17127824  1  0  0.671128  0  3.893358  0  0  0.619392  0  4.193392  0  0  0.654447  0  4.183564  0  1.572982  0  0.225335  0.595371  0  4.200234  0
C  C84  1  0.08134453  0.12216121  0.82872251  1  0  0.671009  0  3.893582  0  0  0.619267  0  4.193623  0  0  0.654323  0  4.183796  0  1.572939  0  0.225293  0.595245  0  4.200464  0
C  C85  1  0.36616548  0.81706143  0.70320321  1  0  -0.169722  0  3.72381  0  0  -0.185052  0  3.968898  0  0  -0.187935  0  3.988008  0  -0.097241  0  -0.106317  -0.182469  0  3.955486  0
C  C86  1  0.63383405  0.18294296  0.29679208  1  0  -0.169574  0  3.723761  0  0  -0.184896  0  3.96883  0  0  -0.187778  0  3.987944  0  -0.097333  0  -0.106281  -0.182315  0  3.95542  0
C  C87  1  0.60944832  0.60711943  0.93296985  1  0  -0.193925  0  3.733769  0  0  -0.210675  0  3.986441  0  0  -0.213336  0  4.003796  0  -0.068938  0  -0.105869  -0.208647  0  3.974812  0
C  C88  1  0.39055052  0.39287954  0.06702656  1  0  -0.193952  0  3.733929  0  0  -0.210717  0  3.986598  0  0  -0.21338  0  4.003956  0  -0.068783  0  -0.105906  -0.20869  0  3.97497  0
C  C89  1  0.27038036  0.09050529  0.60476933  1  0  -0.167821  0  3.731108  0  0  -0.186874  0  3.978989  0  0  -0.189172  0  3.997212  0  -0.075381  0  -0.106601  -0.185276  0  3.966601  0
C  C90  1  0.72962156  0.90949458  0.39522840  1  0  -0.167989  0  3.731206  0  0  -0.187042  0  3.979112  0  0  -0.189339  0  3.997334  0  -0.075156  0  -0.106633  -0.18545  0  3.966717  0
C  C91  1  0.15695489  0.05746949  0.50621505  1  0  -0.165778  0  3.718942  0  0  -0.183345  0  3.965883  0  0  -0.185985  0  3.985028  0  -0.049638  0  -0.103129  -0.181181  0  3.952876  0
C  C92  1  0.84304188  0.94252495  0.49378565  1  0  -0.165735  0  3.719099  0  0  -0.183296  0  3.96603  0  0  -0.185937  0  3.985174  0  -0.049966  0  -0.103184  -0.181133  0  3.953027  0
C  C93  1  0.94187035  0.38634996  0.27827796  1  0  -0.154953  0  3.71945  0  0  -0.176094  0  3.972622  0  0  -0.177983  0  3.990195  0  -0.078406  0  -0.096283  -0.174923  0  3.960542  0
C  C94  1  0.05812925  0.61365262  0.72172567  1  0  -0.15484  0  3.719438  0  0  -0.17602  0  3.97258  0  0  -0.177912  0  3.990155  0  -0.07853  0  -0.096202  -0.174845  0  3.9605  0
C  C95  1  0.52126763  0.20798973  0.91394496  1  0  -0.112056  0  3.708048  0  0  -0.131542  0  3.958706  0  0  -0.135634  0  3.979073  0  -0.028027  0  -0.085763  -0.128739  0  3.944558  0
C  C96  1  0.47873429  0.79201014  0.08605348  1  0  -0.112066  0  3.708125  0  0  -0.131579  0  3.958789  0  0  -0.135628  0  3.979171  0  -0.027703  0  -0.085773  -0.128774  0  3.944639  0
C  C97  1  0.72835963  0.02999120  0.98071698  1  0  0.679364  0  3.852786  0  0  0.626958  0  4.151865  0  0  0.662169  0  4.141441  0  1.527721  0  0.239537  0.602674  0  4.159266  0
C  C98  1  0.27165040  0.97001862  0.01929165  1  0  0.679322  0  3.852984  0  0  0.626891  0  4.152096  0  0  0.662102  0  4.141674  0  1.528145  0  0.239513  0.602608  0  4.159495  0
C  C99  1  0.14075226  0.74506067  0.34088019  1  0  -0.124621  0  3.752909  0  0  -0.140913  0  3.997547  0  0  -0.14572  0  4.019255  0  -0.006586  0  -0.089665  -0.138005  0  3.982964  0
C  C100  1  0.85924575  0.25493648  0.65912065  1  0  -0.124664  0  3.752934  0  0  -0.14096  0  3.997554  0  0  -0.145768  0  4.019262  0  -0.006561  0  -0.089651  -0.138052  0  3.982968  0
C  C101  1  0.58920064  0.14479183  0.96830703  1  0  -0.051372  0  3.730582  0  0  -0.077931  0  3.981856  0  0  -0.076087  0  4.001381  0  -0.024276  0  -0.079999  -0.078932  0  3.968417  0
C  C102  1  0.41080293  0.85521166  0.03169396  1  0  -0.051287  0  3.730563  0  0  -0.077859  0  3.981878  0  0  -0.076004  0  4.001384  0  -0.024407  0  -0.079969  -0.078857  0  3.968435  0
C  C103  1  0.58822169  0.18235429  0.77643329  1  0  -0.12238  0  3.742191  0  0  -0.140438  0  3.989605  0  0  -0.145174  0  4.010913  0  -0.026181  0  -0.086974  -0.137357  0  3.975153  0
C  C104  1  0.41178250  0.81764467  0.22356660  1  0  -0.122327  0  3.742054  0  0  -0.140387  0  3.989451  0  0  -0.145125  0  4.010761  0  -0.026352  0  -0.086993  -0.1373  0  3.974993  0
C  C105  1  0.92253766  0.26881850  0.27098756  1  0  -0.16611  0  3.714096  0  0  -0.184573  0  3.965539  0  0  -0.186895  0  3.983488  0  -0.017921  0  -0.096239  -0.182626  0  3.953345  0
C  C106  1  0.07745844  0.73118227  0.72901091  1  0  -0.166012  0  3.714044  0  0  -0.184495  0  3.965484  0  0  -0.186816  0  3.983431  0  -0.017715  0  -0.096194  -0.182547  0  3.953289  0
C  C107  1  0.26578249  0.78646258  0.59677157  1  0  -0.169825  0  3.743957  0  0  -0.189325  0  3.993288  0  0  -0.191909  0  4.012381  0  -0.055825  0  -0.106889  -0.187803  0  3.980442  0
C  C108  1  0.73421717  0.21353820  0.40322470  1  0  -0.169981  0  3.743965  0  0  -0.18948  0  3.993329  0  0  -0.192066  0  4.012422  0  -0.055803  0  -0.106927  -0.187958  0  3.980483  0
C  C109  1  0.09456181  0.81338476  0.27725325  1  0  -0.060962  0  3.763115  0  0  -0.085256  0  4.009451  0  0  -0.084414  0  4.030182  0  -0.005203  0  -0.082722  -0.085776  0  3.995594  0
C  C110  1  0.90543888  0.18661240  0.72274862  1  0  -0.060873  0  3.763143  0  0  -0.085198  0  4.009471  0  0  -0.084359  0  4.0302  0  -0.005161  0  -0.082723  -0.085718  0  3.995615  0
C  C111  1  0.65763067  0.12082654  0.83143879  1  0  -0.053701  0  3.75244  0  0  -0.077433  0  3.997198  0  0  -0.076147  0  4.017517  0  -0.059246  0  -0.077603  -0.078275  0  3.983389  0
C  C112  1  0.34238038  0.87917966  0.16856759  1  0  -0.053757  0  3.752363  0  0  -0.077474  0  3.997111  0  0  -0.07619  0  4.017435  0  -0.059464  0  -0.077585  -0.078312  0  3.9833  0
C  C113  1  0.44368068  0.29040743  0.75602638  1  0  -0.094976  0  3.714962  0  0  -0.082121  0  3.955794  0  0  -0.086496  0  3.978797  0  0.011629  0  0.00225  -0.079105  0  3.939973  0
C  C114  1  0.55632124  0.70959244  0.24397135  1  0  -0.094922  0  3.714961  0  0  -0.082045  0  3.955828  0  0  -0.086422  0  3.978832  0  0.011787  0  0.002257  -0.079028  0  3.940003  0
N  N115  1  0.25284459  0.26828047  0.58037106  1  0  -0.47508  0  2.942032  0  0  -0.438188  0  3.20425  0  0  -0.4537  0  3.218984  0  -1.175819  0  -0.353277  -0.426564  0  3.194056  0
N  N116  1  0.74715520  0.73171668  0.41962618  1  0  -0.475092  0  2.942124  0  0  -0.438194  0  3.204339  0  0  -0.453701  0  3.219061  0  -1.175904  0  -0.353266  -0.426571  0  3.194143  0
N  N117  1  0.28780704  0.60948585  0.61776440  1  0  -0.47582  0  2.933616  0  0  -0.438595  0  3.196506  0  0  -0.454018  0  3.210766  0  -1.19136  0  -0.353364  -0.426944  0  3.186657  0
N  N118  1  0.71219393  0.39051583  0.38223249  1  0  -0.475833  0  2.933785  0  0  -0.438599  0  3.196679  0  0  -0.454023  0  3.210939  0  -1.191403  0  -0.353374  -0.426947  0  3.186826  0
N  N119  1  0.43555193  0.48755522  0.76081395  1  0  -0.352092  0  3.384327  0  0  -0.282091  0  3.603365  0  0  -0.299371  0  3.616509  0  -1.281151  0  -0.381658  -0.270304  0  3.594706  0
N  N120  1  0.56444725  0.51244646  0.23918155  1  0  -0.35236  0  3.384363  0  0  -0.282308  0  3.603404  0  0  -0.299591  0  3.61654  0  -1.280648  0  -0.381688  -0.270522  0  3.59475  0
N  N121  1  0.10158770  0.39019211  0.43971563  1  0  -0.355608  0  3.389219  0  0  -0.28879  0  3.615354  0  0  -0.306135  0  3.628332  0  -1.282938  0  -0.381565  -0.276971  0  3.606713  0
N  N122  1  0.89840723  0.60980414  0.56028532  1  0  -0.355526  0  3.389463  0  0  -0.288726  0  3.615545  0  0  -0.306075  0  3.62853  0  -1.283215  0  -0.38158  -0.276899  0  3.606905  0
O  O123  1  0.71151602  0.00178046  0.06068528  1  0  -0.564486  0  2.095256  0  0  -0.509241  0  2.320506  0  0  -0.533634  0  2.305965  0  -1.180868  0  -0.310992  -0.492527  0  2.329338  0
O  O124  1  0.28848927  0.99822483  0.93931948  1  0  -0.564431  0  2.095236  0  0  -0.509219  0  2.320529  0  0  -0.53361  0  2.305984  0  -1.180856  0  -0.311004  -0.492504  0  2.329359  0
O  O125  1  0.80286550  0.86914341  0.14486818  1  0  -0.603178  0  2.033268  0  0  -0.549495  0  2.262143  0  0  -0.574582  0  2.250087  0  -1.178216  0  -0.311667  -0.532252  0  2.269536  0
O  O126  1  0.19713547  0.13085827  0.85513513  1  0  -0.603144  0  2.033384  0  0  -0.549453  0  2.262264  0  0  -0.574539  0  2.250214  0  -1.178241  0  -0.311676  -0.532211  0  2.269659  0
O  O127  1  0.99478435  0.94882214  0.14862503  1  0  -0.725939  0  1.959341  0  0  -0.670034  0  2.202947  0  0  -0.695909  0  2.190056  0  -1.232329  0  -0.392686  -0.651887  0  2.21146  0
O  O128  1  0.00521325  0.05117411  0.85137267  1  0  -0.725813  0  1.9594  0  0  -0.669906  0  2.20301  0  0  -0.69578  0  2.190123  0  -1.23237  0  -0.392591  -0.651758  0  2.211523  0
O  O129  1  0.79697370  0.99932440  0.94763301  1  0  -0.695661  0  1.989142  0  0  -0.642704  0  2.233266  0  0  -0.666927  0  2.219482  0  -1.212002  0  -0.369532  -0.625722  0  2.242626  0
O  O130  1  0.20302994  0.00067728  0.05236919  1  0  -0.695654  0  1.989404  0  0  -0.642666  0  2.23352  0  0  -0.666886  0  2.219728  0  -1.212126  0  -0.369523  -0.625685  0  2.24288  0
O  O131  1  0.11930478  0.21293325  0.11883721  1  0  -0.842503  0  1.757386  0  0  -0.793588  0  1.906726  0  0  -0.811728  0  1.879696  0  -1.222168  0  -0.579872  -0.780529  0  1.926148  0
O  O132  1  0.88069762  0.78706571  0.88116414  1  0  -0.842506  0  1.757312  0  0  -0.793592  0  1.906705  0  0  -0.811732  0  1.879671  0  -1.222238  0  -0.579909  -0.780532  0  1.926128  0
