# generated using pymatgen
data_CuH16C25SN4O5
_symmetry_space_group_name_H-M   'P 1'
_cell_length_a   8.87936861
_cell_length_b   10.75266443
_cell_length_c   13.36117678
_cell_angle_alpha   75.84706254
_cell_angle_beta   85.70497134
_cell_angle_gamma   66.33592301
_symmetry_Int_Tables_number   1
_chemical_formula_structural   CuH16C25SN4O5
_chemical_formula_sum   'Cu2 H32 C50 S2 N8 O10'
_cell_volume   1132.56303250
_cell_formula_units_Z   2
loop_
 _symmetry_equiv_pos_site_id
 _symmetry_equiv_pos_as_xyz
  1  'x, y, z'
loop_
 _atom_site_type_symbol
 _atom_site_label
 _atom_site_symmetry_multiplicity
 _atom_site_fract_x
 _atom_site_fract_y
 _atom_site_fract_z
 _atom_site_occupancy
 _atom_site_hle17_ddec_charge
 _atom_site_hle17_ddec_spin_density
 _atom_site_hle17_ddec_sum_bond_order
 _atom_site_hle17_magmom
 _atom_site_hse06_10hf_ddec_charge
 _atom_site_hse06_10hf_ddec_spin_density
 _atom_site_hse06_10hf_ddec_sum_bond_order
 _atom_site_hse06_10hf_magmom
 _atom_site_hse06_ddec_charge
 _atom_site_hse06_ddec_spin_density
 _atom_site_hse06_ddec_sum_bond_order
 _atom_site_hse06_magmom
 _atom_site_pbe_cm5_charge
 _atom_site_pbe_ddec_charge
 _atom_site_pbe_ddec_spin_density
 _atom_site_pbe_ddec_sum_bond_order
 _atom_site_pbe_magmom
Cu  Cu0  1  0.49079141  0.36011092  0.19622334  1  0.724335  0.661601  1.919264  0.441  0.693686  0.762532  2.322992  0.57  0.793457  0.866828  2.253453  0.681  0.720793  0.641961  0.692221  2.368641  0.502
Cu  Cu1  1  0.50920952  0.63988333  0.80377645  1  0.72455  -0.661672  1.919033  -0.441  0.693781  -0.762535  2.322707  -0.57  0.793515  -0.866833  2.253214  -0.681  0.720845  0.642009  -0.692228  2.368434  -0.502
H  H2  1  0.21383758  0.55956591  0.51137090  1  0.107481  0.000193  0.946011  0.0  0.116223  -2.5e-05  1.005492  0.0  0.118604  -1.9e-05  1.005043  0.0  0.106918  0.114489  -2.2e-05  1.005841  0.0
H  H3  1  0.78617202  0.44043154  0.48862638  1  0.107438  -0.000193  0.946016  0.0  0.116203  2.5e-05  1.005482  0.0  0.118577  1.9e-05  1.005033  0.0  0.106931  0.11447  2.2e-05  1.00583  0.0
H  H4  1  0.16407409  0.37036923  0.64444686  1  0.099566  -0.000587  0.947738  -0.001  0.10938  -0.0  1.00855  0.0  0.111997  -1.2e-05  1.008553  0.0  0.103126  0.107496  1.2e-05  1.008764  0.0
H  H5  1  0.83592806  0.62963444  0.35555187  1  0.099613  0.000587  0.947697  0.001  0.109421  0.0  1.008511  0.0  0.112039  1.2e-05  1.008511  0.0  0.103125  0.107538  -1.2e-05  1.008724  0.0
H  H6  1  0.16825025  0.16254552  0.59184055  1  0.086279  0.000455  0.973513  0.001  0.095387  0.000196  1.036446  0.0  0.09692  0.000112  1.036621  0.0  0.098152  0.094231  0.00028  1.03645  0.0
H  H7  1  0.83174139  0.83746126  0.40815734  1  0.086356  -0.000455  0.973464  -0.001  0.0955  -0.000196  1.03633  0.0  0.097034  -0.000112  1.0365  0.0  0.098215  0.094327  -0.00028  1.036349  0.0
H  H8  1  0.23420055  0.13722817  0.41184698  1  0.10461  -0.000145  0.962854  -0.001  0.109923  0.000484  1.031695  0.0  0.112865  0.000242  1.031016  0.0  0.103262  0.107963  0.00073  1.032084  0.0
H  H9  1  0.76578546  0.86277860  0.58815043  1  0.104611  0.000145  0.962814  0.001  0.109905  -0.000484  1.031685  0.0  0.112847  -0.000242  1.031008  0.0  0.103278  0.107947  -0.00073  1.032077  0.0
H  H10  1  0.57766145  0.21398641  0.87718048  1  0.120921  0.00014  0.924165  0.0  0.130265  5.3e-05  0.981709  0.0  0.133733  3.3e-05  0.979116  0.0  0.1119  0.127697  6.9e-05  0.983579  0.0
H  H11  1  0.42233557  0.78601610  0.12282320  1  0.120911  -0.000141  0.92415  0.0  0.130261  -5.3e-05  0.981701  0.0  0.133731  -3.2e-05  0.979106  0.0  0.111889  0.127688  -6.9e-05  0.98357  0.0
H  H12  1  0.49663657  0.14170598  0.73280787  1  0.101109  0.000157  0.934087  0.0  0.112753  0.000121  0.98892  0.0  0.115786  6.3e-05  0.98805  0.0  0.106774  0.11044  0.000176  0.989835  0.0
H  H13  1  0.50335973  0.85830290  0.26718940  1  0.101183  -0.000156  0.934226  0.0  0.112795  -0.000121  0.989076  0.0  0.115822  -6.3e-05  0.988206  0.0  0.106787  0.110476  -0.000176  0.98999  0.0
H  H14  1  0.26446592  0.06661481  0.75115340  1  0.083889  0.000167  0.970343  0.0  0.093559  3.6e-05  1.033465  0.0  0.095499  2.1e-05  1.033303  0.0  0.101466  0.092091  5.7e-05  1.033724  0.0
H  H15  1  0.73553623  0.93338884  0.24884607  1  0.083888  -0.000168  0.970347  0.0  0.093597  -3.7e-05  1.033426  0.0  0.095537  -2.1e-05  1.033266  0.0  0.101464  0.092125  -5.7e-05  1.033689  0.0
H  H16  1  0.10652833  0.05997744  0.91368022  1  0.117289  1.8e-05  0.920265  0.0  0.1246  7.2e-05  0.982097  0.0  0.128761  5e-05  0.978562  0.0  0.113868  0.121543  8.3e-05  0.984776  0.0
H  H17  1  0.89347049  0.94001892  0.08631852  1  0.117207  -1.8e-05  0.920347  0.0  0.124531  -7.2e-05  0.98218  0.0  0.128692  -5e-05  0.978645  0.0  0.113832  0.121472  -8.3e-05  0.984857  0.0
H  H18  1  0.54255167  0.29564946  0.44183404  1  0.072227  0.00019  0.969066  0.0  0.080368  9.5e-05  1.033086  0.0  0.081878  4e-05  1.033163  0.0  0.10978  0.079196  0.000138  1.033168  0.0
H  H19  1  0.45745201  0.70434375  0.55816656  1  0.072224  -0.000191  0.969  0.0  0.080355  -9.6e-05  1.033045  0.0  0.08188  -4e-05  1.033105  0.0  0.109761  0.079181  -0.000138  1.033126  0.0
H  H20  1  0.76202082  0.14812314  0.57108688  1  0.1282  1.6e-05  0.985691  0.0  0.138901  3.6e-05  1.042881  0.0  0.143108  2.5e-05  1.039767  0.0  0.112174  0.135898  2.6e-05  1.045175  0.0
H  H21  1  0.23798349  0.85187115  0.42891199  1  0.128205  -1.6e-05  0.985694  0.0  0.138902  -3.6e-05  1.042888  0.0  0.143111  -2.5e-05  1.039772  0.0  0.112147  0.135898  -2.6e-05  1.045178  0.0
H  H22  1  0.05664400  0.97565781  0.32532609  1  0.122669  0.000132  0.951187  0.0  0.131997  0.000177  1.01009  0.0  0.136303  0.000107  1.007074  0.0  0.114324  0.128872  0.000245  1.012481  0.0
H  H23  1  0.94335679  0.02433432  0.67467634  1  0.122651  -0.000131  0.95126  0.0  0.131984  -0.000178  1.010167  0.0  0.136292  -0.000108  1.007146  0.0  0.114291  0.128864  -0.000245  1.012564  0.0
H  H24  1  0.82546149  0.13158486  0.20709386  1  0.090831  0.000109  0.947866  0.0  0.09848  9.4e-05  1.012147  0.0  0.101135  3.2e-05  1.00965  0.0  0.118361  0.096463  0.00015  1.014159  0.0
H  H25  1  0.17454155  0.86840731  0.79290621  1  0.090867  -0.00011  0.947869  0.0  0.098534  -9.5e-05  1.012098  0.0  0.10119  -3.2e-05  1.009602  0.0  0.118408  0.096514  -0.00015  1.014114  0.0
H  H26  1  0.70858337  0.48580022  0.24501768  1  0.087458  0.000804  0.926819  0.001  0.099675  0.000764  0.981893  0.001  0.102013  0.000608  0.979855  0.001  0.120999  0.097684  0.000863  0.983639  0.001
H  H27  1  0.29141885  0.51419605  0.75498616  1  0.08749  -0.000803  0.926849  -0.001  0.099703  -0.000764  0.981916  -0.001  0.10204  -0.000607  0.97988  -0.001  0.121025  0.097713  -0.000862  0.983662  -0.001
H  H28  1  0.94063261  0.54533857  0.16839838  1  0.121731  0.00023  0.953658  0.0  0.133545  0.000337  1.009966  0.0  0.137576  0.000245  1.007689  0.0  0.11291  0.130656  0.000402  1.011623  0.0
H  H29  1  0.05936763  0.45466192  0.83160252  1  0.12177  -0.00023  0.953673  0.0  0.133585  -0.000338  1.009982  0.0  0.137611  -0.000245  1.007711  0.0  0.112926  0.130695  -0.000402  1.011641  0.0
H  H30  1  0.87748441  0.40779852  0.89997780  1  0.11991  0.000277  1.00525  0.0  0.124985  0.000296  1.07251  0.0  0.129053  0.000252  1.070778  0.0  0.106634  0.121906  0.000306  1.074172  0.0
H  H31  1  0.12251662  0.59220513  0.10002172  1  0.119941  -0.000278  1.005342  0.0  0.125018  -0.000296  1.07257  0.0  0.129088  -0.000252  1.070832  0.0  0.106653  0.121941  -0.000306  1.074232  0.0
H  H32  1  0.65173471  0.35556785  0.98844211  1  0.092138  0.000955  0.96526  0.002  0.098852  0.000866  1.030882  0.002  0.10225  0.000588  1.027591  0.001  0.119067  0.096292  0.001091  1.03343  0.002
H  H33  1  0.34826927  0.64442950  0.01155994  1  0.092179  -0.000954  0.965342  -0.002  0.098917  -0.000866  1.030931  -0.002  0.102312  -0.000587  1.02764  -0.001  0.11912  0.096357  -0.00109  1.033476  -0.002
C  C34  1  0.24906788  0.45441048  0.38933421  1  -0.200673  0.016218  3.708751  0.015  -0.183594  0.003553  3.960917  0.003  -0.195665  0.003171  3.984281  0.003  -0.022625  -0.176444  0.003531  3.945878  0.003
C  C35  1  0.75092961  0.54559109  0.61066438  1  -0.200782  -0.016217  3.708695  -0.015  -0.183707  -0.003555  3.960887  -0.003  -0.195779  -0.00317  3.984254  -0.003  -0.022672  -0.17656  -0.003531  3.945845  -0.003
C  C36  1  0.21930388  0.46534795  0.49165490  1  -0.055294  -0.011364  3.753713  -0.011  -0.077929  -0.001519  4.00481  -0.002  -0.076626  -0.001841  4.027144  -0.002  -0.082855  -0.078394  -0.001083  3.989847  -0.001
C  C37  1  0.78070100  0.53465472  0.50834163  1  -0.055059  0.011365  3.753607  0.011  -0.077713  0.001519  4.004702  0.002  -0.076403  0.001841  4.027031  0.002  -0.082797  -0.07818  0.001083  3.989737  0.001
C  C38  1  0.19176684  0.36023911  0.56530103  1  -0.057359  0.023342  3.733662  0.02  -0.078929  0.004939  3.995386  0.004  -0.084254  0.004139  4.01897  0.004  -0.086991  -0.075883  0.005179  3.979805  0.004
C  C39  1  0.80823094  0.63976663  0.43469752  1  -0.057601  -0.023337  3.734016  -0.02  -0.079176  -0.004939  3.995753  -0.004  -0.0845  -0.004138  4.019335  -0.004  -0.087104  -0.07613  -0.005178  3.980165  -0.004
C  C40  1  0.19381655  0.24356771  0.53578494  1  -0.044656  -0.012651  3.754788  -0.012  -0.059084  -0.001624  4.008443  -0.002  -0.058203  -0.001919  4.030126  -0.002  -0.085556  -0.059364  -0.001193  3.993944  -0.001
C  C41  1  0.80617735  0.75643910  0.46421134  1  -0.044676  0.012651  3.754891  0.012  -0.059112  0.001624  4.008501  0.002  -0.058231  0.001918  4.030181  0.002  -0.085538  -0.05938  0.001193  3.994004  0.001
C  C42  1  0.22789942  0.22964757  0.43479079  1  -0.133884  0.0228  3.714929  0.02  -0.15712  0.006589  3.969519  0.006  -0.162517  0.005401  3.990134  0.005  -0.089566  -0.153995  0.007068  3.955554  0.006
C  C43  1  0.77209969  0.77035296  0.56520792  1  -0.133862  -0.022798  3.714819  -0.02  -0.157099  -0.00659  3.969436  -0.006  -0.162496  -0.005399  3.990053  -0.005  -0.089575  -0.153975  -0.007069  3.955465  -0.006
C  C44  1  0.25685057  0.33419576  0.36002552  1  0.175681  -0.001449  3.789959  -0.002  0.16786  0.004539  4.049615  0.005  0.176597  0.00153  4.074029  0.002  0.087199  0.162903  0.006982  4.033611  0.007
C  C45  1  0.74314581  0.66580574  0.63997687  1  0.175672  0.001452  3.789915  0.002  0.167873  -0.004536  4.049544  -0.005  0.176607  -0.001529  4.073958  -0.002  0.087197  0.162919  -0.006979  4.033533  -0.007
C  C46  1  0.27261133  0.20587403  0.13749646  1  -0.12057  0.013099  3.796124  0.014  -0.135158  0.004826  4.088072  0.007  -0.156891  0.001409  4.116893  0.003  0.063643  -0.121924  0.00771  4.069083  0.009
C  C47  1  0.72738200  0.79412438  0.86250366  1  -0.120494  -0.013091  3.796299  -0.014  -0.135071  -0.004823  4.088254  -0.006  -0.156799  -0.001408  4.117079  -0.003  0.06367  -0.121837  -0.007708  4.069269  -0.009
C  C48  1  0.40136387  0.21922524  0.06905750  1  0.356267  -0.005493  3.815241  -0.008  0.330691  -0.000689  4.091145  -0.003  0.360081  -0.002533  4.09805  -0.004  0.139472  0.311338  0.001334  4.08635  -0.002
C  C49  1  0.59863362  0.78077630  0.93094259  1  0.356361  0.005501  3.81529  0.008  0.330811  0.000691  4.091176  0.003  0.360203  0.002532  4.098074  0.004  0.139521  0.311458  -0.001333  4.08638  0.002
C  C50  1  0.38735150  0.17567092  0.97528418  1  -0.056286  0.015459  3.813196  0.016  -0.043764  0.008542  4.046695  0.01  -0.053039  0.005807  4.073522  0.007  -0.014985  -0.037573  0.010513  4.028437  0.012
C  C51  1  0.61264573  0.82432636  0.02472121  1  -0.056395  -0.015471  3.813062  -0.016  -0.04387  -0.008544  4.046593  -0.01  -0.053149  -0.005808  4.073425  -0.007  -0.014987  -0.037677  -0.010513  4.028335  -0.012
C  C52  1  0.47708913  0.17894551  0.88557530  1  -0.04889  -0.004125  3.680129  -0.004  -0.078059  -0.001026  3.940146  -0.001  -0.077349  -0.001259  3.958921  -0.001  -0.07346  -0.078281  -0.000765  3.927248  -0.001
C  C53  1  0.52291050  0.82105386  0.11442958  1  -0.048944  0.00414  3.68015  0.004  -0.078132  0.00103  3.940189  0.001  -0.077421  0.001258  3.958962  0.001  -0.073521  -0.078349  0.000765  3.927281  0.001
C  C54  1  0.43046310  0.13867068  0.80488336  1  -0.064282  0.003006  3.71483  0.003  -0.081475  0.000555  3.977905  0.001  -0.084489  0.000616  3.999276  0.001  -0.078249  -0.079545  0.000533  3.963731  0.001
C  C55  1  0.56953504  0.86133185  0.19511950  1  -0.064327  -0.00302  3.714892  -0.003  -0.081487  -0.000556  3.977977  -0.001  -0.084493  -0.000617  3.999337  -0.001  -0.078262  -0.079554  -0.000533  3.963792  -0.001
C  C56  1  0.29879903  0.09638458  0.81541892  1  -0.033239  -0.004837  3.690962  -0.004  -0.053077  -0.001457  3.952811  -0.001  -0.053864  -0.001506  3.973505  -0.001  -0.074421  -0.052666  -0.001405  3.939188  -0.001
C  C57  1  0.70119860  0.90361909  0.18457852  1  -0.033291  0.004853  3.690786  0.004  -0.053145  0.001455  3.95263  0.001  -0.053933  0.001508  3.973323  0.001  -0.074406  -0.052731  0.001406  3.938998  0.001
C  C58  1  0.20958492  0.09205829  0.90648742  1  -0.031691  0.00294  3.649407  0.003  -0.058065  0.000751  3.904236  0.001  -0.058474  0.00079  3.922094  0.001  -0.063735  -0.057836  0.000785  3.892335  0.001
C  C59  1  0.79041742  0.90794019  0.09351001  1  -0.031517  -0.002952  3.649398  -0.003  -0.057906  -0.000747  3.904243  -0.001  -0.058313  -0.000793  3.9221  -0.001  -0.063678  -0.057676  -0.000785  3.892354  -0.001
C  C60  1  0.25572161  0.13229775  0.98637083  1  -0.056986  -0.003928  3.765998  -0.003  -0.044559  -0.001069  3.998824  -0.001  -0.04961  -0.00115  4.02352  -0.001  -0.012986  -0.041201  -0.000938  3.982301  -0.001
C  C61  1  0.74428398  0.86769857  0.01363059  1  -0.056915  0.00394  3.76583  0.003  -0.044476  0.001066  3.99872  0.001  -0.049519  0.001153  4.02342  0.001  -0.01295  -0.041127  0.000937  3.982204  0.001
C  C62  1  0.18381544  0.14176667  0.09077665  1  0.368299  0.000195  3.812271  0.0  0.344108  0.000627  4.091464  0.001  0.368106  7.8e-05  4.095943  0.0  0.149397  0.327568  0.001186  4.088839  0.001
C  C63  1  0.81617253  0.85823597  0.90921919  1  0.368109  -0.000195  3.812299  0.0  0.343827  -0.000627  4.091683  -0.001  0.367801  -7.9e-05  4.096201  0.0  0.149237  0.327295  -0.001186  4.089061  -0.001
C  C64  1  0.65734047  0.22137056  0.41917998  1  0.128369  -0.002146  3.721333  -0.002  0.108263  -0.000544  3.968718  -0.001  0.116319  -0.000774  3.98679  -0.001  0.04107  0.103334  -0.000234  3.956452  0.0
C  C65  1  0.34265955  0.77861841  0.58082382  1  0.128375  0.002151  3.721327  0.002  0.108265  0.000542  3.968711  0.001  0.116309  0.000774  3.986777  0.001  0.041085  0.103338  0.000234  3.956439  0.0
C  C66  1  0.78211518  0.13657681  0.49214981  1  -0.159927  0.00289  3.693972  0.003  -0.174939  0.001088  3.927591  0.001  -0.18113  0.001049  3.94512  0.001  -0.083086  -0.170694  0.001104  3.915258  0.001
C  C67  1  0.21788943  0.86342162  0.50785052  1  -0.16002  -0.002896  3.694013  -0.003  -0.175044  -0.001087  3.927572  -0.001  -0.181235  -0.001049  3.945102  -0.001  -0.083065  -0.170796  -0.001105  3.915231  -0.001
C  C68  1  0.93191686  0.04461824  0.46199711  1  0.088851  -0.00243  3.74956  -0.002  0.102497  -0.000854  3.975737  -0.001  0.106354  -0.000916  3.996575  -0.001  0.012397  0.100139  -0.000777  3.96123  -0.001
C  C69  1  0.06808471  0.95537703  0.53800470  1  0.089033  0.002435  3.74955  0.002  0.10282  0.000853  3.975595  0.001  0.106678  0.000915  3.996432  0.001  0.012437  0.100469  0.000777  3.96109  0.001
C  C70  1  0.94582456  0.04287228  0.35684743  1  -0.146928  0.003132  3.677371  0.003  -0.163692  0.00137  3.922165  0.001  -0.168748  0.001189  3.937947  0.001  -0.074658  -0.160393  0.001435  3.91126  0.001
C  C71  1  0.05418237  0.95711879  0.64315641  1  -0.146871  -0.003138  3.677374  -0.003  -0.163686  -0.001369  3.922133  -0.001  -0.168744  -0.001189  3.937917  -0.001  -0.074569  -0.160388  -0.001435  3.91122  -0.001
C  C72  1  0.81419387  0.13043433  0.28896662  1  0.12081  -0.002062  3.719242  -0.002  0.092203  -0.000475  3.982297  -0.001  0.100376  -0.000755  3.998875  -0.001  0.041306  0.087114  -0.000197  3.971387  0.0
C  C73  1  0.18581742  0.86955468  0.71103665  1  0.120697  0.002067  3.719278  0.002  0.092105  0.000475  3.982327  0.001  0.100276  0.000756  3.998905  0.001  0.041219  0.087021  0.000197  3.971423  0.0
C  C74  1  0.75177978  0.46989045  0.16885100  1  0.136067  -0.006347  3.679635  -0.006  0.108321  -0.000587  3.92938  -0.001  0.11795  -0.001806  3.946137  -0.003  0.049207  0.102412  0.000373  3.918678  0.0
C  C75  1  0.24822194  0.53010691  0.83115042  1  0.136032  0.006336  3.679767  0.006  0.108284  0.000588  3.929493  0.001  0.117914  0.001804  3.946245  0.002  0.049175  0.102379  -0.000373  3.918792  0.0
C  C76  1  0.88133215  0.50323071  0.12482816  1  -0.1501  0.010183  3.681099  0.01  -0.166093  0.004249  3.92292  0.005  -0.171501  0.004182  3.939217  0.005  -0.078603  -0.162465  0.004152  3.911595  0.004
C  C77  1  0.11866971  0.49676874  0.87517286  1  -0.150193  -0.010171  3.681108  -0.01  -0.166209  -0.004252  3.922941  -0.005  -0.171614  -0.004178  3.939238  -0.005  -0.078647  -0.162581  -0.004151  3.911615  -0.004
C  C78  1  0.93180245  0.48300729  0.02553487  1  0.084751  -0.008166  3.762337  -0.008  0.099473  -0.00275  3.98807  -0.003  0.104497  -0.003143  4.007487  -0.003  0.008642  0.096374  -0.002318  3.974457  -0.002
C  C79  1  0.06820259  0.51699742  0.97446427  1  0.08483  0.008158  3.762369  0.008  0.099577  0.002755  3.988075  0.003  0.104603  0.00314  4.00749  0.003  0.008659  0.096479  0.002318  3.974456  0.002
C  C80  1  0.84660099  0.42887494  0.97623827  1  -0.156063  0.010881  3.689901  0.01  -0.177107  0.00486  3.943164  0.005  -0.18483  0.004705  3.96142  0.005  -0.083809  -0.17249  0.004768  3.931718  0.005
C  C81  1  0.15338841  0.57113176  0.02376348  1  -0.156091  -0.01087  3.689978  -0.01  -0.177118  -0.004863  3.943225  -0.005  -0.18484  -0.004702  3.961481  -0.005  -0.083817  -0.172504  -0.004768  3.931779  -0.005
C  C82  1  0.71837377  0.39831813  0.02548713  1  0.130356  -0.005712  3.682728  -0.006  0.097837  0.000183  3.943075  0.0  0.107026  -0.001197  3.958956  -0.002  0.044194  0.091879  0.001353  3.933679  0.001
C  C83  1  0.28162619  0.60167812  0.97451757  1  0.130369  0.005702  3.682582  0.006  0.097791  -0.000183  3.942965  0.0  0.106986  0.001194  3.958841  0.002  0.044184  0.091841  -0.001353  3.933572  -0.001
S  S84  1  0.25178184  0.60408830  0.29580711  1  1.297036  0.000815  5.674199  -0.002  1.208464  0.002532  6.191682  0.0  1.261056  0.00182  6.164452  0.0  0.503233  1.172618  0.003209  6.208825  0.0
S  S85  1  0.74822433  0.39591641  0.70419198  1  1.29695  -0.000815  5.674131  0.002  1.20836  -0.002532  6.191609  0.0  1.260955  -0.001822  6.164376  0.0  0.50325  1.172522  -0.003209  6.208749  0.0
N  N86  1  0.30008651  0.31529814  0.25855836  1  -0.228012  0.121928  3.226097  0.14  -0.203127  0.07147  3.559262  0.09  -0.24101  0.057792  3.585745  0.077  -0.220073  -0.184551  0.076691  3.545906  0.092
N  N87  1  0.69990901  0.68470759  0.74144029  1  -0.228047  -0.12191  3.226235  -0.14  -0.203165  -0.071468  3.5594  -0.09  -0.241039  -0.057786  3.58588  -0.077  -0.220101  -0.184587  -0.076688  3.54605  -0.092
N  N88  1  0.23329492  0.24460440  0.22646047  1  -0.034356  0.064197  3.150644  0.062  -0.031503  0.036246  3.451292  0.037  -0.027516  0.016959  3.475198  0.018  -0.146366  -0.030873  0.05177  3.434172  0.051
N  N89  1  0.76669771  0.75540026  0.77353926  1  -0.034352  -0.06418  3.150669  -0.062  -0.031465  -0.036245  3.451319  -0.037  -0.027476  -0.01696  3.475214  -0.018  -0.146322  -0.030835  -0.051766  3.434204  -0.051
N  N90  1  0.67113340  0.21885340  0.31858056  1  -0.33475  0.016454  3.289982  0.02  -0.291304  0.012389  3.585038  0.017  -0.316084  0.009476  3.603575  0.014  -0.340562  -0.27697  0.013812  3.574314  0.018
N  N91  1  0.32887091  0.78114091  0.68141680  1  -0.334748  -0.016458  3.290136  -0.02  -0.291298  -0.01239  3.585169  -0.017  -0.316072  -0.009478  3.603713  -0.014  -0.340582  -0.276954  -0.013814  3.57444  -0.018
N  N92  1  0.67090906  0.41780156  0.12037513  1  -0.284859  0.064947  3.296394  0.074  -0.227237  0.051779  3.57884  0.064  -0.256429  0.046576  3.6011  0.062  -0.34132  -0.21186  0.052728  3.567164  0.063
N  N93  1  0.32909829  0.58219581  0.87962676  1  -0.284912  -0.064939  3.296265  -0.074  -0.227247  -0.051776  3.578674  -0.064  -0.256432  -0.046573  3.600929  -0.062  -0.341365  -0.211886  -0.052727  3.567022  -0.063
O  O94  1  0.50984886  0.26035858  0.08442247  1  -0.452563  0.076711  2.1846  0.095  -0.417782  0.056025  2.46108  0.079  -0.458386  0.042027  2.456209  0.063  -0.268278  -0.393036  0.06446  2.465243  0.086
O  O95  1  0.49013955  0.73965024  0.91557745  1  -0.452723  -0.076713  2.184698  -0.095  -0.417903  -0.056028  2.461077  -0.079  -0.458497  -0.042029  2.456204  -0.063  -0.268326  -0.393145  -0.064465  2.465242  -0.086
O  O96  1  0.07508318  0.10225378  0.12821480  1  -0.439346  0.001997  1.94102  0.002  -0.405996  -3.1e-05  2.150713  0.0  -0.424981  -0.000569  2.147323  -0.001  -0.258266  -0.393242  0.000782  2.153058  0.001
O  O97  1  0.92489908  0.89775623  0.87177620  1  -0.439294  -0.001994  1.940917  -0.002  -0.405901  3.1e-05  2.150653  0.0  -0.424879  0.00057  2.147275  0.001  -0.258209  -0.393146  -0.000782  2.153  -0.001
O  O98  1  0.26892492  0.69855631  0.35127089  1  -0.639846  0.006322  1.951963  0.008  -0.594244  0.005125  2.188993  0.007  -0.615158  0.003429  2.173852  0.005  -0.337952  -0.579158  0.006516  2.198439  0.008
O  O99  1  0.73109582  0.30143907  0.64872774  1  -0.639848  -0.006324  1.951814  -0.008  -0.594244  -0.005127  2.18887  -0.007  -0.615141  -0.00343  2.173692  -0.005  -0.338  -0.579157  -0.006518  2.198318  -0.008
O  O100  1  0.09804980  0.65836134  0.23595325  1  -0.647802  0.000633  1.936568  0.001  -0.59985  0.000143  2.175696  0.0  -0.621911  7e-05  2.163103  0.0  -0.338556  -0.583727  0.000297  2.183322  0.001
O  O101  1  0.90195778  0.34164760  0.76404274  1  -0.647699  -0.000633  1.936642  -0.001  -0.599755  -0.000142  2.175775  0.0  -0.621819  -6.9e-05  2.163187  0.0  -0.338495  -0.583633  -0.000297  2.183397  -0.001
O  O102  1  0.40082484  0.55014203  0.23309658  1  -0.688804  0.033102  2.107642  0.04  -0.648705  0.02899  2.408533  0.039  -0.680747  0.02353  2.388919  0.034  -0.36332  -0.628088  0.032084  2.422003  0.041
O  O103  1  0.59917962  0.44985433  0.76690264  1  -0.688816  -0.033103  2.107582  -0.04  -0.648676  -0.028989  2.40844  -0.039  -0.680714  -0.023529  2.388824  -0.034  -0.363334  -0.628048  -0.032084  2.421913  -0.041
