# generated using pymatgen
data_Zn2H3(C3O4)2
_symmetry_space_group_name_H-M   'P 1'
_cell_length_a   13.03807973
_cell_length_b   15.00962538
_cell_length_c   16.42351751
_cell_angle_alpha   66.70939012
_cell_angle_beta   63.62347311
_cell_angle_gamma   61.18521026
_symmetry_Int_Tables_number   1
_chemical_formula_structural   Zn2H3(C3O4)2
_chemical_formula_sum   'Zn8 H12 C24 O32'
_cell_volume   2454.71491246
_cell_formula_units_Z   4
loop_
 _symmetry_equiv_pos_site_id
 _symmetry_equiv_pos_as_xyz
  1  'x, y, z'
loop_
 _atom_site_type_symbol
 _atom_site_label
 _atom_site_symmetry_multiplicity
 _atom_site_fract_x
 _atom_site_fract_y
 _atom_site_fract_z
 _atom_site_occupancy
 _atom_site_pbe_bader_charge
 _atom_site_pbe_bader_spin_density
 _atom_site_pbe_cm5_charge
 _atom_site_pbe_ddec_charge
 _atom_site_pbe_ddec_spin_density
 _atom_site_pbe_ddec_sum_bond_order
 _atom_site_pbe_magmom
Zn  Zn0  1  0.11024739  0.96465717  0.91155399  1  1.316389  0  0.676146  0.965684  0  2.375452  0
Zn  Zn1  1  0.86362752  0.95063395  0.92941122  1  1.320588  0  0.679367  0.974988  0  2.341176  0
Zn  Zn2  1  0.86379538  0.17153312  0.91569810  1  1.316661  0  0.678203  0.969017  0  2.338207  0
Zn  Zn3  1  0.88639787  0.98962356  0.10018726  1  1.315823  0  0.678794  0.966485  0  2.35753  0
Zn  Zn4  1  0.24357582  0.58275346  0.49929067  1  1.309055  0  0.677116  0.973641  0  2.34401  0
Zn  Zn5  1  0.48144417  0.57559256  0.52089220  1  1.319382  0  0.677873  0.969062  0  2.350614  0
Zn  Zn6  1  0.49934885  0.55545505  0.32934635  1  1.316217  0  0.678084  0.962689  0  2.363172  0
Zn  Zn7  1  0.48189800  0.36697342  0.50843952  1  1.31752  0  0.680793  0.972708  0  2.349959  0
H  H8  1  0.29118813  0.73378148  0.73947389  1  0.127631  0  0.126299  0.115798  0  0.960405  0
H  H9  1  0.04414978  0.75870908  0.72667757  1  0.113725  0  0.127355  0.115891  0  0.954575  0
H  H10  1  0.28563670  0.18752744  0.70304288  1  0.117179  0  0.127575  0.115769  0  0.954841  0
H  H11  1  0.04257912  0.36097534  0.65885895  1  0.12864  0  0.127297  0.115956  0  0.958107  0
H  H12  1  0.32514049  0.77151622  0.11332835  1  0.135388  0  0.127697  0.114495  0  0.95342  0
H  H13  1  0.08992858  0.83984371  0.28407207  1  0.124939  0  0.127021  0.116158  0  0.959682  0
H  H14  1  0.63167661  0.15779028  0.73980615  1  0.111199  0  0.12659  0.115104  0  0.957721  0
H  H15  1  0.65338370  0.35867960  0.73858964  1  0.124728  0  0.126523  0.118551  0  0.955826  0
H  H16  1  0.72949947  0.71137687  0.15102022  1  0.128128  0  0.127014  0.119419  0  0.955313  0
H  H17  1  0.70113263  0.77734669  0.32196727  1  0.13202  0  0.127522  0.115143  0  0.953764  0
H  H18  1  0.67402836  0.18011867  0.29596044  1  0.139214  0  0.126991  0.119394  0  0.953448  0
H  H19  1  0.66283320  0.37309839  0.12258640  1  0.127489  0  0.127337  0.116333  0  0.95623  0
C  C20  1  0.11197677  0.82917222  0.82271821  1  1.601364  0  0.231817  0.618044  0  4.157487  0
C  C21  1  0.19353794  0.74542299  0.76834212  1  0.357351  0  -0.004568  -0.037808  0  3.846029  0
C  C22  1  0.14196117  0.71893272  0.72059583  1  0.401399  0  -0.003803  -0.040669  0  3.833936  0
C  C23  1  0.22603592  0.67473642  0.63526586  1  1.577785  0  0.23353  0.622662  0  4.149923  0
C  C24  1  0.10760201  0.16930396  0.79101540  1  1.588575  0  0.23473  0.623932  0  4.141517  0
C  C25  1  0.19115474  0.21487048  0.70344177  1  0.387912  0  -0.00514  -0.038675  0  3.829765  0
C  C26  1  0.14166503  0.31588705  0.64039421  1  0.355764  0  -0.006574  -0.041053  0  3.844833  0
C  C27  1  0.22421042  0.37736379  0.58197627  1  1.60131  0  0.23346  0.620247  0  4.154814  0
C  C28  1  0.14581480  0.88599849  0.09287407  1  1.592326  0  0.235902  0.621134  0  4.143721  0
C  C29  1  0.23660188  0.82653685  0.14682055  1  0.363585  0  -0.002818  -0.033353  0  3.83159  0
C  C30  1  0.18941151  0.80876966  0.25012320  1  0.364624  0  -0.006798  -0.041124  0  3.844242  0
C  C31  1  0.26179432  0.71321037  0.30792843  1  1.591463  0  0.233992  0.621011  0  4.153173  0
C  C32  1  0.71830906  0.15082095  0.83290867  1  1.586178  0  0.23392  0.623796  0  4.138182  0
C  C33  1  0.63608124  0.20667158  0.77187418  1  0.383468  0  -0.00491  -0.041247  0  3.836313  0
C  C34  1  0.61194635  0.31891573  0.72629028  1  0.374845  0  -0.00689  -0.043678  0  3.833769  0
C  C35  1  0.57871246  0.36767116  0.63716893  1  1.580853  0  0.235545  0.62545  0  4.137851  0
C  C36  1  0.78872664  0.83790107  0.12559251  1  1.565235  0  0.234766  0.622168  0  4.144653  0
C  C37  1  0.75696779  0.74266588  0.18441592  1  0.387353  0  -0.004401  -0.040887  0  3.835349  0
C  C38  1  0.71161669  0.72258816  0.28794209  1  0.356828  0  -0.002955  -0.037795  0  3.834505  0
C  C39  1  0.62991422  0.65978358  0.34219448  1  1.596225  0  0.233961  0.622472  0  4.136666  0
C  C40  1  0.59432422  0.33994326  0.31726024  1  1.593769  0  0.234043  0.622635  0  4.137445  0
C  C41  1  0.63479435  0.26219778  0.26222429  1  0.369305  0  -0.004298  -0.041931  0  3.830574  0
C  C42  1  0.66636731  0.29359175  0.15913224  1  0.346355  0  -0.004587  -0.039588  0  3.83241  0
C  C43  1  0.75049882  0.21150709  0.10261895  1  1.594079  0  0.236044  0.624784  0  4.132934  0
O  O44  1  0.92947141  0.01931093  0.96396404  1  -1.232679  0  -0.572614  -1.039233  0  2.532898  0
O  O45  1  0.99812687  0.84366060  0.86032126  1  -1.174576  0  -0.307008  -0.539966  0  2.32677  0
O  O46  1  0.16783183  0.87776485  0.82519989  1  -1.160503  0  -0.313591  -0.541285  0  2.305206  0
O  O47  1  0.16783263  0.65158659  0.80587525  1  -0.853835  0  -0.191097  -0.184719  0  2.050313  0
O  O48  1  0.34140467  0.64519514  0.61797388  1  -1.180706  0  -0.307741  -0.542284  0  2.338897  0
O  O49  1  0.17211234  0.66999468  0.58965232  1  -1.159649  0  -0.310144  -0.539336  0  2.293024  0
O  O50  1  0.99156711  0.21697069  0.80776730  1  -1.16832  0  -0.30398  -0.536846  0  2.309128  0
O  O51  1  0.16401515  0.08356825  0.83921201  1  -1.170912  0  -0.3126  -0.541264  0  2.291376  0
O  O52  1  0.18102303  0.21845626  0.61829659  1  -0.857944  0  -0.192888  -0.187956  0  2.047274  0
O  O53  1  0.33948973  0.32530148  0.55744573  1  -1.177755  0  -0.308787  -0.542645  0  2.345964  0
O  O54  1  0.16886628  0.47643243  0.56447617  1  -1.152515  0  -0.310177  -0.537625  0  2.293026  0
O  O55  1  0.03599759  0.93901890  0.13465108  1  -1.173374  0  -0.308712  -0.542999  0  2.324322  0
O  O56  1  0.19001601  0.87715209  0.00867541  1  -1.161309  0  -0.309244  -0.534513  0  2.291856  0
O  O57  1  0.24341199  0.88605255  0.19319974  1  -0.855631  0  -0.191047  -0.185601  0  2.058293  0
O  O58  1  0.37856993  0.67750989  0.27274063  1  -1.160259  0  -0.308378  -0.539938  0  2.327833  0
O  O59  1  0.19628601  0.67750528  0.38761854  1  -1.168562  0  -0.312541  -0.542756  0  2.304937  0
O  O60  1  0.73452163  0.20669500  0.86396360  1  -1.165953  0  -0.307533  -0.542413  0  2.329562  0
O  O61  1  0.76328362  0.05137838  0.84736000  1  -1.164754  0  -0.309439  -0.538417  0  2.289701  0
O  O62  1  0.52046866  0.28603805  0.80707593  1  -0.852199  0  -0.188351  -0.182442  0  2.048368  0
O  O63  1  0.54423404  0.31755375  0.61377008  1  -1.15832  0  -0.307825  -0.540913  0  2.315679  0
O  O64  1  0.58637559  0.45691591  0.59447143  1  -1.169268  0  -0.314001  -0.544847  0  2.292233  0
O  O65  1  0.82435142  0.87526895  0.16102891  1  -1.151927  0  -0.30835  -0.53882  0  2.321774  0
O  O66  1  0.77770464  0.87063842  0.04444725  1  -1.165999  0  -0.31256  -0.542285  0  2.297461  0
O  O67  1  0.83615982  0.66550106  0.23911108  1  -0.870191  0  -0.190101  -0.184061  0  2.060371  0
O  O68  1  0.63054996  0.60415362  0.30027802  1  -1.162458  0  -0.306902  -0.54188  0  2.330059  0
O  O69  1  0.56812612  0.66810056  0.42650883  1  -1.158174  0  -0.308342  -0.535017  0  2.277371  0
O  O70  1  0.56189789  0.43626281  0.27583607  1  -1.160228  0  -0.304578  -0.534616  0  2.32195  0
O  O71  1  0.59402200  0.30078255  0.40175097  1  -1.162581  0  -0.311417  -0.54069  0  2.287447  0
O  O72  1  0.54888438  0.28495322  0.21748354  1  -0.849919  0  -0.189513  -0.1852  0  2.041504  0
O  O73  1  0.76959866  0.11661433  0.14663571  1  -1.167931  0  -0.304183  -0.537549  0  2.32985  0
O  O74  1  0.79241924  0.24646664  0.01498712  1  -1.167518  0  -0.309871  -0.536747  0  2.28261  0
O  O75  1  0.42455961  0.51995656  0.46565347  1  -1.223917  0  -0.57205  -1.037947  0  2.527296  0
