# generated using pymatgen
data_Cu3H12C18(NO3)4
_symmetry_space_group_name_H-M   'P 1'
_cell_length_a   6.55371631
_cell_length_b   8.08194331
_cell_length_c   10.52427558
_cell_angle_alpha   86.76605315
_cell_angle_beta   76.51199600
_cell_angle_gamma   69.78404168
_symmetry_Int_Tables_number   1
_chemical_formula_structural   Cu3H12C18(NO3)4
_chemical_formula_sum   'Cu3 H12 C18 N4 O12'
_cell_volume   508.49057865
_cell_formula_units_Z   1
loop_
 _symmetry_equiv_pos_site_id
 _symmetry_equiv_pos_as_xyz
  1  'x, y, z'
loop_
 _atom_site_type_symbol
 _atom_site_label
 _atom_site_symmetry_multiplicity
 _atom_site_fract_x
 _atom_site_fract_y
 _atom_site_fract_z
 _atom_site_occupancy
 _atom_site_hle17_ddec_charge
 _atom_site_hle17_ddec_spin_density
 _atom_site_hle17_ddec_sum_bond_order
 _atom_site_hle17_magmom
 _atom_site_hse06_10hf_ddec_charge
 _atom_site_hse06_10hf_ddec_spin_density
 _atom_site_hse06_10hf_ddec_sum_bond_order
 _atom_site_hse06_10hf_magmom
 _atom_site_hse06_ddec_charge
 _atom_site_hse06_ddec_spin_density
 _atom_site_hse06_ddec_sum_bond_order
 _atom_site_hse06_magmom
 _atom_site_pbe_cm5_charge
 _atom_site_pbe_ddec_charge
 _atom_site_pbe_ddec_spin_density
 _atom_site_pbe_ddec_sum_bond_order
 _atom_site_pbe_magmom
Cu  Cu0  1  0.50000101  0.99999875  0.00000153  1  0.983589  0.61546  1.61932  0.494  1.013108  0.804633  1.981365  0.669  1.106562  0.877579  1.925064  0.768  0.68141  0.93588  0.730539  2.038181  0.588
Cu  Cu1  1  0.10954228  0.26243935  0.50631605  1  0.580961  0.080779  1.711956  0.066  0.416831  0.001263  2.191176  0.001  0.405204  -0.00013  2.156934  0.0  0.5733  0.43117  0.014101  2.209599  0.012
Cu  Cu2  1  0.89045519  0.73755894  0.49368606  1  0.58111  0.080878  1.711878  0.067  0.416792  0.001268  2.191122  0.001  0.405183  -0.000128  2.156909  0.0  0.573273  0.431127  0.014109  2.209543  0.012
H  H3  1  0.74871768  0.19972587  0.70953420  1  0.108327  -2.1e-05  0.955076  0.0  0.112079  -3.1e-05  1.020006  0.0  0.114729  -4.6e-05  1.017949  0.0  0.123162  0.110778  5e-06  1.020929  0.0
H  H4  1  0.25128249  0.80026979  0.29046667  1  0.108403  -3.5e-05  0.955017  0.0  0.112137  -3e-05  1.019938  0.0  0.114786  -4.6e-05  1.01788  0.0  0.123206  0.110831  5e-06  1.020875  0.0
H  H5  1  0.36461722  0.21037514  0.70851134  1  0.104784  5e-06  0.968064  0.0  0.105421  1.9e-05  1.038417  0.0  0.108719  -1.7e-05  1.035612  0.0  0.120804  0.103647  6.4e-05  1.039937  0.0
H  H6  1  0.63538338  0.78962316  0.29148936  1  0.104839  2.1e-05  0.967979  0.0  0.105456  1.9e-05  1.038344  0.0  0.108754  -1.8e-05  1.035539  0.0  0.120815  0.103679  6.4e-05  1.039865  0.0
H  H7  1  0.52618125  0.19509265  0.30128975  1  0.101376  3e-06  0.966887  0.0  0.107681  5e-06  1.029359  0.0  0.11008  5e-06  1.027711  0.0  0.120329  0.106266  1.7e-05  1.0304  0.0
H  H8  1  0.47381004  0.80491620  0.69871094  1  0.101396  -4.6e-05  0.966855  0.0  0.10773  5e-06  1.029307  0.0  0.110131  5e-06  1.027652  0.0  0.120347  0.106314  1.7e-05  1.030345  0.0
H  H9  1  0.90813324  0.19316883  0.30212653  1  0.110932  5.9e-05  0.950173  0.0  0.117539  8e-05  1.00978  0.0  0.120317  6.1e-05  1.007732  0.0  0.123554  0.115768  0.000101  1.011279  0.0
H  H10  1  0.09185319  0.80684399  0.69787377  1  0.110875  5.3e-05  0.950169  0.0  0.117528  8e-05  1.009736  0.0  0.120307  6.1e-05  1.007687  0.0  0.123563  0.115758  0.000101  1.011232  0.0
H  H11  1  0.14937310  0.06347654  0.90210063  1  0.426295  0.000431  0.880054  0.001  0.402045  0.000785  0.933655  0.002  0.414838  0.000606  0.915345  0.001  0.293626  0.392325  0.000808  0.947569  0.002
H  H12  1  0.85063195  0.93651515  0.09790158  1  0.426208  0.000432  0.880159  0.001  0.401962  0.000785  0.933755  0.002  0.414751  0.000606  0.915449  0.001  0.293575  0.392243  0.000808  0.947668  0.002
H  H13  1  0.22899644  0.85677452  0.94492619  1  0.422538  0.000282  0.884797  0.001  0.398981  0.000793  0.937552  0.002  0.412253  0.000606  0.918664  0.001  0.292333  0.388965  0.000891  0.951793  0.002
H  H14  1  0.77101229  0.14321587  0.05507268  1  0.42265  0.000284  0.884653  0.001  0.399037  0.000793  0.937491  0.002  0.412308  0.000606  0.918604  0.001  0.292343  0.389016  0.000891  0.951743  0.002
C  C15  1  0.10959409  0.48322217  0.24353967  1  0.209966  -0.001618  3.836487  0.0  0.192788  -0.00026  4.091724  0.001  0.204025  -0.001256  4.104268  0.0  0.108112  0.183646  0.00068  4.086619  0.002
C  C16  1  0.89040592  0.51677745  0.75646011  1  0.210021  -0.001582  3.836425  0.0  0.192843  -0.000262  4.091665  0.001  0.204081  -0.001257  4.104211  0.0  0.108121  0.1837  0.000681  4.086554  0.002
C  C17  1  0.22560374  0.32091156  0.16388653  1  0.196365  0.002827  3.911036  0.004  0.175331  0.001725  4.195577  0.003  0.186613  0.000441  4.209319  0.001  0.102714  0.168006  0.003023  4.185265  0.004
C  C18  1  0.77439469  0.67908807  0.83611253  1  0.196296  0.002843  3.911169  0.004  0.175265  0.001723  4.195714  0.003  0.186547  0.00044  4.209458  0.001  0.102655  0.167938  0.003023  4.185398  0.004
C  C19  1  0.29259026  0.37124653  0.02813840  1  0.202442  -0.004433  3.842682  -0.004  0.179274  -0.0011  4.125717  -0.002  0.192469  -0.001767  4.144264  -0.002  0.103817  0.170772  0.00027  4.112696  -0.001
C  C20  1  0.70741188  0.62875178  0.97186016  1  0.202574  -0.004442  3.842562  -0.004  0.179373  -0.001101  4.125659  -0.002  0.192568  -0.001767  4.144205  -0.002  0.103859  0.170869  0.00027  4.112644  -0.001
C  C21  1  0.20842277  0.56469756  0.02167270  1  0.204871  0.005515  3.859541  0.007  0.180201  0.004832  4.147786  0.006  0.189747  0.002987  4.164592  0.004  0.106148  0.173897  0.005914  4.136031  0.007
C  C22  1  0.79158408  0.43530075  0.97832517  1  0.204802  0.005538  3.859524  0.007  0.180088  0.00483  4.147843  0.006  0.189633  0.002988  4.164653  0.004  0.106093  0.173783  0.005914  4.136085  0.007
C  C23  1  0.08582528  0.63278791  0.15572786  1  0.207907  -0.001158  3.841466  0.001  0.185049  -0.000937  4.118813  0.0  0.198207  -0.001697  4.129769  0.0  0.110301  0.175691  -0.000254  4.112337  0.001
C  C24  1  0.91417631  0.36721171  0.84427263  1  0.207913  -0.00121  3.841422  0.001  0.185061  -0.000934  4.118782  0.0  0.198212  -0.001695  4.129747  0.0  0.110271  0.175706  -0.000254  4.112294  0.001
C  C25  1  0.69748039  0.20463955  0.61794193  1  0.081456  -0.000915  3.632253  0.0  0.046712  7.3e-05  3.896164  0.0  0.051722  4.8e-05  3.906001  0.0  0.045748  0.043896  0.000119  3.887895  0.0
C  C26  1  0.30251826  0.79535608  0.38206296  1  0.081328  -0.000853  3.632477  0.0  0.046628  7.3e-05  3.896337  0.0  0.051641  4.7e-05  3.906176  0.0  0.045682  0.043809  0.000119  3.888073  0.0
C  C27  1  0.48473110  0.20869305  0.61737443  1  0.082457  -0.000797  3.637254  0.0  0.049269  3.9e-05  3.898676  0.0  0.053404  2e-05  3.909367  0.0  0.045466  0.047155  0.000105  3.889731  0.0
C  C28  1  0.51526755  0.79130258  0.38263046  1  0.082395  -0.00088  3.63722  0.0  0.049227  3.8e-05  3.898597  0.0  0.053362  2.1e-05  3.909291  0.0  0.045465  0.047115  0.000104  3.889653  0.0
C  C29  1  0.57349898  0.20205538  0.39262546  1  0.075991  -0.001188  3.64249  -0.001  0.042354  -5.9e-05  3.902431  0.0  0.04635  -2.8e-05  3.913974  0.0  0.042615  0.040232  -1.7e-05  3.893308  0.0
C  C30  1  0.42648974  0.79795216  0.60737472  1  0.075942  -0.000998  3.64248  0.0  0.042268  -6.3e-05  3.902442  0.0  0.046262  -3e-05  3.91399  0.0  0.042548  0.040152  -1.7e-05  3.893301  0.0
C  C31  1  0.78540913  0.20007073  0.39313612  1  0.079795  -0.000646  3.636491  0.0  0.046872  2.2e-05  3.89755  0.0  0.051952  3e-05  3.906983  0.0  0.044577  0.043881  2.7e-05  3.890075  0.0
C  C32  1  0.21458328  0.79993550  0.60686166  1  0.079895  -0.000659  3.636525  0.0  0.046938  2.3e-05  3.8976  0.0  0.052019  3e-05  3.907038  0.0  0.044608  0.043949  2.7e-05  3.890117  0.0
N  N33  1  0.84870600  0.20667393  0.50596583  1  -0.268032  0.001225  3.390551  0.002  -0.197655  -3e-05  3.706199  0.0  -0.198582  -2.4e-05  3.708203  0.0  -0.363438  -0.197026  0.000419  3.703161  0.001
N  N34  1  0.15129483  0.79333098  0.49403171  1  -0.267973  0.001211  3.390818  0.002  -0.197609  -3.1e-05  3.706475  0.0  -0.198551  -2.4e-05  3.708502  0.0  -0.363422  -0.196977  0.000419  3.703435  0.001
N  N35  1  0.41728862  0.21181113  0.50472639  1  -0.270533  0.001026  3.394874  0.002  -0.19776  -3.1e-05  3.707081  0.0  -0.199441  -3e-06  3.711165  0.0  -0.366114  -0.196565  0.000414  3.702461  0.001
N  N36  1  0.58270029  0.78819243  0.49527678  1  -0.270552  0.001031  3.394879  0.002  -0.197728  -3.1e-05  3.706985  0.0  -0.199419  -2e-06  3.711084  0.0  -0.366072  -0.196529  0.000414  3.702361  0.001
O  O37  1  0.04146945  0.49286759  0.36638067  1  -0.462906  0.005017  2.199673  0.009  -0.382473  -0.001704  2.465697  -0.001  -0.397524  -0.002778  2.456166  -0.002  -0.282675  -0.375136  0.000462  2.474375  0.001
O  O38  1  0.95852783  0.50713467  0.63361846  1  -0.462962  0.004991  2.19965  0.009  -0.38252  -0.0017  2.465685  -0.001  -0.397572  -0.002779  2.45615  -0.002  -0.282691  -0.375183  0.000462  2.47436  0.001
O  O39  1  0.26850754  0.16548937  0.20161086  1  -0.467946  0.011122  2.039399  0.018  -0.439943  0.007384  2.288642  0.013  -0.462127  0.003291  2.283296  0.008  -0.269647  -0.422703  0.012223  2.291108  0.019
O  O40  1  0.73149133  0.83451289  0.79838993  1  -0.467937  0.011114  2.039515  0.018  -0.43991  0.007388  2.288735  0.013  -0.4621  0.003291  2.283397  0.008  -0.269597  -0.42267  0.012225  2.291195  0.019
O  O41  1  0.40794048  0.26173265  0.93586947  1  -0.438341  0.052384  2.066723  0.076  -0.400455  0.046548  2.314166  0.072  -0.436148  0.033654  2.315771  0.057  -0.267925  -0.376994  0.051204  2.314362  0.074
O  O42  1  0.59206639  0.73826565  0.06413029  1  -0.438376  0.052378  2.066764  0.076  -0.400475  0.04655  2.314181  0.072  -0.436166  0.033656  2.315782  0.057  -0.267921  -0.377017  0.051207  2.314385  0.074
O  O43  1  0.23904249  0.65403782  0.92222807  1  -0.455373  0.004514  2.009152  0.006  -0.416919  0.002453  2.227561  0.003  -0.439686  0.001123  2.230203  0.002  -0.279313  -0.40061  0.003836  2.225612  0.005
O  O44  1  0.76096638  0.34596311  0.07777224  1  -0.455429  0.004506  2.009186  0.006  -0.416878  0.002452  2.227557  0.003  -0.439646  0.001124  2.230203  0.002  -0.279274  -0.400565  0.003836  2.225613  0.005
O  O45  1  0.98064980  0.79105051  0.19195100  1  -0.465818  -2.6e-05  2.052076  0.001  -0.412655  -0.000257  2.270769  0.001  -0.431483  -0.001695  2.264809  -0.001  -0.268289  -0.400005  0.001199  2.275111  0.002
O  O46  1  0.01935750  0.20895043  0.80804954  1  -0.465813  1e-05  2.05196  0.001  -0.412657  -0.000258  2.27065  0.001  -0.43148  -0.001694  2.264689  -0.001  -0.268288  -0.400034  0.001199  2.275042  0.002
O  O47  1  0.24093011  0.97544337  0.95597875  1  -0.859347  0.037785  2.036459  0.055  -0.817122  0.036067  2.252404  0.053  -0.848914  0.027775  2.212852  0.044  -0.599905  -0.794982  0.039113  2.282338  0.055
O  O48  1  0.75908117  0.02454834  0.04401873  1  -0.859361  0.037783  2.036439  0.055  -0.817109  0.036068  2.252422  0.053  -0.848896  0.027775  2.212884  0.044  -0.599868  -0.794967  0.039113  2.282358  0.055
