# generated using pymatgen
data_SmH21(C10O7)2
_symmetry_space_group_name_H-M   'P 1'
_cell_length_a   9.35219934
_cell_length_b   10.34747651
_cell_length_c   13.15206053
_cell_angle_alpha   100.45341035
_cell_angle_beta   96.93152414
_cell_angle_gamma   113.21622723
_symmetry_Int_Tables_number   1
_chemical_formula_structural   SmH21(C10O7)2
_chemical_formula_sum   'Sm2 H42 C40 O28'
_cell_volume   1123.95728245
_cell_formula_units_Z   2
loop_
 _symmetry_equiv_pos_site_id
 _symmetry_equiv_pos_as_xyz
  1  'x, y, z'
loop_
 _atom_site_type_symbol
 _atom_site_label
 _atom_site_symmetry_multiplicity
 _atom_site_fract_x
 _atom_site_fract_y
 _atom_site_fract_z
 _atom_site_occupancy
 _atom_site_hle17_bader_spin_density
 _atom_site_hle17_ddec_charge
 _atom_site_hle17_ddec_spin_density
 _atom_site_hle17_ddec_sum_bond_order
 _atom_site_hle17_magmom
 _atom_site_hse06_10hf_bader_spin_density
 _atom_site_hse06_10hf_ddec_charge
 _atom_site_hse06_10hf_ddec_spin_density
 _atom_site_hse06_10hf_ddec_sum_bond_order
 _atom_site_hse06_10hf_magmom
 _atom_site_hse06_bader_spin_density
 _atom_site_hse06_ddec_charge
 _atom_site_hse06_ddec_spin_density
 _atom_site_hse06_ddec_sum_bond_order
 _atom_site_hse06_magmom
 _atom_site_pbe_bader_spin_density
 _atom_site_pbe_cm5_charge
 _atom_site_pbe_ddec_charge
 _atom_site_pbe_ddec_spin_density
 _atom_site_pbe_ddec_sum_bond_order
 _atom_site_pbe_magmom
Sm  Sm0  1  0.71056852  0.95029850  0.97950217  1  0  2.323894  0  1.61306  0  0  2.231126  0  1.963676  0  0  2.274722  0  1.920218  0  0  1.50163  2.135499  0  2.112436  0
Sm  Sm1  1  0.28943040  0.04970134  0.02049829  1  0  2.323879  0  1.61305  0  0  2.231097  0  1.963665  0  0  2.274692  0  1.920209  0  0  1.501635  2.135445  0  2.112468  0
H  H2  1  0.56185021  0.78408808  0.57299691  1  0  0.40706  0  0.882852  0  0  0.374337  0  0.961696  0  0  0.387489  0  0.943945  0  0  0.306324  0.365173  0  0.971485  0
H  H3  1  0.43815123  0.21591720  0.42700759  1  0  0.407045  0  0.882912  0  0  0.374335  0  0.96172  0  0  0.387484  0  0.943953  0  0  0.306339  0.36517  0  0.971509  0
H  H4  1  0.49254658  0.62929359  0.67398479  1  0  0.373414  0  0.916366  0  0  0.348958  0  0.981837  0  0  0.358709  0  0.971735  0  0  0.304478  0.342059  0  0.989127  0
H  H5  1  0.50745504  0.37070516  0.32601653  1  0  0.373439  0  0.916348  0  0  0.348975  0  0.981839  0  0  0.358724  0  0.971741  0  0  0.3045  0.342077  0  0.989126  0
H  H6  1  0.50045972  0.41881712  0.16381717  1  0  0.386471  0  0.890225  0  0  0.36097  0  0.95901  0  0  0.371305  0  0.947723  0  0  0.309048  0.353639  0  0.966993  0
H  H7  1  0.49953977  0.58118163  0.83618243  1  0  0.386444  0  0.890288  0  0  0.360942  0  0.959072  0  0  0.371277  0  0.947785  0  0  0.309046  0.353613  0  0.967052  0
H  H8  1  0.89343578  0.85817292  0.82963193  1  0  0.442885  0  0.853212  0  0  0.412788  0  0.91564  0  0  0.423365  0  0.900093  0  0  0.301817  0.404979  0  0.926874  0
H  H9  1  0.10656316  0.14182692  0.17036777  1  0  0.442872  0  0.853226  0  0  0.412769  0  0.915661  0  0  0.42335  0  0.90011  0  0  0.301818  0.40496  0  0.926895  0
H  H10  1  0.72517441  0.71984551  0.80640032  1  0  0.424885  0  0.872637  0  0  0.3919  0  0.940071  0  0  0.402917  0  0.923684  0  0  0.302007  0.384254  0  0.9512  0
H  H11  1  0.27482508  0.28015325  0.19359929  1  0  0.424863  0  0.872667  0  0  0.391883  0  0.940094  0  0  0.4029  0  0.923707  0  0  0.302015  0.384235  0  0.951226  0
H  H12  1  0.49031941  0.00900919  0.81668092  1  0  0.435557  0  0.865188  0  0  0.40637  0  0.926609  0  0  0.416585  0  0.91169  0  0  0.298724  0.398566  0  0.93778  0
H  H13  1  0.50967900  0.99098957  0.18331934  1  0  0.435589  0  0.86513  0  0  0.406401  0  0.926551  0  0  0.416617  0  0.911631  0  0  0.298727  0.398597  0  0.937722  0
H  H14  1  0.62367204  0.98624520  0.75743649  1  0  0.441696  0  0.857622  0  0  0.410627  0  0.921619  0  0  0.421956  0  0.904897  0  0  0.296724  0.402466  0  0.933528  0
H  H15  1  0.37632849  0.01375573  0.24256276  1  0  0.441683  0  0.857653  0  0  0.41061  0  0.921655  0  0  0.421941  0  0.90493  0  0  0.296699  0.402449  0  0.933564  0
H  H16  1  0.66502050  0.90443780  0.35853495  1  0  0.106514  0  0.967919  0  0  0.112607  0  1.040034  0  0  0.116383  0  1.037171  0  0  0.106071  0.109789  0  1.04227  0
H  H17  1  0.33498045  0.09556639  0.64146783  1  0  0.106514  0  0.967826  0  0  0.11259  0  1.039971  0  0  0.116371  0  1.037102  0  0  0.106077  0.109774  0  1.042207  0
H  H18  1  0.96397581  0.24606099  0.63333098  1  0  0.120342  0  0.959248  0  0  0.126562  0  1.027624  0  0  0.130127  0  1.025787  0  0  0.108335  0.123942  0  1.029171  0
H  H19  1  0.03602896  0.75394209  0.36666973  1  0  0.1203  0  0.959195  0  0  0.126501  0  1.027597  0  0  0.130065  0  1.025755  0  0  0.108292  0.123879  0  1.029144  0
H  H20  1  0.05971191  0.27836157  0.32334974  1  0  0.127789  0  0.933471  0  0  0.135598  0  0.997335  0  0  0.140258  0  0.993317  0  0  0.116214  0.132207  0  1.000317  0
H  H21  1  0.94029127  0.72164043  0.67665066  1  0  0.127793  0  0.933467  0  0  0.135631  0  0.997303  0  0  0.140291  0  0.993284  0  0  0.116231  0.132238  0  1.000285  0
H  H22  1  0.21823698  0.45195997  0.67832854  1  0  0.055513  0  0.93909  0  0  0.068265  0  1.007873  0  0  0.067645  0  1.009045  0  0  0.100367  0.06839  0  1.007445  0
H  H23  1  0.78176349  0.54804095  0.32167450  1  0  0.055524  0  0.93914  0  0  0.068283  0  1.007898  0  0  0.067662  0  1.009069  0  0  0.100384  0.068408  0  1.00747  0
H  H24  1  0.06353258  0.50201957  0.63452380  1  0  0.060566  0  0.930261  0  0  0.073787  0  0.997289  0  0  0.073353  0  0.998091  0  0  0.102766  0.074201  0  0.996615  0
H  H25  1  0.93646692  0.49797918  0.36547580  1  0  0.060558  0  0.930276  0  0  0.073755  0  0.997322  0  0  0.07332  0  0.998126  0  0  0.102769  0.074172  0  0.996644  0
H  H26  1  0.25540701  0.69378531  0.56367274  1  0  0.058094  0  0.939916  0  0  0.07274  0  1.003522  0  0  0.071851  0  1.005506  0  0  0.102765  0.073274  0  1.002062  0
H  H27  1  0.74459297  0.30621453  0.43632858  1  0  0.058113  0  0.939902  0  0  0.072741  0  1.003528  0  0  0.071848  0  1.00551  0  0  0.102759  0.073274  0  1.002068  0
H  H28  1  0.30648501  0.72292580  0.70342475  1  0  0.051769  0  0.937327  0  0  0.065087  0  1.004896  0  0  0.064459  0  1.00591  0  0  0.098697  0.065213  0  1.004575  0
H  H29  1  0.69351605  0.27707403  0.29657668  1  0  0.051739  0  0.937389  0  0  0.065056  0  1.004952  0  0  0.064428  0  1.005966  0  0  0.098666  0.065181  0  1.00463  0
H  H30  1  0.94040966  0.30104190  0.15340904  1  0  0.129048  0  0.981237  0  0  0.134393  0  1.049451  0  0  0.138652  0  1.046525  0  0  0.113816  0.131323  0  1.051404  0
H  H31  1  0.05958767  0.69895905  0.84658915  1  0  0.12907  0  0.981245  0  0  0.134406  0  1.049464  0  0  0.138665  0  1.046538  0  0  0.113816  0.131333  0  1.051426  0
H  H32  1  0.19318423  0.75128224  0.15039160  1  0  0.119575  0  0.971308  0  0  0.124315  0  1.04397  0  0  0.128816  0  1.039912  0  0  0.11465  0.121107  0  1.046705  0
H  H33  1  0.80681370  0.24871325  0.84960892  1  0  0.119579  0  0.971224  0  0  0.124321  0  1.043893  0  0  0.128825  0  1.039831  0  0  0.114638  0.121113  0  1.046629  0
H  H34  1  0.68584524  0.53869799  0.04807290  1  0  0.114641  0  0.946358  0  0  0.123435  0  1.009379  0  0  0.128267  0  1.005016  0  0  0.109262  0.119896  0  1.012963  0
H  H35  1  0.31415809  0.46129966  0.95192387  1  0  0.114461  0  0.946504  0  0  0.123316  0  1.009454  0  0  0.128133  0  1.005101  0  0  0.109191  0.119775  0  1.013042  0
H  H36  1  0.37871126  0.63109948  0.12713591  1  0  0.066933  0  0.927171  0  0  0.080987  0  0.990379  0  0  0.0805  0  0.991033  0  0  0.106528  0.081285  0  0.989862  0
H  H37  1  0.62128719  0.36889710  0.87286481  1  0  0.066897  0  0.927259  0  0  0.081031  0  0.990369  0  0  0.080547  0  0.991023  0  0  0.106547  0.081327  0  0.989852  0
H  H38  1  0.38030550  0.73535058  0.25209159  1  0  0.07089  0  0.921672  0  0  0.086777  0  0.98239  0  0  0.087  0  0.98166  0  0  0.109449  0.086236  0  0.983397  0
H  H39  1  0.61969295  0.26464600  0.74790838  1  0  0.070902  0  0.92169  0  0  0.08679  0  0.982413  0  0  0.087007  0  0.981693  0  0  0.109467  0.086249  0  0.98342  0
H  H40  1  0.49650712  0.61330993  0.35091018  1  0  0.078177  0  0.905495  0  0  0.091693  0  0.965818  0  0  0.092917  0  0.964213  0  0  0.112077  0.090617  0  0.966935  0
H  H41  1  0.50349184  0.38668774  0.64909075  1  0  0.07806  0  0.905602  0  0  0.09158  0  0.965932  0  0  0.092804  0  0.964325  0  0  0.11203  0.090505  0  0.967048  0
H  H42  1  0.61086891  0.66681245  0.25423941  1  0  0.059266  0  0.916351  0  0  0.074728  0  0.980595  0  0  0.074529  0  0.980666  0  0  0.106302  0.075044  0  0.979894  0
H  H43  1  0.38912949  0.33318631  0.74576162  1  0  0.059289  0  0.916291  0  0  0.074738  0  0.980565  0  0  0.074538  0  0.980638  0  0  0.106306  0.075054  0  0.979866  0
C  C44  1  0.80510278  0.03170925  0.21074226  1  0  0.658335  0  3.887853  0  0  0.608042  0  4.17979  0  0  0.641891  0  4.171437  0  0  0.210323  0.58609  0  4.179256  0
C  C45  1  0.19489825  0.96829276  0.78925871  1  0  0.658337  0  3.887782  0  0  0.60804  0  4.179734  0  0  0.64189  0  4.171382  0  0  0.210303  0.58609  0  4.179201  0
C  C46  1  0.85722063  0.08435448  0.32818101  1  0  -0.046959  0  3.787841  0  0  -0.019563  0  4.022454  0  0  -0.026963  0  4.0455  0  0  -0.0155  -0.015423  0  4.007984  0
C  C47  1  0.14277832  0.91564537  0.67181793  1  0  -0.046994  0  3.787815  0  0  -0.019597  0  4.022439  0  0  -0.027  0  4.045487  0  0  -0.015426  -0.015455  0  4.007972  0
C  C48  1  0.76793819  0.00740094  0.39321815  1  0  -0.094655  0  3.715125  0  0  -0.138341  0  3.970408  0  0  -0.137038  0  3.989951  0  0  -0.088669  -0.139035  0  3.95749  0
C  C49  1  0.23206709  0.99260322  0.60678275  1  0  -0.094641  0  3.714951  0  0  -0.138302  0  3.97023  0  0  -0.137003  0  3.989771  0  0  -0.088707  -0.139  0  3.957317  0
C  C50  1  0.81012654  0.06520270  0.50259483  1  0  -0.048996  0  3.790034  0  0  -0.025188  0  4.028335  0  0  -0.032787  0  4.052016  0  0  -0.016455  -0.020575  0  4.012316  0
C  C51  1  0.18987665  0.93479930  0.49740481  1  0  -0.049001  0  3.790165  0  0  -0.025174  0  4.028531  0  0  -0.032774  0  4.05221  0  0  -0.016435  -0.02056  0  4.012513  0
C  C52  1  0.93807701  0.20227094  0.54800999  1  0  -0.189397  0  3.683894  0  0  -0.223713  0  3.934525  0  0  -0.225358  0  3.952135  0  0  -0.092769  -0.22241  0  3.922959  0
C  C53  1  0.06192935  0.79773104  0.45199375  1  0  -0.189294  0  3.683903  0  0  -0.223573  0  3.934507  0  0  -0.225212  0  3.952109  0  0  -0.092708  -0.222271  0  3.922941  0
C  C54  1  0.02730574  0.27830631  0.48221475  1  0  0.268557  0  3.819252  0  0  0.262539  0  4.082692  0  0  0.272345  0  4.098229  0  0  0.0885  0.255299  0  4.072084  0
C  C55  1  0.97269803  0.72169460  0.51778404  1  0  0.268467  0  3.819255  0  0  0.262457  0  4.082704  0  0  0.272259  0  4.098242  0  0  0.088473  0.255217  0  4.072096  0
C  C56  1  0.98907354  0.21685466  0.37276786  1  0  -0.150085  0  3.658734  0  0  -0.188848  0  3.914819  0  0  -0.189414  0  3.930336  0  0  -0.082978  -0.188171  0  3.904433  0
C  C57  1  0.01092858  0.78314735  0.62723168  1  0  -0.150035  0  3.658701  0  0  -0.188827  0  3.914777  0  0  -0.18939  0  3.930293  0  0  -0.082983  -0.188148  0  3.904388  0
C  C58  1  0.71498281  0.98379027  0.57240759  1  0  0.662313  0  3.818346  0  0  0.61343  0  4.110412  0  0  0.646854  0  4.101787  0  0  0.238397  0.591043  0  4.115152  0
C  C59  1  0.28502473  0.01622368  0.42760934  1  0  0.662293  0  3.817942  0  0  0.613248  0  4.110254  0  0  0.646677  0  4.101632  0  0  0.238331  0.590858  0  4.114991  0
C  C60  1  0.17589926  0.49923792  0.61929707  1  0  0.051122  0  3.635892  0  0  -0.014285  0  3.916489  0  0  -0.007085  0  3.922861  0  0  -0.070675  -0.019149  0  3.911803  0
C  C61  1  0.82410230  0.50076300  0.38070531  1  0  0.051089  0  3.636108  0  0  -0.014299  0  3.916681  0  0  -0.007095  0  3.92305  0  0  -0.070729  -0.019165  0  3.911998  0
C  C62  1  0.29668326  0.65235119  0.62679784  1  0  0.112684  0  3.650041  0  0  0.048547  0  3.932067  0  0  0.055626  0  3.938105  0  0  -0.077723  0.043856  0  3.927958  0
C  C63  1  0.70331672  0.34764865  0.37320424  1  0  0.112599  0  3.650141  0  0  0.048493  0  3.932109  0  0  0.055578  0  3.93814  0  0  -0.077698  0.043805  0  3.928  0
C  C64  1  0.64242430  0.27354425  0.06945910  1  0  0.69556  0  3.874467  0  0  0.648108  0  4.169995  0  0  0.682794  0  4.158604  0  0  0.226906  0.624652  0  4.170548  0
C  C65  1  0.35757151  0.72645562  0.93053423  1  0  0.695647  0  3.874489  0  0  0.648222  0  4.169981  0  0  0.6829  0  4.158602  0  0  0.226864  0.624765  0  4.170538  0
C  C66  1  0.79620626  0.40577422  0.10008332  1  0  -0.065178  0  3.810695  0  0  -0.038437  0  4.047814  0  0  -0.046266  0  4.070997  0  0  -0.019807  -0.034015  0  4.033891  0
C  C67  1  0.20379006  0.59422456  0.89991295  1  0  -0.06527  0  3.810805  0  0  -0.038517  0  4.047892  0  0  -0.046345  0  4.071075  0  0  -0.019851  -0.034095  0  4.03397  0
C  C68  1  0.93887790  0.40174385  0.14089566  1  0  -0.168097  0  3.674039  0  0  -0.204601  0  3.929556  0  0  -0.205917  0  3.947092  0  0  -0.087898  -0.20359  0  3.91844  0
C  C69  1  0.06112207  0.59825817  0.85910445  1  0  -0.168053  0  3.674006  0  0  -0.204546  0  3.929509  0  0  -0.205862  0  3.947047  0  0  -0.087844  -0.203536  0  3.918396  0
C  C70  1  0.08203718  0.52760470  0.16363441  1  0  0.261995  0  3.817961  0  0  0.257743  0  4.079903  0  0  0.266132  0  4.096934  0  0  0.084335  0.251611  0  4.068766  0
C  C71  1  0.91795810  0.47239190  0.83636222  1  0  0.261951  0  3.817944  0  0  0.257697  0  4.079905  0  0  0.266086  0  4.096937  0  0  0.084348  0.251564  0  4.068771  0
C  C72  1  0.08351283  0.65407899  0.13900747  1  0  -0.171422  0  3.694825  0  0  -0.207918  0  3.947814  0  0  -0.209498  0  3.966524  0  0  -0.087304  -0.206365  0  3.935697  0
C  C73  1  0.91648507  0.34592087  0.86098985  1  0  -0.171468  0  3.694869  0  0  -0.20797  0  3.947887  0  0  -0.209546  0  3.966589  0  0  -0.087358  -0.206417  0  3.935772  0
C  C74  1  0.93954070  0.65609711  0.09751983  1  0  -0.048492  0  3.772183  0  0  -0.020445  0  3.998047  0  0  -0.027942  0  4.021221  0  0  -0.015385  -0.016489  0  3.984448  0
C  C75  1  0.06045882  0.34390165  0.90247826  1  0  -0.048492  0  3.77209  0  0  -0.020425  0  3.998023  0  0  -0.027921  0  4.021194  0  0  -0.015331  -0.016472  0  3.984421  0
C  C76  1  0.79571596  0.53441727  0.08125294  1  0  -0.106649  0  3.736968  0  0  -0.150883  0  3.994717  0  0  -0.149487  0  4.01314  0  0  -0.093463  -0.152392  0  3.984106  0
C  C77  1  0.20428570  0.46558365  0.91874337  1  0  -0.106444  0  3.736901  0  0  -0.150707  0  3.994627  0  0  -0.149295  0  4.01306  0  0  -0.093372  -0.152218  0  3.984018  0
C  C78  1  0.93813973  0.78596534  0.06337902  1  0  0.730967  0  3.851965  0  0  0.689654  0  4.131528  0  0  0.724791  0  4.119694  0  0  0.239724  0.665412  0  4.135127  0
C  C79  1  0.06185991  0.21403124  0.93661421  1  0  0.731065  0  3.851775  0  0  0.689607  0  4.131562  0  0  0.724743  0  4.119731  0  0  0.239676  0.665381  0  4.135136  0
C  C80  1  0.36724318  0.62799871  0.20915090  1  0  0.053269  0  3.611059  0  0  -0.009117  0  3.887262  0  0  -0.001477  0  3.892235  0  0  -0.068133  -0.014273  0  3.883676  0
C  C81  1  0.63275425  0.37199570  0.79084867  1  0  0.053168  0  3.611106  0  0  -0.009271  0  3.887346  0  0  -0.00163  0  3.892314  0  0  -0.068206  -0.014423  0  3.883755  0
C  C82  1  0.49415794  0.59373031  0.26565763  1  0  0.117639  0  3.625563  0  0  0.049446  0  3.91122  0  0  0.056688  0  3.916046  0  0  -0.069106  0.045046  0  3.906891  0
C  C83  1  0.50584208  0.40626735  0.73434415  1  0  0.117833  0  3.625481  0  0  0.049609  0  3.911177  0  0  0.056854  0  3.916003  0  0  -0.069036  0.045211  0  3.906846  0
O  O84  1  0.90338825  0.08404188  0.15311631  1  0  -0.707304  0  2.099759  0  0  -0.652734  0  2.336012  0  0  -0.677902  0  2.326383  0  0  -0.354158  -0.628963  0  2.341641  0
O  O85  1  0.09661284  0.91595795  0.84688359  1  0  -0.707286  0  2.099773  0  0  -0.652735  0  2.336054  0  0  -0.677901  0  2.326425  0  0  -0.354147  -0.62896  0  2.341684  0
O  O86  1  0.66174208  0.93958137  0.16809018  1  0  -0.691176  0  1.989076  0  0  -0.640978  0  2.221542  0  0  -0.665176  0  2.211897  0  0  -0.34685  -0.618031  0  2.227717  0
O  O87  1  0.33825842  0.06041956  0.83191134  1  0  -0.691187  0  1.989058  0  0  -0.640986  0  2.221529  0  0  -0.665183  0  2.211885  0  0  -0.346866  -0.618034  0  2.227705  0
O  O88  1  0.62679199  0.84426930  0.52600394  1  0  -0.552462  0  2.098583  0  0  -0.500201  0  2.312763  0  0  -0.522869  0  2.295301  0  0  -0.325992  -0.484379  0  2.321735  0
O  O89  1  0.37320897  0.15573489  0.47399884  1  0  -0.552279  0  2.099077  0  0  -0.499936  0  2.313289  0  0  -0.522603  0  2.295812  0  0  -0.32586  -0.484116  0  2.322261  0
O  O90  1  0.72075755  0.04491087  0.66405296  1  0  -0.563484  0  1.97507  0  0  -0.51356  0  2.187534  0  0  -0.535519  0  2.177807  0  0  -0.280187  -0.498717  0  2.193937  0
O  O91  1  0.27924749  0.95508568  0.33593925  1  0  -0.563661  0  1.973968  0  0  -0.513692  0  2.186523  0  0  -0.53566  0  2.176801  0  0  -0.280276  -0.498842  0  2.192921  0
O  O92  1  0.14994498  0.41355621  0.51420569  1  0  -0.272817  0  2.307179  0  0  -0.203372  0  2.539894  0  0  -0.220498  0  2.540515  0  0  -0.182128  -0.191135  0  2.538702  0
O  O93  1  0.85005932  0.58644360  0.48579527  1  0  -0.272692  0  2.307155  0  0  -0.20327  0  2.539877  0  0  -0.220397  0  2.540499  0  0  -0.182088  -0.191032  0  2.538685  0
O  O94  1  0.44949798  0.66033156  0.61427817  1  0  -0.538507  0  2.112705  0  0  -0.47784  0  2.329866  0  0  -0.494055  0  2.31557  0  0  -0.397191  -0.46666  0  2.339049  0
O  O95  1  0.55050147  0.33966937  0.38572173  1  0  -0.538449  0  2.112683  0  0  -0.477795  0  2.329836  0  0  -0.494008  0  2.315535  0  0  -0.397184  -0.466617  0  2.339018  0
O  O96  1  0.63639308  0.14714928  0.04059961  1  0  -0.774625  0  2.085952  0  0  -0.734435  0  2.350895  0  0  -0.757811  0  2.338206  0  0  -0.384999  -0.703988  0  2.358733  0
O  O97  1  0.36359839  0.85284843  0.95939834  1  0  -0.774683  0  2.08605  0  0  -0.734505  0  2.351  0  0  -0.757878  0  2.338312  0  0  -0.384973  -0.704055  0  2.358839  0
O  O98  1  0.51430089  0.29170008  0.07003901  1  0  -0.713626  0  2.04771  0  0  -0.664144  0  2.289846  0  0  -0.688269  0  2.277807  0  0  -0.372755  -0.640737  0  2.298799  0
O  O99  1  0.48569856  0.70830303  0.92995815  1  0  -0.713568  0  2.047625  0  0  -0.664151  0  2.28981  0  0  -0.688273  0  2.277771  0  0  -0.372701  -0.640747  0  2.29876  0
O  O100  1  0.80412869  0.78734761  0.03730280  1  0  -0.722663  0  2.058944  0  0  -0.68276  0  2.307763  0  0  -0.706342  0  2.295592  0  0  -0.395855  -0.658085  0  2.31802  0
O  O101  1  0.19586596  0.21265009  0.96269848  1  0  -0.722612  0  2.058817  0  0  -0.682658  0  2.307718  0  0  -0.70624  0  2.295546  0  0  -0.395819  -0.657986  0  2.317969  0
O  O102  1  0.07081192  0.88517734  0.06054195  1  0  -0.75765  0  2.081749  0  0  -0.715766  0  2.349695  0  0  -0.739591  0  2.33431  0  0  -0.427037  -0.687742  0  2.361056  0
O  O103  1  0.92917957  0.11482037  0.93945524  1  0  -0.757736  0  2.081642  0  0  -0.715813  0  2.349684  0  0  -0.739641  0  2.334299  0  0  -0.427052  -0.687796  0  2.361039  0
O  O104  1  0.21473489  0.51596632  0.20855127  1  0  -0.284839  0  2.302616  0  0  -0.213433  0  2.535472  0  0  -0.230579  0  2.536784  0  0  -0.184597  -0.201993  0  2.534331  0
O  O105  1  0.78526142  0.48403027  0.79144850  1  0  -0.284787  0  2.302547  0  0  -0.213392  0  2.535438  0  0  -0.230537  0  2.536749  0  0  -0.184596  -0.20195  0  2.534296  0
O  O106  1  0.46564827  0.44462379  0.23061751  1  0  -0.561241  0  2.184346  0  0  -0.489506  0  2.402209  0  0  -0.509084  0  2.391703  0  0  -0.380379  -0.475914  0  2.409321  0
O  O107  1  0.53435177  0.55537388  0.76938351  1  0  -0.561266  0  2.184395  0  0  -0.489476  0  2.402216  0  0  -0.509058  0  2.39171  0  0  -0.380379  -0.475893  0  2.409336  0
O  O108  1  0.77736348  0.82681220  0.82511792  1  0  -0.896927  0  1.854719  0  0  -0.855745  0  2.042662  0  0  -0.873822  0  2.010423  0  0  -0.642246  -0.835514  0  2.069003  0
O  O109  1  0.22263655  0.17318764  0.17488112  1  0  -0.896903  0  1.85475  0  0  -0.855715  0  2.042699  0  0  -0.873795  0  2.010452  0  0  -0.642263  -0.835484  0  2.069049  0
O  O110  1  0.57160267  0.97004547  0.81872899  1  0  -0.940204  0  1.866118  0  0  -0.899755  0  2.061718  0  0  -0.918185  0  2.028733  0  0  -0.656026  -0.878419  0  2.089835  0
O  O111  1  0.42839097  0.02995005  0.18127038  1  0  -0.940226  0  1.866059  0  0  -0.899791  0  2.061714  0  0  -0.918224  0  2.028728  0  0  -0.656031  -0.87845  0  2.089832  0
