# generated using pymatgen
data_ZnH7C18Br2N3(ClO2)2
_symmetry_space_group_name_H-M   'P 1'
_cell_length_a   11.03626166
_cell_length_b   15.95859271
_cell_length_c   17.27861299
_cell_angle_alpha   99.20553894
_cell_angle_beta   93.03831726
_cell_angle_gamma   99.79732391
_symmetry_Int_Tables_number   1
_chemical_formula_structural   ZnH7C18Br2N3(ClO2)2
_chemical_formula_sum   'Zn2 H14 C36 Br4 N6 Cl4 O8'
_cell_volume   2950.07580500
_cell_formula_units_Z   2
loop_
 _symmetry_equiv_pos_site_id
 _symmetry_equiv_pos_as_xyz
  1  'x, y, z'
loop_
 _atom_site_type_symbol
 _atom_site_label
 _atom_site_symmetry_multiplicity
 _atom_site_fract_x
 _atom_site_fract_y
 _atom_site_fract_z
 _atom_site_occupancy
 _atom_site_pbe_bader_charge
 _atom_site_pbe_bader_spin_density
 _atom_site_pbe_cm5_charge
 _atom_site_pbe_ddec_charge
 _atom_site_pbe_ddec_spin_density
 _atom_site_pbe_ddec_sum_bond_order
 _atom_site_pbe_magmom
Zn  Zn0  1  0.47085041  0.41104846  0.49555882  1  1.310576  0  0.669749  0.853308  0  2.377593  0
Zn  Zn1  1  0.52251008  0.59668318  0.51255889  1  1.301261  0  0.669561  0.847336  0  2.384512  0
H  H2  1  0.39072761  0.70170458  0.43442628  1  0.154643  0  0.128199  0.105464  0  0.994139  0
H  H3  1  0.38245434  0.85729304  0.42832084  1  0.12987  0  0.120365  0.130989  0  0.999791  0
H  H4  1  0.69821806  0.92721148  0.59959464  1  0.135096  0  0.125028  0.149587  0  0.973504  0
H  H5  1  0.30579102  0.08008901  0.40309951  1  0.124914  0  0.125048  0.150132  0  0.973621  0
H  H6  1  0.63351268  0.15085731  0.56442476  1  0.140587  0  0.121342  0.132381  0  0.995814  0
H  H7  1  0.61925355  0.30679028  0.56252042  1  0.16119  0  0.124559  0.103589  0  1.00546  0
H  H8  1  0.46206573  0.61249642  0.26868827  1  0.115475  0  0.099179  0.103894  0  1.018908  0
H  H9  1  0.46826853  0.61140934  0.12354452  1  0.115242  0  0.105222  0.10987  0  1.010621  0
H  H10  1  0.54347379  0.35314931  0.09551927  1  0.108662  0  0.110554  0.128101  0  0.992494  0
H  H11  1  0.45199356  0.65168434  0.90991798  1  0.13778  0  0.110824  0.12813  0  0.991309  0
H  H12  1  0.53775303  0.39629316  0.88563981  1  0.113674  0  0.10701  0.110042  0  1.013879  0
H  H13  1  0.53786148  0.39148254  0.73953566  1  0.098138  0  0.104439  0.113002  0  0.992798  0
H  H14  1  0.77636920  0.55912159  0.37691304  1  0.085007  0  0.108858  0.136663  0  1.002701  0
H  H15  1  0.23077462  0.57214545  0.38545758  1  0.06924  0  0.105629  0.128833  0  1.015719  0
C  C16  1  0.48755068  0.49153761  0.35155647  1  1.587589  0  0.212557  0.601888  0  4.162954  0
C  C17  1  0.26374236  0.51095488  0.50877981  1  1.600685  0  0.212296  0.609271  0  4.196498  0
C  C18  1  0.50499926  0.51004823  0.65500569  1  1.608563  0  0.208433  0.594174  0  4.189399  0
C  C19  1  0.73282578  0.50479079  0.50432790  1  1.624087  0  0.214136  0.610712  0  4.181644  0
C  C20  1  0.45652782  0.75428213  0.46973036  1  0.472232  0  0.065159  0.139069  0  3.883306  0
C  C21  1  0.45214205  0.83971850  0.46645149  1  0.02789  0  -0.072966  -0.192533  0  3.906209  0
C  C22  1  0.54051465  0.90336425  0.51426823  1  0.229196  0  0.108872  0.22032  0  4.022482  0
C  C23  1  0.62889826  0.87878738  0.56242809  1  0.064292  0  -0.06814  -0.238431  0  3.88234  0
C  C24  1  0.62546997  0.79073848  0.56204127  1  0.676714  0  0.158345  0.298831  0  4.047089  0
C  C25  1  0.37633398  0.12873671  0.43900612  1  0.088408  0  -0.069657  -0.241825  0  3.886332  0
C  C26  1  0.46942854  0.10448505  0.48362824  1  0.317613  0  0.108811  0.220187  0  4.025441  0
C  C27  1  0.55981503  0.16838092  0.52953241  1  -0.048523  0  -0.072706  -0.191419  0  3.903941  0
C  C28  1  0.55178514  0.25383639  0.52892072  1  0.48114  0  0.065846  0.1417  0  3.870968  0
C  C29  1  0.37614073  0.21673039  0.44194615  1  0.632508  0  0.159833  0.301297  0  4.047497  0
C  C30  1  0.49629033  0.48407465  0.26428613  1  -0.045067  0  -0.017704  -0.091043  0  3.899636  0
C  C31  1  0.47910703  0.55587244  0.22950421  1  -0.037751  0  -0.083857  -0.07146  0  4.002467  0
C  C32  1  0.48268481  0.55573572  0.14958945  1  0.025126  0  -0.089414  -0.150459  0  3.960176  0
C  C33  1  0.50538659  0.48144007  0.10100189  1  0.365628  0  0.090055  0.192819  0  4.046659  0
C  C34  1  0.52487660  0.40980682  0.13393869  1  -0.039348  0  -0.085496  -0.213371  0  3.933713  0
C  C35  1  0.52044056  0.41052137  0.21463613  1  0.082729  0  0.023849  0.155005  0  3.994763  0
C  C36  1  0.47237627  0.59513644  0.87219772  1  -0.045936  0  -0.083889  -0.207955  0  3.926696  0
C  C37  1  0.49591307  0.52501714  0.90624158  1  0.380154  0  0.088915  0.190618  0  4.042694  0
C  C38  1  0.52036225  0.45063836  0.85855635  1  0.000921  0  -0.087389  -0.148923  0  3.958016  0
C  C39  1  0.52087863  0.44855784  0.77820571  1  -0.084985  0  -0.081275  -0.06925  0  3.978425  0
C  C40  1  0.49943986  0.51883257  0.74250878  1  0.024573  0  -0.015499  -0.081193  0  3.904636  0
C  C41  1  0.47424244  0.59252108  0.79114225  1  0.065501  0  0.020556  0.147056  0  4.008635  0
C  C42  1  0.87000187  0.50707998  0.50693339  1  0.045819  0  -0.014  -0.100698  0  3.918777  0
C  C43  1  0.93568856  0.53558770  0.44409733  1  -0.013543  0  0.000287  0.07826  0  3.959178  0
C  C44  1  0.93287526  0.48404398  0.56946210  1  -0.039245  0  -0.019528  0.038385  0  3.952725  0
C  C45  1  0.87554244  0.56136116  0.37956025  1  0.020376  0  -0.09301  -0.162175  0  3.932624  0
C  C46  1  0.94108050  0.59154795  0.32079793  1  -0.00459  0  -0.025089  0.059988  0  3.990682  0
C  C47  1  0.12738227  0.51147373  0.50973660  1  0.116891  0  -0.013498  -0.094063  0  3.922876  0
C  C48  1  0.06231741  0.48620317  0.57090875  1  -0.091324  0  -0.01924  0.035567  0  3.960023  0
C  C49  1  0.06609703  0.53844689  0.44594250  1  0.027018  0  0.000132  0.077943  0  3.966092  0
C  C50  1  0.13132219  0.56907128  0.38441247  1  0.058696  0  -0.096573  -0.174212  0  3.944892  0
C  C51  1  0.07098336  0.59651074  0.32385695  1  -0.135395  0  -0.025006  0.063976  0  3.989998  0
Br  Br52  1  0.14951922  0.45730543  0.65761690  1  -0.019559  0  0.034088  -0.031139  0  1.497261  0
Br  Br53  1  0.84613925  0.45315781  0.65599132  1  -0.038798  0  0.028534  -0.044184  0  1.491141  0
Br  Br54  1  0.85300492  0.62545540  0.23730252  1  -0.044498  0  0.016056  -0.061084  0  1.408241  0
Br  Br55  1  0.16580944  0.64155234  0.24630810  1  -0.055522  0  0.015167  -0.067724  0  1.412442  0
N  N56  1  0.54135672  0.72968430  0.51676457  1  -1.223652  0  -0.307897  -0.245631  0  3.445347  0
N  N57  1  0.54863622  0.99379675  0.51867712  1  -0.422748  0  -0.12641  -0.109749  0  3.215289  0
N  N58  1  0.46258130  0.01409148  0.47854865  1  -0.414089  0  -0.125811  -0.108317  0  3.216263  0
N  N59  1  0.46123962  0.27801887  0.48610759  1  -1.218463  0  -0.308601  -0.246407  0  3.440219  0
N  N60  1  0.51059772  0.47124547  0.01854768  1  -0.462857  0  -0.148102  -0.131952  0  3.268199  0
N  N61  1  0.49141201  0.53588419  0.98880710  1  -0.491544  0  -0.146425  -0.133243  0  3.265357  0
Cl  Cl62  1  0.73151477  0.75901359  0.62146719  1  -0.121318  0  0.051917  -0.017457  0  1.481745  0
Cl  Cl63  1  0.26334714  0.24835092  0.38773488  1  -0.130065  0  0.049424  -0.020939  0  1.477363  0
Cl  Cl64  1  0.54916384  0.31812315  0.24722195  1  -0.196849  0  -0.025268  -0.083587  0  1.488722  0
Cl  Cl65  1  0.43895318  0.68140320  0.75524144  1  -0.199545  0  -0.022885  -0.082057  0  1.493279  0
O  O66  1  0.47854590  0.42283357  0.38054001  1  -1.15726  0  -0.316062  -0.546342  0  2.438298  0
O  O67  1  0.48931552  0.56709656  0.39032553  1  -1.171941  0  -0.322188  -0.561882  0  2.316963  0
O  O68  1  0.33410639  0.58426702  0.52059862  1  -1.163291  0  -0.311831  -0.543337  0  2.325813  0
O  O69  1  0.29444973  0.43753440  0.49371147  1  -1.150508  0  -0.313694  -0.54761  0  2.366517  0
O  O70  1  0.53643885  0.57844690  0.62689475  1  -1.159104  0  -0.316225  -0.55143  0  2.42876  0
O  O71  1  0.47929615  0.43337778  0.61606444  1  -1.163552  0  -0.320671  -0.554382  0  2.336015  0
O  O72  1  0.66420010  0.43230722  0.50222472  1  -1.178169  0  -0.309526  -0.545313  0  2.356937  0
O  O73  1  0.69891089  0.57677449  0.50255858  1  -1.156664  0  -0.313303  -0.54561  0  2.362463  0
