# generated using pymatgen
data_CuH22C16N2O7
_symmetry_space_group_name_H-M   'P 1'
_cell_length_a   8.79334123
_cell_length_b   9.94120995
_cell_length_c   10.44685228
_cell_angle_alpha   75.15543012
_cell_angle_beta   81.51055851
_cell_angle_gamma   85.96208406
_symmetry_Int_Tables_number   1
_chemical_formula_structural   CuH22C16N2O7
_chemical_formula_sum   'Cu2 H44 C32 N4 O14'
_cell_volume   872.56748911
_cell_formula_units_Z   2
loop_
 _symmetry_equiv_pos_site_id
 _symmetry_equiv_pos_as_xyz
  1  'x, y, z'
loop_
 _atom_site_type_symbol
 _atom_site_label
 _atom_site_symmetry_multiplicity
 _atom_site_fract_x
 _atom_site_fract_y
 _atom_site_fract_z
 _atom_site_occupancy
 _atom_site_hle17_ddec_charge
 _atom_site_hle17_ddec_spin_density
 _atom_site_hle17_ddec_sum_bond_order
 _atom_site_hle17_magmom
 _atom_site_hse06_10hf_ddec_charge
 _atom_site_hse06_10hf_ddec_spin_density
 _atom_site_hse06_10hf_ddec_sum_bond_order
 _atom_site_hse06_10hf_magmom
 _atom_site_hse06_ddec_charge
 _atom_site_hse06_ddec_spin_density
 _atom_site_hse06_ddec_sum_bond_order
 _atom_site_hse06_magmom
 _atom_site_pbe_cm5_charge
 _atom_site_pbe_ddec_charge
 _atom_site_pbe_ddec_spin_density
 _atom_site_pbe_ddec_sum_bond_order
 _atom_site_pbe_magmom
Cu  Cu0  1  0.44239951  0.90576508  0.45892163  1  0.818037  -0.666413  1.938432  -0.479  0.806798  -0.797941  2.351677  -0.63  0.911283  -0.888505  2.265099  -0.731  0.670006  0.739365  -0.695819  2.412572  -0.537
Cu  Cu1  1  0.55760173  0.09424222  0.54107807  1  0.818146  0.66642  1.938336  0.479  0.806939  0.797938  2.351518  0.63  0.911431  0.888513  2.265008  0.731  0.670028  0.739506  0.695811  2.412387  0.537
H  H2  1  0.42563954  0.58877697  0.49836184  1  0.070819  7.7e-05  0.957994  0.0  0.080237  7.6e-05  1.024801  0.0  0.082775  7.1e-05  1.022247  0.0  0.115368  0.078032  6.7e-05  1.027397  0.0
H  H3  1  0.57436771  0.41122408  0.50163480  1  0.070739  -6.7e-05  0.958095  0.0  0.080191  -7.6e-05  1.02487  0.0  0.082727  -7.1e-05  1.022314  0.0  0.115361  0.077952  -6.7e-05  1.0275  0.0
H  H4  1  0.32763957  0.41859797  0.39153696  1  0.119767  1.2e-05  0.9522  0.0  0.130024  2.3e-05  1.011894  0.0  0.134555  -2e-06  1.009687  0.0  0.108899  0.126493  3.5e-05  1.014035  0.0
H  H5  1  0.67235943  0.58140828  0.60845943  1  0.11975  -2.4e-05  0.95217  0.0  0.129955  -2.3e-05  1.011911  0.0  0.134473  2e-06  1.009718  0.0  0.108867  0.126425  -3.5e-05  1.014055  0.0
H  H6  1  0.14830852  0.77345692  0.11188398  1  0.12526  4.2e-05  0.938521  0.0  0.132001  2.1e-05  1.001435  0.0  0.136734  1.6e-05  0.998583  0.0  0.11688  0.128437  1.4e-05  1.003926  0.0
H  H7  1  0.85168920  0.22655245  0.88811756  1  0.125263  -4.4e-05  0.938461  0.0  0.132002  -2e-05  1.001378  0.0  0.136734  -1.6e-05  0.998529  0.0  0.116912  0.128452  -1.4e-05  1.003852  0.0
H  H8  1  0.26170992  0.92604347  0.22856963  1  0.082223  4.7e-05  0.95817  0.0  0.088978  4.9e-05  1.025149  0.0  0.092488  5.4e-05  1.021732  0.0  0.118368  0.086386  3.9e-05  1.027877  0.0
H  H9  1  0.73829252  0.07396278  0.77143305  1  0.082223  -4.6e-05  0.95805  0.0  0.088974  -4.9e-05  1.025044  0.0  0.092484  -5.4e-05  1.021625  0.0  0.11833  0.086381  -3.9e-05  1.027771  0.0
H  H10  1  0.02893314  0.37251552  0.03114740  1  0.085838  1e-06  0.956468  0.0  0.093014  -5e-06  1.031372  0.0  0.094803  -3e-06  1.029862  0.0  0.110468  0.091546  -2e-06  1.032629  0.0
H  H11  1  0.97107422  0.62748241  0.96885478  1  0.085866  -7e-06  0.956418  0.0  0.093054  5e-06  1.031321  0.0  0.094842  4e-06  1.02981  0.0  0.110473  0.091587  2e-06  1.032578  0.0
H  H12  1  0.88112499  0.30837609  0.16486775  1  0.075719  9e-06  0.944108  0.0  0.095138  1.1e-05  1.003296  0.0  0.095703  1e-06  1.003198  0.0  0.111141  0.09461  1.8e-05  1.003274  0.0
H  H13  1  0.11888131  0.69161975  0.83513123  1  0.075707  -1e-05  0.944133  0.0  0.095152  -1.1e-05  1.003317  0.0  0.095716  -0.0  1.003223  0.0  0.111145  0.094626  -1.8e-05  1.003292  0.0
H  H14  1  0.98662080  0.50934900  0.37529231  1  0.065521  2.5e-05  0.959118  0.0  0.080852  2.8e-05  1.028328  0.0  0.080611  2e-05  1.029624  0.0  0.106196  0.081031  3.3e-05  1.02715  0.0
H  H15  1  0.01337748  0.49064579  0.62471269  1  0.065518  -2.5e-05  0.95912  0.0  0.080846  -2.8e-05  1.028325  0.0  0.080605  -2e-05  1.029621  0.0  0.106201  0.081025  -3.3e-05  1.027147  0.0
H  H16  1  0.87887298  0.36282544  0.38041055  1  0.083855  -2e-06  0.927798  0.0  0.102086  -4e-06  0.988188  0.0  0.101769  -7e-06  0.989504  0.0  0.113706  0.102053  -2e-06  0.987664  0.0
H  H17  1  0.12112645  0.63716935  0.61959240  1  0.083885  2e-06  0.927718  0.0  0.102091  5e-06  0.988147  0.0  0.101775  7e-06  0.989464  0.0  0.113711  0.102056  2e-06  0.987626  0.0
H  H18  1  0.74006311  0.50423952  0.19595799  1  0.061521  5.5e-05  0.928634  0.0  0.075639  5.8e-05  0.993837  0.0  0.077013  3.2e-05  0.99244  0.0  0.102603  0.074823  7.5e-05  0.993941  0.0
H  H19  1  0.25993973  0.49575633  0.80404333  1  0.06157  -4.6e-05  0.92863  0.0  0.075757  -5.7e-05  0.993772  0.0  0.077132  -3.2e-05  0.992373  0.0  0.102606  0.074921  -7.5e-05  0.993895  0.0
H  H20  1  0.71579196  0.57409627  0.33935392  1  0.046391  -4.4e-05  0.944647  0.0  0.059756  -5.5e-05  1.015231  0.0  0.059498  -2.8e-05  1.015498  0.0  0.09529  0.059694  -7.7e-05  1.015603  0.0
H  H21  1  0.28420740  0.42590061  0.66064661  1  0.046396  4.9e-05  0.944634  0.0  0.059739  5.5e-05  1.015259  0.0  0.059477  2.8e-05  1.015525  0.0  0.095281  0.059677  7.7e-05  1.015626  0.0
H  H22  1  0.65394232  0.79518685  0.18400991  1  0.065857  1.7e-05  0.926648  0.0  0.079611  2e-06  0.991299  0.0  0.079731  1.4e-05  0.991732  0.0  0.099399  0.079517  -3e-06  0.990905  0.0
H  H23  1  0.34605828  0.20480796  0.81599002  1  0.065841  -1.9e-05  0.926619  0.0  0.07958  -2e-06  0.991288  0.0  0.079697  -1.4e-05  0.991722  0.0  0.099384  0.079487  3e-06  0.990896  0.0
H  H24  1  0.69607391  0.71030858  0.05026390  1  0.0559  -2.4e-05  0.968169  0.0  0.067412  -3.6e-05  1.038684  0.0  0.06828  -2.3e-05  1.038263  0.0  0.098431  0.067031  -3.6e-05  1.038098  0.0
H  H25  1  0.30393017  0.28968519  0.94973585  1  0.055906  2e-05  0.968218  0.0  0.067419  3.5e-05  1.038706  0.0  0.068286  2.3e-05  1.038283  0.0  0.098426  0.067037  3.6e-05  1.038119  0.0
H  H26  1  0.92986820  0.71265074  0.47389925  1  0.127967  0.000811  0.954661  0.001  0.145053  0.000577  1.020331  0.001  0.146574  0.000394  1.020946  0.0  0.094146  0.144094  0.000635  1.019601  0.001
H  H27  1  0.07012447  0.28734093  0.52610049  1  0.127892  -0.000809  0.954679  -0.001  0.144975  -0.000577  1.020353  -0.001  0.146495  -0.000394  1.020971  0.0  0.094129  0.144015  -0.000635  1.019623  -0.001
H  H28  1  0.01631191  0.87382967  0.46839432  1  0.147582  -0.001538  0.955367  -0.001  0.161317  -0.001129  1.021111  -0.001  0.164363  -0.00077  1.019493  -0.001  0.096048  0.158579  -0.001031  1.023132  -0.001
H  H29  1  0.98367847  0.12616201  0.53160187  1  0.147604  0.001538  0.95538  0.001  0.161331  0.00113  1.021114  0.001  0.164378  0.00077  1.019496  0.001  0.096051  0.158588  0.001031  1.023144  0.001
H  H30  1  0.95419656  0.84228033  0.32306702  1  0.148357  0.000383  0.948229  0.0  0.162988  0.000274  1.012144  0.0  0.165328  0.000181  1.011823  0.0  0.103356  0.161403  0.000294  1.012271  0.0
H  H31  1  0.04580301  0.15771135  0.67692996  1  0.148324  -0.000386  0.94828  0.0  0.162988  -0.000275  1.012162  0.0  0.16533  -0.00018  1.011839  0.0  0.103348  0.161404  -0.000295  1.012291  0.0
H  H32  1  0.32290719  0.69916051  0.90385314  1  0.138172  0.000962  0.971905  0.001  0.151612  0.000616  1.039247  0.001  0.153993  0.000412  1.038551  0.001  0.094731  0.149906  0.000714  1.039325  0.001
H  H33  1  0.67708856  0.30084053  0.09614970  1  0.138156  -0.000953  0.971912  -0.001  0.151591  -0.000616  1.03927  -0.001  0.153971  -0.000412  1.038574  -0.001  0.094738  0.149888  -0.000714  1.039346  -0.001
H  H34  1  0.44345904  0.81142900  0.95101499  1  0.130145  -0.001296  0.948886  -0.002  0.146886  -0.000923  1.010905  -0.001  0.148188  -0.000627  1.011341  -0.001  0.093481  0.145736  -0.001044  1.010299  -0.001
H  H35  1  0.55653901  0.18857205  0.04898374  1  0.130139  0.001308  0.948875  0.002  0.146914  0.000923  1.010863  0.001  0.148217  0.000627  1.011299  0.001  0.093492  0.145763  0.001044  1.010262  0.001
H  H36  1  0.52242771  0.66596475  0.88964684  1  0.16079  0.000344  0.951395  0.0  0.174332  0.000212  1.015642  0.0  0.177495  0.000142  1.014099  0.0  0.103138  0.172176  0.000246  1.015994  0.0
H  H37  1  0.47757118  0.33404463  0.11034593  1  0.160792  -0.000335  0.951395  0.0  0.174323  -0.000212  1.015653  0.0  0.177486  -0.000141  1.01411  0.0  0.103121  0.172167  -0.000246  1.016004  0.0
H  H38  1  0.21771510  0.20167401  0.16378750  1  0.056579  2.1e-05  0.946895  0.0  0.070608  1.3e-05  1.014576  0.0  0.070655  1.9e-05  1.014873  0.0  0.102073  0.070924  -1e-06  1.013317  0.0
H  H39  1  0.78228890  0.79832183  0.83621272  1  0.056572  -2.7e-05  0.946837  0.0  0.070617  -1.3e-05  1.01451  0.0  0.070667  -1.9e-05  1.0148  0.0  0.102063  0.070931  1e-06  1.013252  0.0
H  H40  1  0.05453775  0.12501024  0.27304192  1  0.06162  -2.2e-05  0.922662  0.0  0.080242  -1.7e-05  0.980029  0.0  0.080422  -9e-06  0.980252  0.0  0.100865  0.079639  -1.4e-05  0.980575  0.0
H  H41  1  0.94546965  0.87498665  0.72695954  1  0.061651  1.8e-05  0.922686  0.0  0.080249  1.7e-05  0.980056  0.0  0.08043  9e-06  0.980279  0.0  0.100879  0.079643  1.4e-05  0.980603  0.0
H  H42  1  0.86110408  0.96090558  0.08441059  1  0.078077  9e-06  0.938354  0.0  0.090397  1e-05  1.002069  0.0  0.091585  9e-06  1.000887  0.0  0.107969  0.089418  9e-06  1.003126  0.0
H  H43  1  0.13889646  0.03909026  0.91559101  1  0.078124  -1e-05  0.938348  0.0  0.090457  -1e-05  1.002066  0.0  0.091648  -8e-06  1.000882  0.0  0.107992  0.089478  -9e-06  1.003126  0.0
H  H44  1  0.71413332  0.96705460  0.98170344  1  0.042061  1e-05  0.936001  0.0  0.057811  1.4e-05  1.003186  0.0  0.057896  8e-06  1.002443  0.0  0.095558  0.057559  2e-05  1.004061  0.0
H  H45  1  0.28586842  0.03294020  0.01829731  1  0.042013  -1.1e-05  0.936052  0.0  0.057776  -1.4e-05  1.003259  0.0  0.057861  -8e-06  1.002518  0.0  0.095553  0.057522  -2e-05  1.004132  0.0
C  C46  1  0.36568912  0.62411949  0.41086806  1  0.117575  0.000555  3.737704  0.001  0.09195  0.000472  3.996096  0.0  0.099499  0.000434  4.013509  0.0  0.042649  0.086534  0.000477  3.985443  0.0
C  C47  1  0.63431349  0.37588260  0.58913081  1  0.117714  -0.000687  3.737627  -0.001  0.092056  -0.000471  3.995998  0.0  0.09961  -0.000439  4.0134  0.0  0.042712  0.086665  -0.000477  3.985354  0.0
C  C48  1  0.30924670  0.53045878  0.35207824  1  -0.155727  -0.000544  3.706966  -0.001  -0.172799  -0.000262  3.946223  0.0  -0.178462  -0.000252  3.963427  0.0  -0.083599  -0.168694  -0.000146  3.93419  0.0
C  C49  1  0.69075119  0.46954643  0.64791950  1  -0.155703  0.00068  3.706756  0.001  -0.172757  0.000261  3.945983  0.0  -0.178409  0.000256  3.963189  0.0  -0.083551  -0.168652  0.000146  3.933941  0.0
C  C50  1  0.22978548  0.58371011  0.24205944  1  0.026293  0.000696  3.744709  0.001  0.044319  0.000471  3.976286  0.0  0.047012  0.00039  3.992638  0.0  0.012781  0.042127  0.00045  3.964513  0.0
C  C51  1  0.77021471  0.41629510  0.75793706  1  0.026169  -0.000778  3.74472  -0.001  0.044312  -0.000471  3.976131  0.0  0.047007  -0.000394  3.99248  0.0  0.012798  0.042127  -0.00045  3.964355  0.0
C  C52  1  0.21206131  0.72813854  0.19539052  1  -0.131506  -0.000767  3.695193  -0.001  -0.150996  -0.00037  3.940549  0.0  -0.155759  -0.000314  3.956807  0.0  -0.07258  -0.148287  -0.000163  3.930122  0.0
C  C53  1  0.78793649  0.27186874  0.80460960  1  -0.131404  0.00085  3.695313  0.001  -0.150933  0.000369  3.940664  0.0  -0.1557  0.000318  3.956925  0.0  -0.072549  -0.148235  0.000163  3.930227  0.0
C  C54  1  0.27346751  0.81305070  0.26043431  1  0.130138  0.000494  3.70059  0.0  0.106585  0.000398  3.954427  0.0  0.114611  0.000393  3.969945  0.0  0.051733  0.101215  0.000394  3.944702  0.0
C  C55  1  0.72653378  0.18695555  0.73956563  1  0.130086  -0.000572  3.700513  -0.001  0.10653  -0.000397  3.954355  0.0  0.114553  -0.000397  3.969879  0.0  0.051724  0.101163  -0.000394  3.944631  0.0
C  C56  1  0.17922943  0.48800888  0.16735277  1  0.476422  -6.5e-05  3.831501  0.0  0.424684  -1.9e-05  4.122849  0.0  0.453133  -1.6e-05  4.121802  0.0  0.24394  0.405446  7e-06  4.123353  0.0
C  C57  1  0.82076504  0.51199528  0.83265043  1  0.476415  6.7e-05  3.831659  0.0  0.424651  1.7e-05  4.122966  0.0  0.4531  1.9e-05  4.121918  0.0  0.243841  0.405403  -7e-06  4.123484  0.0
C  C58  1  0.00486147  0.32534343  0.13888078  1  -0.033834  -2.9e-05  3.635625  0.0  -0.099343  -0.0  3.900568  0.0  -0.094506  -3e-06  3.909741  0.0  -0.066871  -0.102889  3e-06  3.894812  0.0
C  C59  1  0.99514597  0.67465242  0.86112093  1  -0.033773  3.7e-05  3.635538  0.0  -0.099342  2e-06  3.900501  0.0  -0.094516  1e-06  3.909693  0.0  -0.066827  -0.102881  -3e-06  3.894714  0.0
C  C60  1  0.92928408  0.45848374  0.31472651  1  -0.031177  -2e-05  3.686179  0.0  -0.10296  -1e-05  3.959887  0.0  -0.098589  -7e-06  3.972139  0.0  -0.061354  -0.106227  1.7e-05  3.95215  0.0
C  C61  1  0.07071532  0.54151210  0.68527619  1  -0.031145  2.5e-05  3.686011  0.0  -0.102891  9e-06  3.959689  0.0  -0.098524  8e-06  3.971944  0.0  -0.061332  -0.10616  -1.7e-05  3.951945  0.0
C  C62  1  0.80035785  0.55404960  0.25643420  1  0.062528  -4.8e-05  3.655809  0.0  0.003181  -2.1e-05  3.931938  0.0  0.009596  -1.2e-05  3.93763  0.0  -0.073674  -0.001039  3e-06  3.92774  0.0
C  C63  1  0.19964273  0.44594520  0.74356860  1  0.062376  1.5e-05  3.655787  0.0  0.002979  2.2e-05  3.932003  0.0  0.009402  1.1e-05  3.93769  0.0  -0.073703  -0.001221  -3e-06  3.927792  0.0
C  C64  1  0.74648584  0.76827537  0.10981536  1  0.029757  -4.4e-05  3.672224  0.0  -0.02843  -4.6e-05  3.942866  0.0  -0.022618  -1.9e-05  3.948917  0.0  -0.082201  -0.032064  -5e-05  3.938127  0.0
C  C65  1  0.25351713  0.23171734  0.89018766  1  0.029653  5.3e-05  3.672214  0.0  -0.028458  4.5e-05  3.94284  0.0  -0.022643  2e-05  3.948887  0.0  -0.082201  -0.032093  5e-05  3.938107  0.0
C  C66  1  0.76998207  0.88686684  0.46313730  1  0.737042  -0.000251  3.810643  0.0  0.712432  -0.00017  4.09768  0.0  0.753483  -0.000181  4.090174  0.0  0.215572  0.684075  -0.000175  4.101807  0.0
C  C67  1  0.23001382  0.11313109  0.53685862  1  0.737152  0.000247  3.810556  0.0  0.712504  0.000173  4.097644  0.0  0.75356  0.000185  4.090133  0.0  0.215588  0.684145  0.000174  4.101772  0.0
C  C68  1  0.92873011  0.82568484  0.43198979  1  -0.450183  0.00108  3.628524  0.001  -0.5272  0.000586  3.860817  0.001  -0.536364  0.000364  3.8634  0.001  -0.246223  -0.519165  0.00023  3.858387  0.0
C  C69  1  0.07126380  0.17430476  0.56800648  1  -0.45015  -0.001075  3.628522  -0.001  -0.527171  -0.000588  3.860832  -0.001  -0.536339  -0.000365  3.863414  -0.001  -0.246211  -0.519133  -0.000229  3.858403  0.0
C  C70  1  0.45337194  0.84004864  0.73861866  1  0.736198  0.000743  3.809909  0.001  0.710375  0.000451  4.10103  0.001  0.751669  0.000478  4.093818  0.001  0.209282  0.68234  0.000386  4.104989  0.001
C  C71  1  0.54662586  0.15995865  0.26138337  1  0.736054  -0.000733  3.810001  -0.001  0.710295  -0.000451  4.101052  -0.001  0.751588  -0.000478  4.093845  -0.001  0.209229  0.682264  -0.000388  4.105008  -0.001
C  C72  1  0.43344224  0.75012917  0.87952724  1  -0.455334  -5.1e-05  3.640152  0.0  -0.531459  1.8e-05  3.874388  0.0  -0.540802  -5e-06  3.876799  0.0  -0.24871  -0.523189  9.4e-05  3.870579  0.0
C  C73  1  0.56655224  0.24987500  0.12047117  1  -0.455282  3e-06  3.640037  0.0  -0.53143  -1.9e-05  3.874233  0.0  -0.540771  5e-06  3.876644  0.0  -0.248704  -0.523162  -9.2e-05  3.870421  0.0
C  C74  1  0.09398834  0.18523251  0.17084760  1  0.067492  1.1e-05  3.622631  0.0  0.009582  -1.3e-05  3.892432  0.0  0.01595  1e-06  3.898397  0.0  -0.070446  0.004947  -1.1e-05  3.88864  0.0
C  C75  1  0.90601782  0.81476646  0.82915447  1  0.067359  1.5e-05  3.622605  0.0  0.009484  1e-05  3.892334  0.0  0.01586  -0.0  3.898303  0.0  -0.070487  0.004861  1.1e-05  3.888537  0.0
C  C76  1  0.81205101  0.90380627  0.02398478  1  0.055825  3.5e-05  3.657323  0.0  -0.007012  2.4e-05  3.936149  0.0  -0.000156  1.6e-05  3.94149  0.0  -0.075419  -0.011603  1.1e-05  3.932627  0.0
C  C77  1  0.18795076  0.09618748  0.97601717  1  0.055958  -3.3e-05  3.657386  0.0  -0.006951  -2.1e-05  3.936273  0.0  -0.000104  -1.8e-05  3.941615  0.0  -0.075389  -0.011538  -1.1e-05  3.932745  0.0
N  N78  1  0.34866213  0.76266444  0.36660035  1  -0.304655  0.001125  3.247549  0.0  -0.258758  0.000631  3.531869  0.0  -0.278868  0.000643  3.546278  0.0  -0.340601  -0.246353  0.000673  3.524055  0.0
N  N79  1  0.65134261  0.23734182  0.63339917  1  -0.304655  -0.001046  3.247432  0.0  -0.258757  -0.000631  3.531771  0.0  -0.278871  -0.000639  3.546195  0.0  -0.340646  -0.246349  -0.000673  3.523937  0.0
N  N80  1  0.04538628  0.42119239  0.21304612  1  -0.200279  3.2e-05  3.39976  0.0  -0.11302  1.2e-05  3.640525  0.0  -0.134209  6e-06  3.662373  0.0  -0.275333  -0.098784  2.2e-05  3.625883  0.0
N  N81  1  0.95461303  0.57880552  0.78695800  1  -0.200376  -3.5e-05  3.399791  0.0  -0.113127  -1.2e-05  3.640585  0.0  -0.134315  -8e-06  3.662436  0.0  -0.275402  -0.098887  -2.2e-05  3.625948  0.0
O  O82  1  0.65780487  0.82469476  0.44144252  1  -0.594479  -0.073228  2.050402  -0.096  -0.572669  -0.050745  2.325502  -0.073  -0.617229  -0.040419  2.318189  -0.062  -0.322217  -0.542658  -0.053242  2.331003  -0.074
O  O83  1  0.34219216  0.17530317  0.55855326  1  -0.594505  0.07323  2.05036  0.096  -0.572672  0.050744  2.325482  0.073  -0.617235  0.040414  2.31818  0.062  -0.322189  -0.542663  0.053244  2.330981  0.074
O  O84  1  0.76048317  0.99675197  0.50574150  1  -0.590892  0.073213  2.06168  0.096  -0.566391  0.050878  2.332864  0.073  -0.61039  0.040646  2.325121  0.062  -0.318583  -0.535606  0.054973  2.338113  0.076
O  O85  1  0.23951260  0.00324909  0.49424984  1  -0.590919  -0.073226  2.061731  -0.096  -0.566423  -0.050887  2.332937  -0.073  -0.610415  -0.040655  2.325163  -0.062  -0.318618  -0.535631  -0.054979  2.338184  -0.076
O  O86  1  0.41071165  0.79084052  0.64851018  1  -0.58597  -0.082138  2.020058  -0.108  -0.564187  -0.056038  2.289024  -0.081  -0.609461  -0.044065  2.281639  -0.068  -0.324155  -0.534948  -0.05868  2.294395  -0.081
O  O87  1  0.58928368  0.20917093  0.35149019  1  -0.58597  0.082143  2.020079  0.108  -0.564217  0.056043  2.289008  0.081  -0.60949  0.044066  2.28164  0.068  -0.324148  -0.534979  0.058687  2.294372  0.081
O  O88  1  0.26649529  0.46999965  0.06723632  1  -0.533264  0.000179  1.947383  0.0  -0.485291  0.00017  2.169231  0.0  -0.506977  0.000109  2.16505  0.0  -0.281859  -0.470193  0.000273  2.171326  0.0
O  O89  1  0.73350247  0.53000869  0.93276259  1  -0.533211  -0.000181  1.947583  0.0  -0.485211  -0.000169  2.169382  0.0  -0.506895  -0.00011  2.165202  0.0  -0.281775  -0.470115  -0.000273  2.171491  0.0
O  O90  1  0.86261261  0.68158300  0.17665269  1  -0.306467  -1e-05  2.258945  0.0  -0.233253  -1.3e-05  2.509896  0.0  -0.249151  -7e-06  2.512681  0.0  -0.231705  -0.222301  2.8e-05  2.507561  0.0
O  O91  1  0.13738917  0.31841075  0.82335118  1  -0.30642  1.6e-05  2.258829  0.0  -0.233244  1.3e-05  2.509807  0.0  -0.249142  8e-06  2.512589  0.0  -0.231743  -0.222292  -2.8e-05  2.507469  0.0
O  O92  1  0.06514596  0.10568319  0.08100037  1  -0.312817  -3e-06  2.213522  0.0  -0.243762  -6e-06  2.465807  0.0  -0.259469  -4e-06  2.466456  0.0  -0.236753  -0.232558  -3e-06  2.464637  0.0
O  O93  1  0.93486025  0.89431473  0.91900194  1  -0.312786  -4e-06  2.213454  0.0  -0.243753  6e-06  2.465701  0.0  -0.259475  4e-06  2.466354  0.0  -0.236775  -0.232552  3e-06  2.464529  0.0
O  O94  1  0.51342701  0.95792032  0.71986177  1  -0.600774  0.073461  2.059829  0.096  -0.578415  0.050668  2.334136  0.073  -0.623722  0.039833  2.326531  0.061  -0.321782  -0.548627  0.053711  2.339447  0.074
O  O95  1  0.48656722  0.04209009  0.28013899  1  -0.60068  -0.07346  2.060018  -0.096  -0.578352  -0.050663  2.334311  -0.073  -0.623659  -0.039832  2.326692  -0.061  -0.321752  -0.548563  -0.053704  2.339626  -0.074
