# generated using pymatgen
data_Er2CuH26C22(NO11)2
_symmetry_space_group_name_H-M   'P 1'
_cell_length_a   6.24123568
_cell_length_b   8.77445552
_cell_length_c   13.45030300
_cell_angle_alpha   88.02240210
_cell_angle_beta   85.68846906
_cell_angle_gamma   88.15070783
_symmetry_Int_Tables_number   1
_chemical_formula_structural   Er2CuH26C22(NO11)2
_chemical_formula_sum   'Er2 Cu1 H26 C22 N2 O22'
_cell_volume   733.73740219
_cell_formula_units_Z   1
loop_
 _symmetry_equiv_pos_site_id
 _symmetry_equiv_pos_as_xyz
  1  'x, y, z'
loop_
 _atom_site_type_symbol
 _atom_site_label
 _atom_site_symmetry_multiplicity
 _atom_site_fract_x
 _atom_site_fract_y
 _atom_site_fract_z
 _atom_site_occupancy
 _atom_site_hle17_ddec_charge
 _atom_site_hle17_ddec_spin_density
 _atom_site_hle17_ddec_sum_bond_order
 _atom_site_hle17_magmom
 _atom_site_hse06_10hf_ddec_charge
 _atom_site_hse06_10hf_ddec_spin_density
 _atom_site_hse06_10hf_ddec_sum_bond_order
 _atom_site_hse06_10hf_magmom
 _atom_site_hse06_ddec_charge
 _atom_site_hse06_ddec_spin_density
 _atom_site_hse06_ddec_sum_bond_order
 _atom_site_hse06_magmom
 _atom_site_pbe_cm5_charge
 _atom_site_pbe_ddec_charge
 _atom_site_pbe_ddec_spin_density
 _atom_site_pbe_ddec_sum_bond_order
 _atom_site_pbe_magmom
Er  Er0  1  0.39228973  0.66468373  0.10210706  1  2.268957  -7e-05  1.533241  0.0  2.116742  -5.9e-05  2.002707  0.0  2.256089  -2.7e-05  1.794621  0.0  1.474071  2.080437  -8.9e-05  2.031641  0.0
Er  Er1  1  0.60771334  0.33532043  0.89789417  1  2.268999  -6.9e-05  1.533284  0.0  2.116747  -6e-05  2.002778  0.0  2.256112  -2.9e-05  1.794655  0.0  1.474086  2.080457  -8.8e-05  2.031735  0.0
Cu  Cu2  1  0.99999404  0.99999947  0.50000216  1  0.840594  -0.697364  1.866857  -0.516  0.805653  -0.776973  2.273183  -0.623  0.892992  -0.838798  2.204464  -0.703  0.757697  0.751398  -0.732648  2.321345  -0.569
H  H3  1  0.07561278  0.78514093  0.24503917  1  0.431791  -5.2e-05  0.871712  0.0  0.403233  -4e-05  0.930698  0.0  0.415324  -3.8e-05  0.913444  0.0  0.294514  0.394726  -4.2e-05  0.94301  0.0
H  H4  1  0.92438248  0.21485652  0.75495870  1  0.431749  -5.3e-05  0.871759  0.0  0.403178  -4e-05  0.930771  0.0  0.415268  -3.8e-05  0.913518  0.0  0.294466  0.394672  -4.2e-05  0.943081  0.0
H  H5  1  0.94149935  0.73495064  0.15339695  1  0.442813  -0.0  0.841186  0.0  0.415237  -0.0  0.901451  0.0  0.425947  1e-06  0.885876  0.0  0.308296  0.407685  0.0  0.912633  0.0
H  H6  1  0.05850365  0.26505706  0.84659904  1  0.442827  -0.0  0.841192  0.0  0.415247  -1e-06  0.901451  0.0  0.425957  2e-06  0.885876  0.0  0.308254  0.407697  0.0  0.912628  0.0
H  H7  1  0.58265284  0.91558559  0.19265385  1  0.440623  3.4e-05  0.864976  0.0  0.409874  -5e-06  0.928967  0.0  0.420285  1.4e-05  0.914173  0.0  0.300867  0.402457  -2.7e-05  0.93967  0.0
H  H8  1  0.41735178  0.08442085  0.80734656  1  0.4407  3.4e-05  0.864848  0.0  0.409884  -5e-06  0.928955  0.0  0.420297  1.3e-05  0.914157  0.0  0.300854  0.402466  -2.7e-05  0.939658  0.0
H  H9  1  0.62569246  0.96910728  0.07975505  1  0.447049  5e-06  0.849209  0.0  0.418896  4e-06  0.907599  0.0  0.430502  4e-06  0.890829  0.0  0.302386  0.410633  5e-06  0.919634  0.0
H  H10  1  0.37431541  0.03089802  0.92024452  1  0.447042  5e-06  0.849209  0.0  0.418895  4e-06  0.907594  0.0  0.430502  4e-06  0.890823  0.0  0.302376  0.410632  5e-06  0.919632  0.0
H  H11  1  0.76525020  0.53229008  0.21115710  1  0.442699  -6e-06  0.801186  0.0  0.425918  -1.1e-05  0.851678  0.0  0.434474  -7e-06  0.842477  0.0  0.33494  0.420063  -2e-05  0.85864  0.0
H  H12  1  0.23476252  0.46771405  0.78884232  1  0.442693  -6e-06  0.801254  0.0  0.42595  -1.1e-05  0.851681  0.0  0.434505  -6e-06  0.84248  0.0  0.334918  0.420093  -2e-05  0.858647  0.0
H  H13  1  0.81534518  0.48836702  0.09731905  1  0.452267  0.0  0.845529  0.0  0.417537  1e-06  0.914901  0.0  0.428751  0.0  0.899048  0.0  0.309291  0.409337  1e-06  0.926652  0.0
H  H14  1  0.18466283  0.51163373  0.90267984  1  0.452274  0.0  0.845525  0.0  0.417539  1e-06  0.914907  0.0  0.428754  0.0  0.899052  0.0  0.309285  0.409324  1e-06  0.926676  0.0
H  H15  1  0.28778150  0.59138245  0.52792643  1  0.103965  -0.000107  0.920587  0.0  0.118502  6.6e-05  0.970557  0.0  0.121  7.1e-05  0.969452  0.0  0.114626  0.116487  6.2e-05  0.971681  0.0
H  H16  1  0.71221239  0.40860711  0.47206787  1  0.103905  -0.000106  0.920535  0.0  0.11843  6.6e-05  0.970532  0.0  0.120928  7.1e-05  0.969429  0.0  0.114573  0.116418  6.2e-05  0.971659  0.0
H  H17  1  0.53668710  0.58239282  0.66754356  1  0.117712  -0.00044  0.957336  0.0  0.125405  -0.000415  1.018582  0.0  0.129407  -0.000313  1.016763  0.0  0.11389  0.122505  -0.000508  1.019756  -0.001
H  H18  1  0.46330039  0.41759557  0.33245395  1  0.117821  -0.000438  0.957165  0.0  0.125504  -0.000415  1.018435  0.0  0.129509  -0.000312  1.016619  0.0  0.113928  0.122599  -0.000508  1.019607  -0.001
H  H19  1  0.85202228  0.75351805  0.65365600  1  0.100626  -0.000858  0.936515  -0.002  0.10772  -0.000758  1.000758  -0.002  0.11082  -0.000559  0.997106  -0.001  0.12648  0.105203  -0.000915  1.003586  -0.002
H  H20  1  0.14795698  0.24647601  0.34634617  1  0.100561  -0.000858  0.936467  -0.002  0.10765  -0.000757  1.000711  -0.002  0.11075  -0.000559  0.99706  -0.001  0.126463  0.105135  -0.000915  1.003539  -0.002
H  H21  1  0.93046264  0.04319296  0.16377912  1  0.123789  2.3e-05  0.945458  0.0  0.135966  3e-06  1.004441  0.0  0.139493  3e-06  1.001942  0.0  0.105851  0.133812  3e-06  1.005645  0.0
H  H22  1  0.06954052  0.95680898  0.83621917  1  0.123786  2.2e-05  0.945474  0.0  0.135985  3e-06  1.004438  0.0  0.139514  3e-06  1.001934  0.0  0.10585  0.133829  3e-06  1.005644  0.0
H  H23  1  0.89112848  0.22697195  0.21215548  1  0.114214  -8.5e-05  0.920648  0.0  0.126116  -9.2e-05  0.983965  0.0  0.129855  -6.5e-05  0.98033  0.0  0.103904  0.123496  -0.000122  0.986478  0.0
H  H24  1  0.10887145  0.77302999  0.78784440  1  0.114243  -8.4e-05  0.920622  0.0  0.126158  -9.2e-05  0.983947  0.0  0.129899  -6.5e-05  0.980308  0.0  0.103904  0.123526  -0.000122  0.986474  0.0
H  H25  1  0.27806982  0.13568657  0.19704338  1  0.127784  2.8e-05  0.91478  0.0  0.143864  1e-05  0.96987  0.0  0.146358  1.1e-05  0.968773  0.0  0.114163  0.142299  1e-05  0.970368  0.0
H  H26  1  0.72192999  0.86431870  0.80296018  1  0.127724  2.1e-05  0.914774  0.0  0.143811  9e-06  0.969849  0.0  0.146313  1e-05  0.96875  0.0  0.11415  0.142241  1e-05  0.970351  0.0
H  H27  1  0.26928884  0.12273873  0.06733806  1  0.117564  -3e-06  0.940845  0.0  0.130242  -4e-06  1.000909  0.0  0.132948  -1e-06  0.999958  0.0  0.110873  0.128078  -4e-06  1.002331  0.0
H  H28  1  0.73071435  0.87726078  0.93266695  1  0.117506  -7e-06  0.940923  0.0  0.130151  -4e-06  1.001027  0.0  0.132861  -0.0  1.000082  0.0  0.110839  0.127987  -4e-06  1.002445  0.0
C  C29  1  0.64298464  0.85709008  0.44248291  1  0.070565  0.007837  3.705764  0.005  0.066764  0.00212  3.949499  0.001  0.07094  0.003488  3.968307  0.002  0.109615  0.06348  0.001123  3.93695  0.0
C  C30  1  0.35700421  0.14290624  0.55751668  1  0.070834  0.007825  3.705535  0.005  0.066634  0.002119  3.949791  0.001  0.070811  0.003497  3.9686  0.002  0.109622  0.063349  0.001123  3.937236  0.0
C  C31  1  0.47315598  0.75760910  0.44019538  1  -0.07701  -0.004821  3.677769  -0.005  -0.063947  -0.00177  3.918747  -0.002  -0.071465  -0.001816  3.936648  -0.002  0.004988  -0.060562  -0.001792  3.907684  -0.002
C  C32  1  0.52683452  0.24238610  0.55980268  1  -0.07671  -0.0048  3.677489  -0.005  -0.06366  -0.001774  3.918614  -0.002  -0.071179  -0.001813  3.936522  -0.002  0.005035  -0.06027  -0.001792  3.90755  -0.002
C  C33  1  0.42768298  0.66295478  0.52471552  1  -0.016579  0.011053  3.691706  0.007  -0.044562  0.004302  3.945151  0.002  -0.039465  0.004893  3.960583  0.003  -0.059089  -0.048796  0.003858  3.935145  0.002
C  C34  1  0.57230919  0.33703810  0.47528400  1  -0.016531  0.011044  3.691522  0.007  -0.04445  0.004301  3.944968  0.002  -0.039357  0.004897  3.96041  0.003  -0.059055  -0.048692  0.003858  3.934958  0.002
C  C35  1  0.56223917  0.65923810  0.60274959  1  -0.086226  -0.008619  3.679641  -0.009  -0.10285  -0.003809  3.93721  -0.005  -0.107731  -0.003507  3.952536  -0.004  -0.070409  -0.098584  -0.004105  3.925776  -0.005
C  C36  1  0.43775460  0.34075477  0.39724987  1  -0.086383  -0.008624  3.679607  -0.009  -0.103053  -0.003809  3.937201  -0.005  -0.107945  -0.003513  3.952536  -0.004  -0.070404  -0.09878  -0.004106  3.925761  -0.005
C  C37  1  0.73805077  0.75379944  0.59626397  1  0.150701  0.010083  3.645345  0.007  0.117565  0.002741  3.907019  0.002  0.128766  0.004381  3.920984  0.003  0.05896  0.110129  0.001454  3.89752  0.001
C  C38  1  0.26193818  0.24619342  0.40373714  1  0.150834  0.010081  3.645341  0.007  0.117735  0.00274  3.906937  0.002  0.128933  0.004385  3.920907  0.003  0.058986  0.110295  0.001454  3.897435  0.001
C  C39  1  0.68895156  0.98538387  0.36695865  1  0.618301  0.006589  3.897138  0.006  0.569043  0.000969  4.201538  0.001  0.604447  0.001118  4.195896  0.001  0.214202  0.54519  0.0009  4.204026  0.001
C  C40  1  0.31103721  0.01461466  0.63304389  1  0.618144  0.006588  3.897394  0.006  0.569003  0.000968  4.201781  0.001  0.604407  0.001118  4.196135  0.001  0.214185  0.54515  0.000899  4.204265  0.001
C  C41  1  0.34315920  0.74703930  0.35049709  1  0.693156  -0.000732  3.902501  -0.001  0.641207  -0.000634  4.207799  -0.001  0.677684  -0.000372  4.199081  0.0  0.221248  0.617182  -0.001001  4.213747  -0.001
C  C42  1  0.65683616  0.25295477  0.64949859  1  0.692507  -0.000739  3.90316  -0.001  0.640718  -0.000632  4.208281  -0.001  0.677191  -0.000373  4.199573  0.0  0.220991  0.616687  -0.001001  4.214242  -0.001
C  C43  1  0.84035764  0.21681522  0.05844470  1  0.722605  2e-06  3.780643  0.0  0.674963  5e-06  4.072935  0.0  0.707319  0.0  4.073446  0.0  0.216263  0.652151  -1e-06  4.077132  0.0
C  C44  1  0.15965188  0.78318896  0.94155335  1  0.722661  6e-06  3.780598  0.0  0.675037  4e-06  4.072936  0.0  0.707395  2e-06  4.073441  0.0  0.216279  0.652205  -1e-06  4.077116  0.0
C  C45  1  0.95943328  0.16396558  0.14721555  1  -0.241518  -3.7e-05  3.650926  0.0  -0.279174  -4.2e-05  3.897872  0.0  -0.283116  -2.1e-05  3.901589  0.0  -0.162618  -0.275905  -6.7e-05  3.894099  0.0
C  C46  1  0.04057459  0.83603972  0.85278403  1  -0.241662  -4.6e-05  3.650952  0.0  -0.27936  -4.1e-05  3.897891  0.0  -0.283318  -2.5e-05  3.901656  0.0  -0.162644  -0.276083  -6.8e-05  3.894134  0.0
C  C47  1  0.20207746  0.18582106  0.13167654  1  -0.237521  5e-06  3.627205  0.0  -0.274761  2e-06  3.871497  0.0  -0.279563  -4e-06  3.876503  0.0  -0.155753  -0.271186  1e-06  3.867489  0.0
C  C48  1  0.79793042  0.81418303  0.86832602  1  -0.237328  3.8e-05  3.627095  0.0  -0.274451  3e-06  3.871304  0.0  -0.279279  -4e-06  3.876345  0.0  -0.155654  -0.27088  2e-06  3.867291  0.0
C  C49  1  0.26840514  0.34948549  0.12022130  1  0.746737  -8e-06  3.811553  0.0  0.703317  -7e-06  4.108167  0.0  0.738087  -4e-06  4.10678  0.0  0.214679  0.679607  -1.1e-05  4.11488  0.0
C  C50  1  0.73160276  0.65051867  0.87977829  1  0.74672  -1.8e-05  3.811441  0.0  0.703177  -5e-06  4.108218  0.0  0.737959  -5e-06  4.106829  0.0  0.214609  0.679473  -1.1e-05  4.114919  0.0
N  N51  1  0.77128371  0.85256248  0.51906545  1  -0.301681  -0.069934  3.386046  -0.091  -0.260555  -0.048578  3.68771  -0.066  -0.288831  -0.040322  3.707371  -0.059  -0.352816  -0.242549  -0.053015  3.675265  -0.069
N  N52  1  0.22869709  0.14743381  0.48093812  1  -0.3019  -0.069927  3.386074  -0.091  -0.260586  -0.048576  3.687745  -0.066  -0.288859  -0.040322  3.7074  -0.059  -0.352867  -0.242583  -0.053012  3.675305  -0.069
O  O53  1  0.84590116  0.07031689  0.38402703  1  -0.572128  -0.086115  2.064739  -0.12  -0.546387  -0.058353  2.352512  -0.088  -0.588727  -0.044986  2.346091  -0.073  -0.317676  -0.518386  -0.067012  2.357157  -0.096
O  O54  1  0.15409249  0.92967930  0.61597686  1  -0.572128  -0.086111  2.064666  -0.12  -0.546396  -0.058348  2.352418  -0.088  -0.588744  -0.044986  2.346027  -0.073  -0.317751  -0.518401  -0.067006  2.357071  -0.096
O  O55  1  0.07459320  0.78210615  0.17000264  1  -0.917529  -6.6e-05  1.890879  0.0  -0.865593  -2.5e-05  2.07648  0.0  -0.897461  -2e-05  2.037147  0.0  -0.646122  -0.85132  -4.4e-05  2.098523  0.0
O  O56  1  0.92540985  0.21789922  0.82999561  1  -0.917493  -6.5e-05  1.89089  0.0  -0.865545  -2.5e-05  2.076481  0.0  -0.897413  -2e-05  2.037147  0.0  -0.646031  -0.851265  -4.4e-05  2.098518  0.0
O  O57  1  0.57081613  0.00856663  0.29646919  1  -0.580744  -0.013886  1.996179  -0.019  -0.532062  -0.007018  2.21927  -0.01  -0.557724  -0.003148  2.212461  -0.005  -0.295385  -0.513019  -0.011366  2.222277  -0.015
O  O58  1  0.42917732  0.99143642  0.70353387  1  -0.580724  -0.013884  1.996377  -0.019  -0.531976  -0.007018  2.219381  -0.01  -0.557635  -0.003146  2.21257  -0.005  -0.295299  -0.512929  -0.011365  2.222383  -0.015
O  O59  1  0.58823634  0.87782735  0.12340732  1  -0.94408  -1.6e-05  1.879514  0.0  -0.897126  1e-06  2.088468  0.0  -0.92971  3.7e-05  2.049126  0.0  -0.666824  -0.882796  -3.6e-05  2.111631  0.0
O  O60  1  0.41177795  0.12217787  0.87659352  1  -0.944141  -1.7e-05  1.879468  0.0  -0.897152  1e-06  2.088461  0.0  -0.929739  3.9e-05  2.049115  0.0  -0.666818  -0.882827  -3.6e-05  2.111629  0.0
O  O61  1  0.73922530  0.56424464  0.14311715  1  -0.895189  8e-06  1.918237  0.0  -0.847904  -2e-06  2.126199  0.0  -0.877233  2e-06  2.092183  0.0  -0.610322  -0.834512  -1e-05  2.146568  0.0
O  O62  1  0.26078112  0.43575496  0.85688329  1  -0.895213  7e-06  1.91833  0.0  -0.84796  -2e-06  2.126246  0.0  -0.877288  2e-06  2.092225  0.0  -0.610311  -0.834565  -1e-05  2.146637  0.0
O  O63  1  0.14868287  0.79194125  0.35886112  1  -0.613736  7.8e-05  1.953918  -0.001  -0.573695  0.000687  2.183516  -0.001  -0.600739  0.001059  2.171753  0.0  -0.304557  -0.554558  0.000238  2.190944  -0.001
O  O64  1  0.85131099  0.20804813  0.64114137  1  -0.613506  7.6e-05  1.954155  -0.001  -0.573487  0.000688  2.183661  -0.001  -0.600528  0.001055  2.171905  0.0  -0.3044  -0.554348  0.000238  2.191097  -0.001
O  O65  1  0.44174533  0.68480905  0.27499028  1  -0.736658  -0.001196  2.033805  -0.001  -0.679641  -0.000782  2.284422  -0.001  -0.718295  -0.000479  2.271694  -0.001  -0.385798  -0.660371  -0.001107  2.290223  -0.001
O  O66  1  0.55825944  0.31519292  0.72500647  1  -0.736499  -0.001197  2.033896  -0.001  -0.679532  -0.000781  2.284435  -0.001  -0.718193  -0.000481  2.271721  -0.001  -0.38576  -0.660263  -0.001107  2.290242  -0.001
O  O67  1  0.70473521  0.13334222  0.02185284  1  -0.681732  -7e-06  2.017066  0.0  -0.620912  -2e-06  2.247821  0.0  -0.656127  6e-06  2.239559  0.0  -0.340766  -0.601881  -6e-06  2.253274  0.0
O  O68  1  0.29527273  0.86666080  0.97814676  1  -0.681776  -9e-06  2.017107  0.0  -0.620984  -1e-06  2.247904  0.0  -0.656198  3e-06  2.23964  0.0  -0.340829  -0.601969  -6e-06  2.253366  0.0
O  O69  1  0.87289930  0.35055962  0.01873904  1  -0.711236  -6e-06  2.02069  0.0  -0.644249  -6e-06  2.250968  0.0  -0.679262  3e-06  2.241088  0.0  -0.363507  -0.625275  -1.1e-05  2.256031  0.0
O  O70  1  0.12711343  0.64944454  0.98125890  1  -0.711101  -2e-06  2.020543  0.0  -0.644206  -7e-06  2.250921  0.0  -0.679218  6e-06  2.241034  0.0  -0.36345  -0.625143  -1.1e-05  2.25588  0.0
O  O71  1  0.40235881  0.39049256  0.04749507  1  -0.831043  4e-06  2.157198  0.0  -0.771497  -3e-06  2.422443  0.0  -0.819426  5e-06  2.413254  0.0  -0.429342  -0.75203  1e-06  2.427579  0.0
O  O72  1  0.59765250  0.60950473  0.95250449  1  -0.831073  9e-06  2.157102  0.0  -0.771498  -2e-06  2.422404  0.0  -0.819429  6e-06  2.413216  0.0  -0.42932  -0.752031  1e-06  2.427531  0.0
O  O73  1  0.20141995  0.44818166  0.18312911  1  -0.709628  -1e-05  1.926148  0.0  -0.666005  -1.4e-05  2.168603  0.0  -0.70009  -1.1e-05  2.15654  0.0  -0.371951  -0.648928  -2.4e-05  2.175042  0.0
O  O74  1  0.79858475  0.55182255  0.81686910  1  -0.709635  -7e-06  1.926127  0.0  -0.66598  -1.4e-05  2.168657  0.0  -0.700064  -1.3e-05  2.156589  0.0  -0.371927  -0.648906  -2.4e-05  2.175093  0.0
