# generated using pymatgen
data_NdP2H12C6NO11
_symmetry_space_group_name_H-M   'P 1'
_cell_length_a   8.97896112
_cell_length_b   12.66966268
_cell_length_c   14.56740000
_cell_angle_alpha   113.86901816
_cell_angle_beta   90.00000000
_cell_angle_gamma   90.00000000
_symmetry_Int_Tables_number   1
_chemical_formula_structural   NdP2H12C6NO11
_chemical_formula_sum   'Nd4 P8 H48 C24 N4 O44'
_cell_volume   1515.45842540
_cell_formula_units_Z   4
loop_
 _symmetry_equiv_pos_site_id
 _symmetry_equiv_pos_as_xyz
  1  'x, y, z'
loop_
 _atom_site_type_symbol
 _atom_site_label
 _atom_site_symmetry_multiplicity
 _atom_site_fract_x
 _atom_site_fract_y
 _atom_site_fract_z
 _atom_site_occupancy
 _atom_site_hle17_bader_spin_density
 _atom_site_hle17_ddec_charge
 _atom_site_hle17_ddec_spin_density
 _atom_site_hle17_ddec_sum_bond_order
 _atom_site_hle17_magmom
 _atom_site_hse06_10hf_bader_spin_density
 _atom_site_hse06_10hf_ddec_charge
 _atom_site_hse06_10hf_ddec_spin_density
 _atom_site_hse06_10hf_ddec_sum_bond_order
 _atom_site_hse06_10hf_magmom
 _atom_site_hse06_bader_spin_density
 _atom_site_hse06_ddec_charge
 _atom_site_hse06_ddec_spin_density
 _atom_site_hse06_ddec_sum_bond_order
 _atom_site_hse06_magmom
 _atom_site_pbe_bader_charge
 _atom_site_pbe_bader_spin_density
 _atom_site_pbe_cm5_charge
 _atom_site_pbe_ddec_charge
 _atom_site_pbe_ddec_spin_density
 _atom_site_pbe_ddec_sum_bond_order
 _atom_site_pbe_magmom
Nd  Nd0  1  0.75259598  0.90970331  0.82991166  1  0  2.331544  0  1.676604  0  0  2.177653  0  2.143284  0  0  2.263854  0  2.00777  0  2.259865  0  1.51346  2.149563  0  2.174358  0
Nd  Nd1  1  0.25259826  0.09029642  0.67008777  1  0  2.33149  0  1.676677  0  0  2.177532  0  2.143456  0  0  2.263787  0  2.007857  0  2.259861  0  1.513477  2.149415  0  2.174574  0
Nd  Nd2  1  0.24740056  0.09029728  0.17009150  1  0  2.331524  0  1.676635  0  0  2.177633  0  2.143321  0  0  2.263837  0  2.007808  0  2.259747  0  1.51347  2.149515  0  2.174442  0
Nd  Nd3  1  0.74740607  0.90970331  0.32990754  1  0  2.331519  0  1.676714  0  0  2.177605  0  2.143434  0  0  2.263827  0  2.00789  0  2.259767  0  1.513423  2.149497  0  2.174534  0
P  P4  1  0.60424362  0.18064462  0.81362347  1  0  1.501145  0  4.773249  0  0  1.347131  0  5.288499  0  0  1.397913  0  5.250996  0  3.365395  0  0.390158  1.311786  0  5.317241  0
P  P5  1  0.10424480  0.81935683  0.68637587  1  0  1.501047  0  4.773246  0  0  1.347066  0  5.288492  0  0  1.397847  0  5.250991  0  3.365409  0  0.390147  1.311716  0  5.317238  0
P  P6  1  0.39575402  0.81935511  0.18637527  1  0  1.501094  0  4.77326  0  0  1.347119  0  5.288494  0  0  1.397905  0  5.250988  0  3.365316  0  0.390189  1.311772  0  5.317237  0
P  P7  1  0.89575396  0.18064721  0.31362507  1  0  1.501094  0  4.77335  0  0  1.347112  0  5.288598  0  0  1.397897  0  5.251092  0  3.365483  0  0.390176  1.311765  0  5.317342  0
P  P8  1  0.10973096  0.39149882  0.72628910  1  0  1.491992  0  4.82861  0  0  1.341993  0  5.349759  0  0  1.393099  0  5.309402  0  3.334335  0  0.35983  1.306647  0  5.377897  0
P  P9  1  0.60972867  0.60849919  0.77371109  1  0  1.49203  0  4.828589  0  0  1.342033  0  5.349735  0  0  1.393137  0  5.309376  0  3.334325  0  0.359819  1.306687  0  5.377874  0
P  P10  1  0.89027003  0.60849746  0.27371048  1  0  1.492054  0  4.82852  0  0  1.342071  0  5.349664  0  0  1.393176  0  5.309303  0  3.334334  0  0.359835  1.306726  0  5.3778  0
P  P11  1  0.39026898  0.39150054  0.22629177  1  0  1.492017  0  4.82858  0  0  1.342037  0  5.349686  0  0  1.393141  0  5.30933  0  3.334399  0  0.359837  1.306689  0  5.377825  0
H  H12  1  0.22635581  0.41132177  0.86197956  1  0  0.429562  0  0.796608  0  0  0.417913  0  0.839866  0  0  0.42625  0  0.831023  0  0.627988  0  0.353505  0.411893  0  0.846394  0
H  H13  1  0.72635575  0.58867796  0.63802193  1  0  0.429588  0  0.796584  0  0  0.41794  0  0.839833  0  0  0.426277  0  0.830992  0  0.628  0  0.353504  0.411918  0  0.846365  0
H  H14  1  0.77364407  0.58867796  0.13802193  1  0  0.429575  0  0.7966  0  0  0.417925  0  0.839852  0  0  0.426262  0  0.83101  0  0.628006  0  0.353496  0.411903  0  0.846384  0
H  H15  1  0.27364079  0.41132091  0.36198063  1  0  0.429655  0  0.796443  0  0  0.417981  0  0.839745  0  0  0.426321  0  0.830901  0  0.627949  0  0.353538  0.41196  0  0.846273  0
H  H16  1  0.56388149  0.87509104  0.63837520  1  0  0.441633  0  0.859575  0  0  0.410483  0  0.923072  0  0  0.422332  0  0.905893  0  0.6498  0  0.301222  0.402179  0  0.935193  0
H  H17  1  0.06388044  0.12491128  0.86162308  1  0  0.441658  0  0.859529  0  0  0.410507  0  0.923027  0  0  0.422356  0  0.90585  0  0.64968  0  0.301248  0.402203  0  0.935149  0
H  H18  1  0.43612395  0.12491387  0.36162399  1  0  0.441675  0  0.8595  0  0  0.410533  0  0.922985  0  0  0.422382  0  0.905809  0  0.64939  0  0.301255  0.40223  0  0.935106  0
H  H19  1  0.93612277  0.87508759  0.13837398  1  0  0.441609  0  0.859607  0  0  0.410457  0  0.923111  0  0  0.42231  0  0.905926  0  0.649388  0  0.301208  0.402151  0  0.935234  0
H  H20  1  0.70223826  0.79271966  0.60786070  1  0  0.442937  0  0.80328  0  0  0.427327  0  0.854442  0  0  0.4361  0  0.843602  0  0.61875  0  0.332581  0.421016  0  0.862096  0
H  H21  1  0.20223609  0.20728266  0.89213826  1  0  0.442838  0  0.803429  0  0  0.427244  0  0.854547  0  0  0.436016  0  0.843714  0  0.618765  0  0.332546  0.420937  0  0.862193  0
H  H22  1  0.29776607  0.20728439  0.39214505  1  0  0.442902  0  0.803262  0  0  0.42729  0  0.854433  0  0  0.436064  0  0.843637  0  0.618716  0  0.332543  0.42098  0  0.862087  0
H  H23  1  0.79776490  0.79271621  0.10785605  1  0  0.44289  0  0.8033  0  0  0.427278  0  0.854468  0  0  0.436052  0  0.843659  0  0.618715  0  0.332538  0.420968  0  0.862122  0
H  H24  1  0.91312457  0.22208665  0.76154161  1  0  0.281108  0  0.845929  0  0  0.26745  0  0.90168  0  0  0.274081  0  0.897216  0  0.487607  0  0.332135  0.262613  0  0.905115  0
H  H25  1  0.41312686  0.77791221  0.73845683  1  0  0.281132  0  0.845927  0  0  0.267472  0  0.901665  0  0  0.274103  0  0.897199  0  0.487609  0  0.33211  0.262633  0  0.905107  0
H  H26  1  0.08687308  0.77791135  0.23845584  1  0  0.28112  0  0.84596  0  0  0.267455  0  0.901709  0  0  0.274086  0  0.897243  0  0.487612  0  0.332113  0.262614  0  0.905156  0
H  H27  1  0.58687524  0.22208579  0.26154199  1  0  0.28112  0  0.845917  0  0  0.26746  0  0.901669  0  0  0.274091  0  0.897205  0  0.487565  0  0.332131  0.262619  0  0.905115  0
H  H28  1  0.70184400  0.19150077  0.66189061  1  0  0.158003  0  0.925108  0  0  0.16451  0  0.988146  0  0  0.168176  0  0.985739  0  0.145414  0  0.128947  0.161846  0  0.989845  0
H  H29  1  0.20184740  0.80850155  0.83810973  1  0  0.158042  0  0.925046  0  0  0.164555  0  0.988099  0  0  0.168224  0  0.985687  0  0.145377  0  0.128946  0.16189  0  0.989794  0
H  H30  1  0.29815142  0.80850155  0.33810836  1  0  0.157985  0  0.925121  0  0  0.164506  0  0.988151  0  0  0.168175  0  0.985739  0  0.145403  0  0.128928  0.16184  0  0.989849  0
H  H31  1  0.79815581  0.19150250  0.16189190  1  0  0.157976  0  0.925164  0  0  0.16452  0  0.988162  0  0  0.168186  0  0.985757  0  0.145436  0  0.128945  0.16186  0  0.989854  0
H  H32  1  0.62635420  0.32867765  0.74771173  1  0  0.166394  0  0.923033  0  0  0.176565  0  0.976894  0  0  0.180095  0  0.975187  0  0.167386  0  0.132645  0.173992  0  0.978191  0
H  H33  1  0.12635426  0.67132381  0.75228968  1  0  0.166387  0  0.923041  0  0  0.176583  0  0.976882  0  0  0.180113  0  0.975178  0  0.167471  0  0.132652  0.174007  0  0.97818  0
H  H34  1  0.37364456  0.67132294  0.25228937  1  0  0.166406  0  0.92305  0  0  0.176586  0  0.976906  0  0  0.180117  0  0.9752  0  0.167605  0  0.132642  0.174009  0  0.978205  0
H  H35  1  0.87364450  0.32868110  0.24771363  1  0  0.166426  0  0.923034  0  0  0.176608  0  0.976889  0  0  0.180138  0  0.975182  0  0.167562  0  0.132647  0.174034  0  0.978186  0
H  H36  1  0.84464560  0.44176007  0.74603432  1  0  0.146647  0  0.955769  0  0  0.154966  0  1.017986  0  0  0.158414  0  1.015986  0  0.151884  0  0.125459  0.152437  0  1.019524  0
H  H37  1  0.34464343  0.55823967  0.75396717  1  0  0.146648  0  0.955725  0  0  0.154976  0  1.017942  0  0  0.158424  0  1.015942  0  0.15182  0  0.125457  0.152446  0  1.019481  0
H  H38  1  0.15535539  0.55824053  0.25396816  1  0  0.146635  0  0.955755  0  0  0.154995  0  1.017946  0  0  0.158443  0  1.015946  0  0.151828  0  0.125467  0.152465  0  1.019486  0
H  H39  1  0.65535199  0.44176093  0.24603531  1  0  0.146604  0  0.955785  0  0  0.154953  0  1.017973  0  0  0.158401  0  1.015975  0  0.151896  0  0.125453  0.152423  0  1.019512  0
H  H40  1  0.88577619  0.31010447  0.64159122  1  0  0.149697  0  0.910242  0  0  0.162811  0  0.964778  0  0  0.165078  0  0.964237  0  0.150878  0  0.133001  0.161139  0  0.965231  0
H  H41  1  0.38577737  0.68989698  0.85840950  1  0  0.149662  0  0.910259  0  0  0.162781  0  0.964799  0  0  0.16505  0  0.964258  0  0.150866  0  0.132969  0.161108  0  0.965253  0
H  H42  1  0.11422145  0.68989785  0.35840912  1  0  0.149706  0  0.910227  0  0  0.162818  0  0.964781  0  0  0.165084  0  0.964242  0  0.15086  0  0.132998  0.161145  0  0.965235  0
H  H43  1  0.61422139  0.31010534  0.14159221  1  0  0.149636  0  0.910348  0  0  0.162794  0  0.964827  0  0  0.16506  0  0.964287  0  0.150881  0  0.132989  0.161121  0  0.96528  0
H  H44  1  0.95856078  0.39684317  0.91241216  1  0  0.101456  0  0.945615  0  0  0.115019  0  1.005047  0  0  0.116811  0  1.003889  0  0.129682  0  0.119374  0.113648  0  1.005941  0
H  H45  1  0.45855973  0.60315484  0.58758734  1  0  0.101484  0  0.945582  0  0  0.115048  0  1.005012  0  0  0.116846  0  1.003845  0  0.129654  0  0.119358  0.113676  0  1.005907  0
H  H46  1  0.04143798  0.60315397  0.08758635  1  0  0.101476  0  0.945553  0  0  0.115013  0  1.005013  0  0  0.116825  0  1.003828  0  0.129646  0  0.119356  0.113642  0  1.005906  0
H  H47  1  0.54143680  0.39684317  0.41241285  1  0  0.101418  0  0.945642  0  0  0.114977  0  1.005071  0  0  0.116768  0  1.003914  0  0.129919  0  0.119354  0.113604  0  1.005967  0
H  H48  1  0.77330438  0.44208373  0.89905060  1  0  0.122941  0  0.91908  0  0  0.137602  0  0.973127  0  0  0.139786  0  0.972199  0  0.145907  0  0.124277  0.135933  0  0.973958  0
H  H49  1  0.27330445  0.55791427  0.60094891  1  0  0.122914  0  0.919062  0  0  0.1376  0  0.973085  0  0  0.139782  0  0.972156  0  0.145885  0  0.124265  0.135932  0  0.973915  0
H  H50  1  0.22669438  0.55791514  0.10094784  1  0  0.122947  0  0.919073  0  0  0.137592  0  0.97313  0  0  0.139775  0  0.972205  0  0.145902  0  0.124271  0.135924  0  0.97396  0
H  H51  1  0.72669431  0.44208459  0.39905296  1  0  0.122956  0  0.919017  0  0  0.137594  0  0.97309  0  0  0.139776  0  0.972162  0  0.14593  0  0.124283  0.135926  0  0.97392  0
H  H52  1  0.85235473  0.22638492  0.93904110  1  0  0.075461  0  0.952683  0  0  0.084003  0  1.022009  0  0  0.08567  0  1.020569  0  0.096314  0  0.112896  0.082698  0  1.023192  0
H  H53  1  0.35235591  0.77361308  0.56095909  1  0  0.075388  0  0.952765  0  0  0.083978  0  1.022048  0  0  0.085644  0  1.020609  0  0.096381  0  0.112891  0.082674  0  1.02323  0
H  H54  1  0.14764069  0.77361308  0.06095909  1  0  0.075411  0  0.952816  0  0  0.083989  0  1.022087  0  0  0.085655  0  1.020648  0  0.096348  0  0.112891  0.082685  0  1.023271  0
H  H55  1  0.64764285  0.22638492  0.43904110  1  0  0.075453  0  0.952762  0  0  0.083991  0  1.022071  0  0  0.085657  0  1.020631  0  0.096346  0  0.112897  0.082686  0  1.023255  0
H  H56  1  0.79094228  0.36245444  0.03005758  1  0  0.094711  0  0.926773  0  0  0.108945  0  0.984091  0  0  0.109727  0  0.983652  0  0.118213  0  0.116173  0.108282  0  0.984477  0
H  H57  1  0.29094234  0.63754443  0.46994154  1  0  0.094733  0  0.926725  0  0  0.108973  0  0.984051  0  0  0.109758  0  0.983605  0  0.118198  0  0.116194  0.108312  0  0.984436  0
H  H58  1  0.20905314  0.63754616  0.96994146  1  0  0.094767  0  0.926701  0  0  0.108948  0  0.984072  0  0  0.109733  0  0.983623  0  0.118179  0  0.116162  0.108284  0  0.984467  0
H  H59  1  0.70905308  0.36245358  0.53005865  1  0  0.094777  0  0.926701  0  0  0.108957  0  0.984064  0  0  0.109741  0  0.983618  0  0.118181  0  0.116173  0.108294  0  0.984457  0
C  C60  1  0.69164906  0.25247834  0.74074520  1  0  -0.359155  0  3.453792  0  0  -0.39549  0  3.698073  0  0  -0.40093  0  3.701587  0  -0.355889  0  -0.064349  -0.391577  0  3.695526  0
C  C61  1  0.19165135  0.74752139  0.75925697  1  0  -0.359163  0  3.453675  0  0  -0.39557  0  3.69802  0  0  -0.401015  0  3.701542  0  -0.355914  0  -0.064363  -0.391649  0  3.695477  0
C  C62  1  0.30834748  0.74752053  0.25925530  1  0  -0.359187  0  3.453859  0  0  -0.395546  0  3.698123  0  0  -0.400994  0  3.701649  0  -0.356005  0  -0.064365  -0.391626  0  3.695581  0
C  C63  1  0.80834853  0.25248007  0.24074443  1  0  -0.359193  0  3.453873  0  0  -0.395582  0  3.698166  0  0  -0.401024  0  3.701683  0  -0.356033  0  -0.064354  -0.391669  0  3.695624  0
C  C64  1  0.90866526  0.36130219  0.72150511  1  0  -0.344759  0  3.476716  0  0  -0.385316  0  3.728181  0  0  -0.39046  0  3.733537  0  -0.343121  0  -0.066252  -0.381619  0  3.724403  0
C  C65  1  0.40866643  0.63869840  0.77849531  1  0  -0.344668  0  3.476697  0  0  -0.385257  0  3.728212  0  0  -0.390405  0  3.73358  0  -0.343074  0  -0.066192  -0.381557  0  3.724433  0
C  C66  1  0.09133462  0.63869927  0.27849699  1  0  -0.344679  0  3.476602  0  0  -0.385325  0  3.728161  0  0  -0.390472  0  3.733526  0  -0.343061  0  -0.066256  -0.381626  0  3.724384  0
C  C67  1  0.59133344  0.36130133  0.22150412  1  0  -0.344656  0  3.476742  0  0  -0.385292  0  3.728237  0  0  -0.390431  0  3.733586  0  -0.34314  0  -0.066235  -0.381594  0  3.72446  0
C  C68  1  0.84435158  0.36785144  0.89001742  1  0  -0.069078  0  3.529175  0  0  -0.130319  0  3.786855  0  0  -0.128803  0  3.796239  0  0.162598  0  -0.065317  -0.131176  0  3.780399  0
C  C69  1  0.34435387  0.63214656  0.60998208  1  0  -0.06912  0  3.52912  0  0  -0.13037  0  3.78679  0  0  -0.128855  0  3.796173  0  0.162591  0  -0.065303  -0.131226  0  3.780339  0
C  C70  1  0.15564607  0.63214570  0.10998040  1  0  -0.069096  0  3.529165  0  0  -0.130302  0  3.786788  0  0  -0.128797  0  3.796167  0  0.162575  0  -0.065291  -0.131157  0  3.780337  0
C  C71  1  0.65564489  0.36785144  0.39001880  1  0  -0.069109  0  3.529196  0  0  -0.130328  0  3.786829  0  0  -0.128809  0  3.796215  0  0.162302  0  -0.065356  -0.131182  0  3.780376  0
C  C72  1  0.78615999  0.30367606  0.95052440  1  0  0.091757  0  3.58929  0  0  0.031835  0  3.861959  0  0  0.038966  0  3.866087  0  0.361704  0  -0.058608  0.027178  0  3.858888  0
C  C73  1  0.28616005  0.69632281  0.54947541  1  0  0.091826  0  3.589273  0  0  0.031867  0  3.861963  0  0  0.038998  0  3.866093  0  0.361812  0  -0.058598  0.027206  0  3.858899  0
C  C74  1  0.21383543  0.69632281  0.04947404  1  0  0.091714  0  3.589429  0  0  0.03185  0  3.862018  0  0  0.038985  0  3.866146  0  0.361805  0  -0.058604  0.027183  0  3.858955  0
C  C75  1  0.71383648  0.30367606  0.45052577  1  0  0.091708  0  3.589422  0  0  0.031887  0  3.861987  0  0  0.03902  0  3.866115  0  0.361759  0  -0.058588  0.02722  0  3.858925  0
C  C76  1  0.98097318  0.94930348  0.01478198  1  0  0.567614  0  3.924647  0  0  0.520941  0  4.225693  0  0  0.550581  0  4.220381  0  1.586336  0  0.220924  0.500433  0  4.232201  0
C  C77  1  0.48097547  0.05069712  0.48521638  1  0  0.567738  0  3.924822  0  0  0.52095  0  4.226047  0  0  0.550592  0  4.220736  0  1.607053  0  0.220876  0.500443  0  4.232555  0
C  C78  1  0.01903004  0.05069194  0.98521593  1  0  0.567731  0  3.924816  0  0  0.520855  0  4.226101  0  0  0.550496  0  4.220786  0  1.606868  0  0.220783  0.500346  0  4.232609  0
C  C79  1  0.51903109  0.94931124  0.51478402  1  0  0.567546  0  3.924716  0  0  0.520672  0  4.226072  0  0  0.550312  0  4.220766  0  1.586223  0  0.220641  0.500166  0  4.232577  0
C  C80  1  0.55835747  0.03878712  0.03893499  1  0  0.564899  0  3.924484  0  0  0.52473  0  4.219057  0  0  0.554648  0  4.213896  0  1.611218  0  0.223582  0.504026  0  4.225737  0
C  C81  1  0.05836755  0.96121520  0.46107015  1  0  0.564766  0  3.924562  0  0  0.524632  0  4.219102  0  0  0.55455  0  4.213945  0  1.611102  0  0.223554  0.503927  0  4.22578  0
C  C82  1  0.44163795  0.96121261  0.96106924  1  0  0.564923  0  3.924537  0  0  0.524787  0  4.219077  0  0  0.554706  0  4.213915  0  1.59475  0  0.223609  0.504082  0  4.225758  0
C  C83  1  0.94164457  0.03879057  0.53893415  1  0  0.565044  0  3.924358  0  0  0.524884  0  4.218906  0  0  0.554803  0  4.213745  0  1.594907  0  0.223633  0.504179  0  4.225585  0
N  N84  1  0.84672490  0.29467645  0.77842720  1  0  0.006043  0  3.356986  0  0  0.086826  0  3.565851  0  0  0.076892  0  3.58484  0  -0.964247  0  -0.329891  0.09363  0  3.55277  0
N  N85  1  0.34672497  0.70532241  0.72157192  1  0  0.005955  0  3.357108  0  0  0.086759  0  3.566011  0  0  0.076821  0  3.585008  0  -0.964234  0  -0.329882  0.093559  0  3.552929  0
N  N86  1  0.15327386  0.70532241  0.22157123  1  0  0.005978  0  3.357116  0  0  0.08678  0  3.566016  0  0  0.076841  0  3.585017  0  -0.964265  0  -0.329856  0.093579  0  3.552935  0
N  N87  1  0.65327491  0.29467732  0.27842819  1  0  0.006042  0  3.357022  0  0  0.086838  0  3.565864  0  0  0.076901  0  3.584857  0  -0.964205  0  -0.329867  0.09364  0  3.55278  0
O  O88  1  0.43813977  0.17489979  0.79702392  1  0  -0.927461  0  1.941565  0  0  -0.857513  0  2.212002  0  0  -0.888492  0  2.185862  0  -1.457952  0  -0.44898  -0.840552  0  2.227892  0
O  O89  1  0.93813860  0.82510080  0.70297718  1  0  -0.927466  0  1.941561  0  0  -0.857518  0  2.211979  0  0  -0.888489  0  2.185839  0  -1.457943  0  -0.44899  -0.840563  0  2.227876  0
O  O90  1  0.56186121  0.82509649  0.20297429  1  0  -0.927455  0  1.941434  0  0  -0.857517  0  2.211868  0  0  -0.888492  0  2.185727  0  -1.457876  0  -0.448999  -0.84056  0  2.227762  0
O  O91  1  0.06185905  0.17490411  0.29702750  1  0  -0.927442  0  1.941517  0  0  -0.857504  0  2.21195  0  0  -0.888476  0  2.185811  0  -1.458012  0  -0.448987  -0.840547  0  2.227842  0
O  O92  1  0.68939044  0.07047692  0.79273632  1  0  -0.939647  0  1.969745  0  0  -0.871827  0  2.251706  0  0  -0.903258  0  2.22778  0  -1.471906  0  -0.457383  -0.854706  0  2.266021  0
O  O93  1  0.18938828  0.92952281  0.70726173  1  0  -0.939572  0  1.969883  0  0  -0.871733  0  2.251832  0  0  -0.903173  0  2.227905  0  -1.471918  0  -0.457337  -0.854609  0  2.266154  0
O  O94  1  0.31061389  0.92952368  0.20726547  1  0  -0.939607  0  1.969942  0  0  -0.871778  0  2.251881  0  0  -0.903211  0  2.227957  0  -1.471914  0  -0.457373  -0.854646  0  2.266182  0
O  O95  1  0.81061271  0.07047605  0.29273395  1  0  -0.939622  0  1.96987  0  0  -0.871788  0  2.251814  0  0  -0.903224  0  2.22789  0  -1.471888  0  -0.457391  -0.854654  0  2.266105  0
O  O96  1  0.63074780  0.27170662  0.92769609  1  0  -0.483363  0  2.132834  0  0  -0.407599  0  2.377972  0  0  -0.425674  0  2.366427  0  -1.285252  0  -0.217737  -0.394901  0  2.385468  0
O  O97  1  0.13074898  0.72829225  0.57230372  1  0  -0.483323  0  2.132839  0  0  -0.407586  0  2.378007  0  0  -0.425661  0  2.366463  0  -1.285376  0  -0.217749  -0.394889  0  2.385508  0
O  O98  1  0.36924873  0.72829398  0.07230295  1  0  -0.483287  0  2.13288  0  0  -0.407585  0  2.378031  0  0  -0.425663  0  2.366486  0  -1.285359  0  -0.217733  -0.394883  0  2.385528  0
O  O99  1  0.86924978  0.27170662  0.42769746  1  0  -0.48331  0  2.132975  0  0  -0.407613  0  2.378114  0  0  -0.425691  0  2.366568  0  -1.285361  0  -0.217738  -0.394912  0  2.385609  0
O  O100  1  0.19516178  0.27886435  0.68883026  1  0  -0.962162  0  2.014741  0  0  -0.891673  0  2.292922  0  0  -0.922739  0  2.266571  0  -1.471979  0  -0.481738  -0.874686  0  2.30862  0
O  O101  1  0.69515949  0.72113624  0.81117016  1  0  -0.962171  0  2.014658  0  0  -0.891686  0  2.292827  0  0  -0.922743  0  2.26648  0  -1.471939  0  -0.481733  -0.874702  0  2.308522  0
O  O102  1  0.80483810  0.72113624  0.31116947  1  0  -0.962184  0  2.014643  0  0  -0.8917  0  2.292813  0  0  -0.922761  0  2.266462  0  -1.471926  0  -0.481735  -0.874714  0  2.308508  0
O  O103  1  0.30483593  0.27886435  0.18883094  1  0  -0.96222  0  2.014718  0  0  -0.891739  0  2.29289  0  0  -0.922796  0  2.26654  0  -1.471941  0  -0.481755  -0.874753  0  2.308589  0
O  O104  1  0.15188728  0.45742803  0.84595782  1  0  -0.728896  0  1.950788  0  0  -0.666573  0  2.160782  0  0  -0.685791  0  2.139654  0  -1.367865  0  -0.388057  -0.652924  0  2.175009  0
O  O105  1  0.65188722  0.54257170  0.65404435  1  0  -0.728931  0  1.950795  0  0  -0.666593  0  2.160773  0  0  -0.685812  0  2.139646  0  -1.367845  0  -0.388033  -0.652942  0  2.174999  0
O  O106  1  0.84811259  0.54257170  0.15404366  1  0  -0.728929  0  1.950817  0  0  -0.666588  0  2.160794  0  0  -0.685809  0  2.139668  0  -1.367872  0  -0.388034  -0.652938  0  2.17502  0
O  O107  1  0.34811154  0.45742630  0.34595858  1  0  -0.728911  0  1.950645  0  0  -0.666611  0  2.160706  0  0  -0.685836  0  2.139579  0  -1.36787  0  -0.388032  -0.652961  0  2.174934  0
O  O108  1  0.12631640  0.47316245  0.67655740  1  0  -0.807552  0  1.820922  0  0  -0.74929  0  2.050733  0  0  -0.774257  0  2.032227  0  -1.442902  0  -0.379612  -0.731461  0  2.062729  0
O  O109  1  0.62631745  0.52683987  0.82344500  1  0  -0.807622  0  1.820968  0  0  -0.749352  0  2.050767  0  0  -0.774319  0  2.032261  0  -1.44294  0  -0.379655  -0.731524  0  2.062765  0
O  O110  1  0.87368237  0.52683901  0.32344332  1  0  -0.807636  0  1.820999  0  0  -0.749364  0  2.050802  0  0  -0.77433  0  2.032292  0  -1.442943  0  -0.379651  -0.731537  0  2.0628  0
O  O111  1  0.37368243  0.47316245  0.17656015  1  0  -0.807618  0  1.820946  0  0  -0.74934  0  2.050736  0  0  -0.774307  0  2.032226  0  -1.442942  0  -0.379694  -0.731511  0  2.062735  0
O  O112  1  0.03107486  0.95815204  0.09973360  1  0  -0.683203  0  2.116375  0  0  -0.623823  0  2.353461  0  0  -0.653738  0  2.342414  0  -1.18843  0  -0.355438  -0.606611  0  2.360081  0
O  O113  1  0.53108037  0.04184683  0.40026346  1  0  -0.683292  0  2.116406  0  0  -0.623862  0  2.353529  0  0  -0.65378  0  2.342481  0  -1.18851  0  -0.355468  -0.606651  0  2.360146  0
O  O114  1  0.96892612  0.04184338  0.90026774  1  0  -0.683288  0  2.116459  0  0  -0.623848  0  2.353623  0  0  -0.653759  0  2.342572  0  -1.188492  0  -0.355458  -0.606641  0  2.360247  0
O  O115  1  0.46893398  0.95815635  0.59972826  1  0  -0.683167  0  2.116691  0  0  -0.623701  0  2.353843  0  0  -0.653621  0  2.342797  0  -1.1885  0  -0.355302  -0.60649  0  2.360458  0
O  O116  1  0.90495547  0.86702445  0.95503807  1  0  -0.633174  0  2.004826  0  0  -0.589166  0  2.236705  0  0  -0.615398  0  2.225572  0  -1.172038  0  -0.35694  -0.574657  0  2.243168  0
O  O117  1  0.40495999  0.13297010  0.54495610  1  0  -0.633161  0  2.005087  0  0  -0.589104  0  2.237021  0  0  -0.61534  0  2.225885  0  -1.172042  0  -0.35685  -0.574594  0  2.243484  0
O  O118  1  0.09504886  0.13296838  0.04496099  1  0  -0.633237  0  2.004946  0  0  -0.58917  0  2.236911  0  0  -0.615402  0  2.225776  0  -1.171989  0  -0.35688  -0.574657  0  2.243375  0
O  O119  1  0.59505102  0.86702618  0.45503593  1  0  -0.633221  0  2.004537  0  0  -0.589138  0  2.236504  0  0  -0.615375  0  2.225372  0  -1.17198  0  -0.356881  -0.574627  0  2.242964  0
O  O120  1  0.51531574  0.08818008  0.12950881  1  0  -0.671373  0  2.049241  0  0  -0.622885  0  2.292106  0  0  -0.651007  0  2.281318  0  -1.203498  0  -0.369687  -0.607059  0  2.298426  0
O  O121  1  0.01532026  0.91181965  0.37049062  1  0  -0.671483  0  2.048996  0  0  -0.622976  0  2.291803  0  0  -0.651101  0  2.28101  0  -1.20337  0  -0.369742  -0.60715  0  2.298123  0
O  O122  1  0.48467857  0.91182137  0.87049603  1  0  -0.67142  0  2.049313  0  0  -0.622924  0  2.292135  0  0  -0.651045  0  2.281345  0  -1.203395  0  -0.369657  -0.6071  0  2.298454  0
O  O123  1  0.98468073  0.08817922  0.62950233  1  0  -0.671415  0  2.049459  0  0  -0.622908  0  2.29229  0  0  -0.651035  0  2.2815  0  -1.203481  0  -0.369659  -0.607082  0  2.298608  0
O  O124  1  0.68591566  0.04672942  0.00586445  1  0  -0.662507  0  2.046274  0  0  -0.61618  0  2.287385  0  0  -0.644611  0  2.277726  0  -1.185189  0  -0.359033  -0.59988  0  2.292717  0
O  O125  1  0.18592017  0.95327290  0.49413864  1  0  -0.662304  0  2.04662  0  0  -0.615977  0  2.287718  0  0  -0.644412  0  2.27806  0  -1.185217  0  -0.358949  -0.599675  0  2.29305  0
O  O126  1  0.31407754  0.95326859  0.99414124  1  0  -0.662539  0  2.046307  0  0  -0.61621  0  2.287398  0  0  -0.644652  0  2.277757  0  -1.185091  0  -0.359077  -0.599906  0  2.292729  0
O  O127  1  0.81408193  0.04672942  0.50585827  1  0  -0.66262  0  2.046089  0  0  -0.6163  0  2.287205  0  0  -0.64474  0  2.277552  0  -1.185148  0  -0.359117  -0.599997  0  2.292538  0
O  O128  1  0.62434729  0.82077405  0.65874745  1  0  -0.893132  0  1.807961  0  0  -0.85096  0  2.001976  0  0  -0.873238  0  1.968033  0  -1.263063  0  -0.621092  -0.83902  0  2.023091  0
O  O129  1  0.12434512  0.17922740  0.84125121  1  0  -0.893026  0  1.80805  0  0  -0.850838  0  2.00206  0  0  -0.873124  0  1.968115  0  -1.262962  0  -0.621066  -0.838897  0  2.023176  0
O  O130  1  0.37565482  0.17922999  0.34125280  1  0  -0.893109  0  1.807919  0  0  -0.850931  0  2.001918  0  0  -0.87321  0  1.968018  0  -1.262659  0  -0.621065  -0.838987  0  2.023035  0
O  O131  1  0.87565141  0.82076974  0.15874593  1  0  -0.893061  0  1.808023  0  0  -0.850878  0  2.002037  0  0  -0.873161  0  1.968124  0  -1.262666  0  -0.621037  -0.838934  0  2.023155  0
