# generated using pymatgen
data_ZnH10C17NO4
_symmetry_space_group_name_H-M   'P 1'
_cell_length_a   10.32998308
_cell_length_b   11.38615968
_cell_length_c   13.78461211
_cell_angle_alpha   102.74107011
_cell_angle_beta   97.82763483
_cell_angle_gamma   111.62455468
_symmetry_Int_Tables_number   1
_chemical_formula_structural   ZnH10C17NO4
_chemical_formula_sum   'Zn4 H40 C68 N4 O16'
_cell_volume   1427.19722264
_cell_formula_units_Z   4
loop_
 _symmetry_equiv_pos_site_id
 _symmetry_equiv_pos_as_xyz
  1  'x, y, z'
loop_
 _atom_site_type_symbol
 _atom_site_label
 _atom_site_symmetry_multiplicity
 _atom_site_fract_x
 _atom_site_fract_y
 _atom_site_fract_z
 _atom_site_occupancy
 _atom_site_pbe_bader_charge
 _atom_site_pbe_bader_spin_density
 _atom_site_pbe_cm5_charge
 _atom_site_pbe_ddec_charge
 _atom_site_pbe_ddec_spin_density
 _atom_site_pbe_ddec_sum_bond_order
 _atom_site_pbe_magmom
Zn  Zn0  1  0.79867923  0.47289608  0.78919129  1  1.293162  0  0.699852  0.852063  0  2.355851  0
Zn  Zn1  1  0.20134094  0.52715141  0.21082360  1  1.293241  0  0.699816  0.852095  0  2.355808  0
Zn  Zn2  1  0.68238932  0.26315345  0.52393580  1  1.285414  0  0.706793  0.849272  0  2.33606  0
Zn  Zn3  1  0.31762689  0.73682380  0.47604401  1  1.285036  0  0.706919  0.84939  0  2.336192  0
H  H4  1  0.85128488  0.90943557  0.54516804  1  0.131559  0  0.110789  0.122477  0  0.993655  0
H  H5  1  0.14870192  0.09055419  0.45482279  1  0.131684  0  0.110751  0.122389  0  0.993369  0
H  H6  1  0.87766767  0.75255790  0.63963898  1  0.097516  0  0.105352  0.11209  0  1.011394  0
H  H7  1  0.12231010  0.24741797  0.36036097  1  0.097559  0  0.105369  0.112128  0  1.011374  0
H  H8  1  0.73776304  0.87222386  0.94945429  1  0.085335  0  0.098735  0.105653  0  1.049302  0
H  H9  1  0.26222985  0.12777378  0.05058102  1  0.085856  0  0.098605  0.105412  0  1.049311  0
H  H10  1  0.62534080  0.02131121  0.01629456  1  0.046171  0  0.094194  0.090015  0  1.02931  0
H  H11  1  0.37463251  0.97866717  0.98371557  1  0.046854  0  0.094234  0.090157  0  1.029294  0
H  H12  1  0.54990732  0.14245339  0.90527674  1  0.046309  0  0.094664  0.088082  0  1.027368  0
H  H13  1  0.45008506  0.85752382  0.09471432  1  0.046257  0  0.094773  0.088192  0  1.027339  0
H  H14  1  0.60901580  0.13095761  0.73647561  1  0.137073  0  0.100731  0.118879  0  1.062724  0
H  H15  1  0.39100550  0.86904284  0.26354407  1  0.137215  0  0.100736  0.119027  0  1.062328  0
H  H16  1  0.11794449  0.44224274  0.52861075  1  0.106779  0  0.106525  0.118157  0  1.007624  0
H  H17  1  0.88206185  0.55773043  0.47137431  1  0.106707  0  0.10656  0.118198  0  1.00767  0
H  H18  1  0.35125952  0.42907478  0.51695691  1  0.111337  0  0.105379  0.112282  0  1.007063  0
H  H19  1  0.64874053  0.57090435  0.48303719  1  0.111399  0  0.105378  0.112287  0  1.007131  0
H  H20  1  0.44096790  0.22056215  0.77029670  1  0.075783  0  0.102054  0.112727  0  1.043218  0
H  H21  1  0.55904332  0.77944997  0.22969971  1  0.076107  0  0.102049  0.112762  0  1.04337  0
H  H22  1  0.30728442  0.12319489  0.88795523  1  0.040179  0  0.095821  0.089823  0  1.02893  0
H  H23  1  0.69269177  0.87678079  0.11203510  1  0.040047  0  0.095784  0.089744  0  1.028942  0
H  H24  1  0.06845579  0.12886752  0.89512753  1  0.06674  0  0.099094  0.098366  0  0.999124  0
H  H25  1  0.93151468  0.87111148  0.10484531  1  0.066975  0  0.099125  0.098367  0  0.998795  0
H  H26  1  0.96962110  0.23434017  0.78610504  1  0.06703  0  0.097698  0.100282  0  1.062081  0
H  H27  1  0.03036461  0.76565394  0.21389284  1  0.067036  0  0.097655  0.100242  0  1.06216  0
H  H28  1  0.86473457  0.22696330  0.38840118  1  0.147713  0  0.127291  0.105987  0  0.991087  0
H  H29  1  0.13526528  0.77303499  0.61157940  1  0.147512  0  0.127263  0.105909  0  0.991114  0
H  H30  1  0.91240808  0.28315335  0.22880515  1  0.141726  0  0.109048  0.130087  0  1.052052  0
H  H31  1  0.08756957  0.71682983  0.77116589  1  0.141833  0  0.109048  0.130174  0  1.051979  0
H  H32  1  0.51247105  0.33407965  0.19084994  1  0.149975  0  0.109212  0.12517  0  1.046546  0
H  H33  1  0.48750875  0.66591128  0.80913103  1  0.150141  0  0.109181  0.125072  0  1.046444  0
H  H34  1  0.49306418  0.28923336  0.35673890  1  0.124597  0  0.121205  0.093767  0  1.007911  0
H  H35  1  0.50692451  0.71076211  0.64325137  1  0.124623  0  0.121216  0.093762  0  1.007814  0
H  H36  1  0.90261070  0.28035787  0.07614771  1  0.114627  0  0.114028  0.123589  0  1.005035  0
H  H37  1  0.09734892  0.71963406  0.92383328  1  0.114274  0  0.113961  0.123439  0  1.005085  0
H  H38  1  0.93315870  0.35033147  0.91963071  1  0.133668  0  0.122161  0.097575  0  1.005783  0
H  H39  1  0.06684261  0.64968339  0.08036456  1  0.133622  0  0.122137  0.097547  0  1.005747  0
H  H40  1  0.64208661  0.51895855  0.94506383  1  0.144577  0  0.121318  0.100195  0  1.021731  0
H  H41  1  0.35793891  0.48108637  0.05493948  1  0.143709  0  0.121224  0.100148  0  1.021391  0
H  H42  1  0.59546901  0.45443914  0.10290441  1  0.101262  0  0.116352  0.128869  0  1.001121  0
H  H43  1  0.40452247  0.54557457  0.89707902  1  0.101479  0  0.11631  0.128811  0  1.001048  0
C  C44  1  0.74866687  0.98958576  0.64837596  1  -0.054827  0  -0.007527  -0.067548  0  3.894761  0
C  C45  1  0.25135916  0.01042499  0.35164910  1  -0.05593  0  -0.007446  -0.0675  0  3.895049  0
C  C46  1  0.81606055  0.90813739  0.61603751  1  -0.044314  0  -0.075621  -0.077703  0  3.969145  0
C  C47  1  0.18396928  0.09185414  0.38396054  1  -0.043381  0  -0.07569  -0.077523  0  3.969371  0
C  C48  1  0.83458083  0.82286848  0.67068677  1  -0.011395  0  -0.082663  -0.090054  0  3.980104  0
C  C49  1  0.16542936  0.17712698  0.32932119  1  -0.011402  0  -0.082697  -0.090321  0  3.979932  0
C  C50  1  0.79300558  0.82201351  0.76214393  1  -0.058957  0  -0.016413  -0.084753  0  3.944873  0
C  C51  1  0.20702225  0.17800118  0.23787232  1  -0.058714  0  -0.016329  -0.084429  0  3.944312  0
C  C52  1  0.71007687  0.92967510  0.90357363  1  0.001217  0  -0.099038  -0.141981  0  4.001617  0
C  C53  1  0.28993289  0.07030557  0.09644547  1  0.000634  0  -0.098844  -0.141687  0  4.001863  0
C  C54  1  0.64520508  0.01087812  0.93975860  1  -0.055204  0  -0.102734  -0.094987  0  4.058006  0
C  C55  1  0.35477472  0.98909795  0.06024154  1  -0.055512  0  -0.102757  -0.095139  0  4.058173  0
C  C56  1  0.60415903  0.08040927  0.87755037  1  -0.120678  0  -0.102059  -0.088781  0  4.055295  0
C  C57  1  0.39583622  0.91956798  0.12245694  1  -0.121229  0  -0.10215  -0.088797  0  4.055315  0
C  C58  1  0.63651121  0.07449863  0.78336101  1  -0.019548  0  -0.098861  -0.138216  0  3.955251  0
C  C59  1  0.36350264  0.92549844  0.21665036  1  -0.020219  0  -0.098901  -0.138527  0  3.955869  0
C  C60  1  0.70693680  0.99456931  0.74413073  1  -0.019556  0  -0.001366  0.055046  0  3.92788  0
C  C61  1  0.29310097  0.00543299  0.25589267  1  -0.01841  0  -0.001372  0.05513  0  3.928067  0
C  C62  1  0.73775937  0.91503011  0.80438738  1  -0.039274  0  -0.006023  0.045618  0  3.970152  0
C  C63  1  0.26226720  0.08498245  0.19563650  1  -0.040226  0  -0.006203  0.045316  0  3.969883  0
C  C64  1  0.78741686  0.70998192  0.80439901  1  1.533095  0  0.202375  0.56748  0  4.199435  0
C  C65  1  0.21260640  0.29004372  0.19560959  1  1.532936  0  0.2023  0.567249  0  4.199052  0
C  C66  1  0.73322807  0.07380756  0.58085134  1  1.542419  0  0.197239  0.562635  0  4.199792  0
C  C67  1  0.26679935  0.92618951  0.41917565  1  1.542322  0  0.197204  0.562602  0  4.199803  0
C  C68  1  0.09410807  0.35702551  0.65227675  1  0.017136  0  -0.006621  -0.065258  0  3.90852  0
C  C69  1  0.90589398  0.64297255  0.34772729  1  0.017097  0  -0.006545  -0.065186  0  3.908769  0
C  C70  1  0.16373020  0.39851819  0.57892337  1  -0.067263  0  -0.082689  -0.093116  0  3.966183  0
C  C71  1  0.83626874  0.60147382  0.42107890  1  -0.067576  0  -0.082819  -0.093342  0  3.966595  0
C  C72  1  0.29544890  0.39150769  0.57261343  1  -0.04149  0  -0.082314  -0.097651  0  3.997434  0
C  C73  1  0.70455039  0.60847678  0.42738787  1  -0.041476  0  -0.082249  -0.097331  0  3.997503  0
C  C74  1  0.35949872  0.34328788  0.63980077  1  -0.051759  0  -0.00577  -0.069015  0  3.908202  0
C  C75  1  0.64048588  0.65668893  0.36019328  1  -0.05179  0  -0.005755  -0.06935  0  3.908517  0
C  C76  1  0.33958261  0.22673994  0.77523359  1  -0.00172  0  -0.09313  -0.13163  0  3.968493  0
C  C77  1  0.66042720  0.77327669  0.22478079  1  -0.001726  0  -0.093068  -0.131664  0  3.968312  0
C  C78  1  0.26420001  0.17196246  0.84088873  1  -0.061344  0  -0.094535  -0.080936  0  4.033619  0
C  C79  1  0.73579607  0.82803348  0.15910874  1  -0.061119  0  -0.094607  -0.080874  0  4.033716  0
C  C80  1  0.13017841  0.17569270  0.84541209  1  -0.042185  0  -0.093016  -0.075287  0  4.027697  0
C  C81  1  0.86980069  0.82428880  0.15457778  1  -0.042364  0  -0.092989  -0.075329  0  4.027484  0
C  C82  1  0.07477946  0.23549047  0.78475241  1  0.007079  0  -0.095378  -0.134718  0  3.985884  0
C  C83  1  0.92521730  0.76450855  0.21525644  1  0.006954  0  -0.095322  -0.134581  0  3.985731  0
C  C84  1  0.15028809  0.29587044  0.71755875  1  -0.010715  0  0.002671  0.062885  0  3.918914  0
C  C85  1  0.84971158  0.70413383  0.28245320  1  -0.01023  0  0.002672  0.062834  0  3.919199  0
C  C86  1  0.28628610  0.29012200  0.71191080  1  -0.008763  0  0.002376  0.061742  0  3.924664  0
C  C87  1  0.71372110  0.70988119  0.28810232  1  -0.009302  0  0.002384  0.061868  0  3.92476  0
C  C88  1  0.96508041  0.38463781  0.66293290  1  1.543799  0  0.223669  0.600079  0  4.150587  0
C  C89  1  0.03491581  0.61536282  0.33707393  1  1.543162  0  0.223726  0.600236  0  4.150533  0
C  C90  1  0.50751423  0.35342181  0.63665265  1  1.574269  0  0.230877  0.617835  0  4.123476  0
C  C91  1  0.49247835  0.64655621  0.36333708  1  1.574234  0  0.230922  0.617924  0  4.123495  0
C  C92  1  0.79193522  0.25316615  0.34164150  1  0.430354  0  0.057868  0.109665  0  3.902963  0
C  C93  1  0.20806597  0.74683151  0.65833183  1  0.43157  0  0.057889  0.109913  0  3.902635  0
C  C94  1  0.81494157  0.28220208  0.25127914  1  0.012814  0  -0.078525  -0.164368  0  3.895182  0
C  C95  1  0.18504221  0.71779883  0.74869545  1  0.012236  0  -0.078319  -0.164439  0  3.894754  0
C  C96  1  0.71778653  0.31724835  0.19550691  1  -0.047296  0  0.015444  0.100338  0  3.956232  0
C  C97  1  0.28218920  0.68275297  0.80447876  1  -0.047314  0  0.015278  0.100364  0  3.956028  0
C  C98  1  0.59660372  0.31446150  0.23174746  1  0.006939  0  -0.075156  -0.16163  0  3.915623  0
C  C99  1  0.40337188  0.68553568  0.76824348  1  0.007249  0  -0.075214  -0.161751  0  3.915405  0
C  C100  1  0.58225934  0.28664727  0.32367854  1  0.462433  0  0.054633  0.104598  0  3.931387  0
C  C101  1  0.41773625  0.71335661  0.67631484  1  0.462469  0  0.054699  0.10477  0  3.931475  0
C  C102  1  0.74318375  0.35866441  0.10306460  1  -0.027027  0  0.022704  0.117611  0  3.94051  0
C  C103  1  0.25680240  0.64134107  0.89692535  1  -0.027373  0  0.022806  0.117809  0  3.940889  0
C  C104  1  0.84161415  0.33272950  0.05070627  1  -0.040952  0  -0.073171  -0.157517  0  3.927921  0
C  C105  1  0.15836691  0.66727663  0.94927608  1  -0.040944  0  -0.073189  -0.157392  0  3.927893  0
C  C106  1  0.85972577  0.37139647  0.96308527  1  0.461611  0  0.050478  0.092396  0  3.954316  0
C  C107  1  0.14027099  0.62862082  0.03690122  1  0.462683  0  0.050566  0.092485  0  3.954242  0
C  C108  1  0.69439412  0.46371481  0.97678089  1  0.473158  0  0.053528  0.100771  0  3.926453  0
C  C109  1  0.30561603  0.53632050  0.02321485  1  0.473018  0  0.053528  0.100734  0  3.926499  0
C  C110  1  0.66986257  0.42710747  0.06432601  1  0.017255  0  -0.071391  -0.158639  0  3.906416  0
C  C111  1  0.33013622  0.57291229  0.93566461  1  0.01822  0  -0.071349  -0.158582  0  3.906834  0
N  N112  1  0.67926275  0.25877911  0.37860412  1  -1.261661  0  -0.334515  -0.23528  0  3.600084  0
N  N113  1  0.32074455  0.74122255  0.62138477  1  -1.262728  0  -0.334614  -0.235541  0  3.600273  0
N  N114  1  0.78717485  0.43543623  0.92613492  1  -1.272219  0  -0.33353  -0.24426  0  3.582004  0
N  N115  1  0.21283483  0.56459906  0.07387025  1  -1.272489  0  -0.333439  -0.244377  0  3.582173  0
O  O116  1  0.86923922  0.65166495  0.77488716  1  -1.166345  0  -0.336254  -0.572376  0  2.356823  0
O  O117  1  0.13075805  0.34833872  0.22510268  1  -1.166523  0  -0.336218  -0.572304  0  2.35639  0
O  O118  1  0.70144370  0.66957979  0.85783315  1  -1.171446  0  -0.311178  -0.539893  0  2.181103  0
O  O119  1  0.29858673  0.33046027  0.14218227  1  -1.171173  0  -0.311196  -0.539853  0  2.180959  0
O  O120  1  0.80775572  0.09107045  0.51682029  1  -1.163339  0  -0.318867  -0.539409  0  2.104161  0
O  O121  1  0.19227064  0.90894186  0.48320135  1  -1.163317  0  -0.318805  -0.539377  0  2.104274  0
O  O122  1  0.64399846  0.12933241  0.59492030  1  -1.144176  0  -0.33452  -0.5538  0  2.336841  0
O  O123  1  0.35603979  0.87067557  0.40511262  1  -1.143719  0  -0.334626  -0.553867  0  2.337183  0
O  O124  1  0.89090375  0.39429281  0.58571481  1  -1.193466  0  -0.321783  -0.569519  0  2.348426  0
O  O125  1  0.10910159  0.60572009  0.41429435  1  -1.19295  0  -0.32177  -0.56955  0  2.348466  0
O  O126  1  0.93852943  0.40184005  0.75198566  1  -1.169601  0  -0.310567  -0.542289  0  2.403236  0
O  O127  1  0.06146285  0.59816376  0.24801911  1  -1.169442  0  -0.310595  -0.54241  0  2.403308  0
O  O128  1  0.54052283  0.34163464  0.55002361  1  -1.174946  0  -0.314834  -0.547894  0  2.319151  0
O  O129  1  0.45949233  0.65834242  0.44997358  1  -1.174528  0  -0.314823  -0.547863  0  2.319123  0
O  O130  1  0.59217261  0.37547629  0.72138474  1  -1.190731  0  -0.312134  -0.555622  0  2.439893  0
O  O131  1  0.40782596  0.62456139  0.27861697  1  -1.190755  0  -0.312138  -0.555575  0  2.440085  0
