# generated using pymatgen
data_CuH14C20SN4Cl
_symmetry_space_group_name_H-M   'P 1'
_cell_length_a   9.44180566
_cell_length_b   10.23244022
_cell_length_c   11.87289613
_cell_angle_alpha   86.28054241
_cell_angle_beta   67.54183036
_cell_angle_gamma   69.28985738
_symmetry_Int_Tables_number   1
_chemical_formula_structural   CuH14C20SN4Cl
_chemical_formula_sum   'Cu2 H28 C40 S2 N8 Cl2'
_cell_volume   988.29936600
_cell_formula_units_Z   2
loop_
 _symmetry_equiv_pos_site_id
 _symmetry_equiv_pos_as_xyz
  1  'x, y, z'
loop_
 _atom_site_type_symbol
 _atom_site_label
 _atom_site_symmetry_multiplicity
 _atom_site_fract_x
 _atom_site_fract_y
 _atom_site_fract_z
 _atom_site_occupancy
 _atom_site_hle17_ddec_charge
 _atom_site_hle17_ddec_spin_density
 _atom_site_hle17_ddec_sum_bond_order
 _atom_site_hle17_magmom
 _atom_site_hse06_10hf_ddec_charge
 _atom_site_hse06_10hf_ddec_spin_density
 _atom_site_hse06_10hf_ddec_sum_bond_order
 _atom_site_hse06_10hf_magmom
 _atom_site_hse06_ddec_charge
 _atom_site_hse06_ddec_spin_density
 _atom_site_hse06_ddec_sum_bond_order
 _atom_site_hse06_magmom
 _atom_site_pbe_cm5_charge
 _atom_site_pbe_ddec_charge
 _atom_site_pbe_ddec_spin_density
 _atom_site_pbe_ddec_sum_bond_order
 _atom_site_pbe_magmom
Cu  Cu0  1  0.26197107  0.02872624  0.23126155  1  0.7651  -0.673752  2.015275  -0.466  0.744662  -0.779005  2.439893  -0.595  0.835668  -0.858964  2.361803  -0.68  0.6848  0.692392  -0.721768  2.488739  -0.54
Cu  Cu1  1  0.73803022  0.97127349  0.76873810  1  0.765037  0.673733  2.015312  0.466  0.744653  0.779006  2.439902  0.595  0.835704  0.858973  2.361812  0.68  0.684848  0.692383  0.721768  2.488734  0.54
H  H2  1  0.70919445  0.86286654  0.42184373  1  0.092052  0.000234  0.938271  0.0  0.10723  0.000124  1.002273  0.0  0.10957  9e-05  0.999562  0.0  0.108468  0.105975  0.000153  1.003862  0.0
H  H3  1  0.29080390  0.13712909  0.57815617  1  0.092129  -0.000232  0.938262  0.0  0.107255  -0.000123  1.002296  0.0  0.109594  -9e-05  0.999584  0.0  0.108471  0.106001  -0.000153  1.003889  0.0
H  H4  1  0.79783068  0.70970326  0.48128698  1  0.095222  -0.00025  0.913987  0.0  0.115661  -0.00014  0.967601  0.0  0.116732  -8.9e-05  0.966703  0.0  0.118977  0.11486  -0.000168  0.968233  0.0
H  H5  1  0.20217269  0.29029125  0.51871061  1  0.095227  0.00025  0.913959  0.0  0.115659  0.00014  0.967567  0.0  0.116727  8.9e-05  0.966672  0.0  0.118986  0.114861  0.000168  0.968191  0.0
H  H6  1  0.38431191  0.83375424  0.45832342  1  0.110799  -0.000141  0.978784  0.0  0.121232  -0.000166  1.041032  0.0  0.125276  -8.7e-05  1.037944  0.0  0.093707  0.118509  -0.000235  1.043031  0.0
H  H7  1  0.61567679  0.16625398  0.54168632  1  0.110815  0.00014  0.978669  0.0  0.121217  0.000167  1.040963  0.0  0.125261  8.8e-05  1.037875  0.0  0.093682  0.11849  0.000236  1.042964  0.0
H  H8  1  0.63375549  0.76123883  0.28285349  1  0.095634  0.000167  0.978387  0.0  0.103898  6e-05  1.045427  0.0  0.107084  5.1e-05  1.044087  0.0  0.093668  0.101731  7.2e-05  1.046439  0.0
H  H9  1  0.36624696  0.23876091  0.71714243  1  0.095597  -0.000164  0.97843  0.0  0.103869  -6e-05  1.045458  0.0  0.107056  -5.1e-05  1.044111  0.0  0.09365  0.101702  -7.2e-05  1.04647  0.0
H  H10  1  0.12072742  0.20360275  0.05272773  1  0.088372  -0.000907  0.959971  -0.002  0.09685  -0.000978  1.022506  -0.002  0.097825  -0.000713  1.022644  -0.001  0.117955  0.095472  -0.001202  1.02355  -0.002
H  H11  1  0.87927240  0.79639495  0.94726909  1  0.088354  0.000907  0.959948  0.002  0.096844  0.000978  1.02248  0.002  0.097818  0.000713  1.022618  0.001  0.117957  0.095477  0.001202  1.023508  0.002
H  H12  1  0.93837141  0.62658177  0.59541779  1  0.107196  -0.000408  0.951973  0.0  0.117446  -0.000348  1.014358  0.0  0.120237  -0.000245  1.01368  0.0  0.104731  0.115274  -0.000426  1.015218  0.0
H  H13  1  0.06163269  0.37341374  0.40458374  1  0.107198  0.000412  0.951971  0.0  0.117475  0.000348  1.014325  0.0  0.120267  0.000245  1.013645  0.0  0.104737  0.1153  0.000426  1.015187  0.0
H  H14  1  0.37142382  0.65883540  0.61685748  1  0.093232  5e-06  0.936892  0.0  0.10871  4.1e-05  0.985832  0.0  0.111537  3.1e-05  0.985223  0.0  0.102886  0.106606  4.6e-05  0.986478  0.0
H  H15  1  0.62857033  0.34117066  0.38314989  1  0.093249  -1e-06  0.936908  0.0  0.108738  -4.1e-05  0.985838  0.0  0.111565  -3.1e-05  0.985228  0.0  0.102912  0.106639  -4.6e-05  0.986484  0.0
H  H16  1  0.71426389  0.62711346  0.09382778  1  0.082468  0.00043  1.01445  0.0  0.092245  9.1e-05  1.081635  0.0  0.094949  2.7e-05  1.080469  0.0  0.089125  0.090245  0.000184  1.082285  0.0
H  H17  1  0.28574004  0.37288837  0.90616423  1  0.082417  -0.000429  1.01458  0.0  0.092199  -9.1e-05  1.081757  0.0  0.094901  -2.7e-05  1.080595  0.0  0.089093  0.090194  -0.000184  1.082413  0.0
H  H18  1  0.67516705  0.12558229  0.11938888  1  0.101141  -7.2e-05  0.965377  0.0  0.111949  9.7e-05  1.024571  0.0  0.114408  0.000117  1.022705  0.0  0.102724  0.109879  4.1e-05  1.026314  0.0
H  H19  1  0.32483308  0.87441746  0.88061196  1  0.101121  7.5e-05  0.965361  0.0  0.111928  -9.7e-05  1.024558  0.0  0.114387  -0.000117  1.022695  0.0  0.102716  0.10986  -4.1e-05  1.026298  0.0
H  H20  1  0.73410483  0.96672886  0.27213288  1  0.107616  -0.001256  1.007056  -0.001  0.118771  -0.001309  1.067256  -0.001  0.122126  -0.000976  1.065676  -0.001  0.099401  0.116105  -0.001539  1.069213  -0.001
H  H21  1  0.26589215  0.03327302  0.72786963  1  0.107689  0.001255  1.007009  0.001  0.118754  0.001309  1.067306  0.001  0.122109  0.000977  1.065727  0.001  0.099391  0.116085  0.001539  1.069272  0.001
H  H22  1  0.87004719  0.24923004  0.00454290  1  0.101736  -0.000564  0.974028  0.0  0.10885  -0.000575  1.040439  -0.001  0.111169  -0.00041  1.041222  0.0  0.102254  0.106998  -0.000713  1.039876  -0.001
H  H23  1  0.12995106  0.75076872  0.99545518  1  0.101753  0.00056  0.974039  0.0  0.108865  0.000575  1.040439  0.001  0.111184  0.00041  1.041223  0.0  0.102248  0.107007  0.000713  1.039879  0.001
H  H24  1  0.13521179  0.60037157  0.25563797  1  0.097858  1.3e-05  0.942982  0.0  0.110964  1.5e-05  0.996671  0.0  0.113985  1.1e-05  0.995608  0.0  0.101555  0.108943  1.8e-05  0.997253  0.0
H  H25  1  0.86479191  0.39962502  0.74435942  1  0.09787  -1.3e-05  0.942949  0.0  0.110951  -1.5e-05  0.996671  0.0  0.11397  -1.1e-05  0.99561  0.0  0.101555  0.108926  -1.8e-05  0.997253  0.0
H  H26  1  0.21901923  0.46796082  0.06392804  1  0.092623  1e-05  0.97553  0.0  0.104251  -2e-06  1.035573  0.0  0.106992  1e-06  1.034001  0.0  0.099469  0.102802  8e-06  1.035321  0.0
H  H27  1  0.78098428  0.53204204  0.93606742  1  0.092647  -9e-06  0.975522  0.0  0.104298  2e-06  1.035545  0.0  0.107049  -1e-06  1.033963  0.0  0.099478  0.102841  -8e-06  1.035305  0.0
H  H28  1  0.15079230  0.56038439  0.68467181  1  0.084722  2.6e-05  0.997093  0.0  0.094251  8e-06  1.060938  0.0  0.095179  7e-06  1.063672  0.0  0.094019  0.093444  9e-06  1.059176  0.0
H  H29  1  0.84920865  0.43961324  0.31533310  1  0.084714  -2.6e-05  0.997097  0.0  0.094234  -8e-06  1.060943  0.0  0.095162  -7e-06  1.063678  0.0  0.094034  0.093427  -9e-06  1.059189  0.0
C  C30  1  0.44887601  0.17765435  0.03011035  1  0.304545  0.009426  4.010598  0.006  0.3072  -0.004029  4.316043  -0.008  0.334484  -0.002515  4.330423  -0.006  0.152807  0.288713  -0.004866  4.305351  -0.009
C  C31  1  0.55112987  0.82233387  0.96988764  1  0.304444  -0.009421  4.010509  -0.006  0.307031  0.004032  4.316017  0.008  0.334314  0.002518  4.330409  0.006  0.152829  0.288543  0.004871  4.305314  0.009
C  C32  1  0.01480650  0.91192475  0.33234285  1  0.27239  0.003354  3.708075  0.003  0.236084  -1.6e-05  3.979656  0.0  0.254675  0.000865  3.992051  0.001  0.229182  0.223894  -0.000658  3.971603  -0.001
C  C33  1  0.98518860  0.08807611  0.66766113  1  0.272322  -0.003342  3.708165  -0.003  0.235989  1.1e-05  3.979746  0.0  0.254583  -0.000862  3.99214  -0.001  0.22913  0.223794  0.000658  3.971705  0.001
C  C34  1  0.17154546  0.82435510  0.43577332  1  0.165355  -0.001058  3.794466  -0.001  0.16696  -0.001911  4.039925  -0.001  0.171889  -0.001128  4.063964  -0.001  0.090698  0.163094  -0.002481  4.025  -0.002
C  C35  1  0.82844754  0.17565097  0.56423440  1  0.165267  0.00104  3.79444  0.001  0.166901  0.001911  4.039818  0.001  0.17183  0.001131  4.063857  0.001  0.090653  0.163037  0.002481  4.024876  0.002
C  C36  1  0.87796915  0.69039398  0.28430044  1  0.054003  0.0006  3.768093  0.001  0.073715  0.000231  4.011452  0.0  0.073079  0.000182  4.035614  0.0  -0.018605  0.074697  0.000213  3.994947  0.0
C  C37  1  0.12203916  0.30960254  0.71569473  1  0.054022  -0.000599  3.768168  -0.001  0.073711  -0.000231  4.011544  0.0  0.073073  -0.00018  4.035709  0.0  -0.018597  0.074686  -0.000213  3.995044  0.0
C  C38  1  0.82407983  0.77344027  0.40323455  1  -0.031778  -0.000419  3.652696  -0.001  -0.101689  -0.000353  3.901535  -0.001  -0.096699  -0.000316  3.909708  -0.001  -0.04604  -0.105197  -0.000391  3.895707  -0.001
C  C39  1  0.17592460  0.22655732  0.59676594  1  -0.031874  0.000419  3.652778  0.001  -0.101721  0.000353  3.901551  0.001  -0.096723  0.000316  3.909705  0.001  -0.046075  -0.105229  0.000391  3.895733  0.001
C  C40  1  0.96112428  0.99843318  0.24381735  1  0.149928  0.002044  3.788545  0.002  0.151136  -0.000544  4.03304  0.0  0.156361  0.000424  4.05412  0.001  0.118356  0.14752  -0.001209  4.020086  -0.001
C  C41  1  0.03887239  0.00156662  0.75618537  1  0.1499  -0.00207  3.78865  -0.002  0.151179  0.000539  4.033049  0.0  0.156406  -0.000424  4.054124  -0.001  0.118394  0.147559  0.001209  4.020108  0.001
C  C42  1  0.97474487  0.53703760  0.05994293  1  0.040503  -0.00025  3.774671  0.0  0.053445  -7e-06  4.008609  0.0  0.052991  -3.3e-05  4.033305  0.0  -0.009925  0.053767  -4.6e-05  3.992324  0.0
C  C43  1  0.02526481  0.46296411  0.94005157  1  0.04054  0.000246  3.77456  0.0  0.053643  1.3e-05  4.008361  0.0  0.053188  2.8e-05  4.033057  0.0  -0.00978  0.053964  4.6e-05  3.992071  0.0
C  C44  1  0.29085317  0.78628729  0.48665366  1  -0.135617  -0.001027  3.729485  -0.001  -0.154866  -0.000551  3.972698  -0.001  -0.157519  -0.000596  3.992025  -0.001  -0.094943  -0.153186  -0.000542  3.959823  -0.001
C  C45  1  0.70913972  0.21372191  0.51335477  1  -0.135567  0.001056  3.72938  0.001  -0.154781  0.000547  3.972561  0.001  -0.157434  0.000593  3.991888  0.001  -0.094885  -0.1531  0.000542  3.959676  0.001
C  C46  1  0.04704132  0.76495940  0.47400381  1  0.105076  -0.004528  3.773001  -0.005  0.090205  -0.00318  4.026958  -0.004  0.093474  -0.002593  4.050101  -0.003  0.095059  0.088125  -0.003572  4.011287  -0.004
C  C47  1  0.95295713  0.23504453  0.52599900  1  0.105138  0.004543  3.772966  0.005  0.090298  0.003181  4.026829  0.004  0.093564  0.00259  4.049973  0.003  0.095126  0.088217  0.003571  4.011157  0.004
C  C48  1  0.76220731  0.69488524  0.23641618  1  -0.113195  -0.000278  3.751582  0.0  -0.129375  -5.1e-05  3.991505  0.0  -0.131903  -3.9e-05  4.011972  0.0  -0.091784  -0.127244  -6.3e-05  3.977148  0.0
C  C49  1  0.23780059  0.30511233  0.76357991  1  -0.113138  0.000272  3.751458  0.0  -0.12932  5.1e-05  3.991415  0.0  -0.131847  3.6e-05  4.011879  0.0  -0.091782  -0.127186  6.3e-05  3.977056  0.0
C  C50  1  0.03176278  0.15343324  0.09886343  1  0.145232  0.005021  3.67357  0.006  0.118213  0.000947  3.923273  0.002  0.127214  0.001981  3.942333  0.003  0.056804  0.111858  0.00011  3.912288  0.001
C  C51  1  0.96823546  0.84656552  0.90113549  1  0.145234  -0.005043  3.673466  -0.006  0.118192  -0.000943  3.923193  -0.002  0.127196  -0.001986  3.94225  -0.003  0.056795  0.111828  -0.00011  3.912194  -0.001
C  C52  1  0.03632050  0.66938998  0.56378248  1  -0.162649  8.4e-05  3.774417  0.0  -0.188498  -0.000639  4.04484  0.0  -0.19355  -0.000387  4.066456  0.0  -0.099496  -0.18501  -0.000778  4.030436  -0.001
C  C53  1  0.96367482  0.33061610  0.43621949  1  -0.162674  -0.000118  3.774421  0.0  -0.188584  0.000639  4.044833  0.0  -0.193632  0.000388  4.066447  0.0  -0.099537  -0.185091  0.000778  4.030428  0.001
C  C54  1  0.28118171  0.68993583  0.57485134  1  -0.070939  0.001474  3.782044  0.001  -0.084357  0.000636  4.03026  0.001  -0.087386  0.000674  4.053064  0.001  -0.096243  -0.082097  0.000605  4.014526  0.001
C  C55  1  0.71881161  0.31007233  0.42515534  1  -0.071014  -0.001508  3.782054  -0.001  -0.084469  -0.000632  4.030278  -0.001  -0.087498  -0.000674  4.053082  -0.001  -0.096282  -0.082214  -0.000605  4.014546  -0.001
C  C56  1  0.80966985  0.61888344  0.12695718  1  -0.102885  0.000686  3.73661  0.001  -0.119562  0.000155  3.976357  0.0  -0.121993  9.6e-05  3.997088  0.0  -0.090576  -0.117772  0.000234  3.962325  0.0
C  C57  1  0.19033754  0.38111833  0.87303547  1  -0.102793  -0.000684  3.736723  -0.001  -0.119508  -0.000158  3.976429  0.0  -0.121941  -9.1e-05  3.997166  0.0  -0.090543  -0.117713  -0.000234  3.96239  0.0
C  C58  1  0.78562079  0.10908824  0.13612568  1  0.005634  0.005692  3.699791  0.005  -0.008231  0.002523  3.937398  0.002  -0.003692  0.00275  3.952198  0.003  -0.062028  -0.011956  0.002271  3.928984  0.002
C  C59  1  0.21437829  0.89090840  0.86387646  1  0.00572  -0.005722  3.699665  -0.005  -0.008158  -0.002523  3.937276  -0.002  -0.003624  -0.00275  3.952085  -0.003  -0.061989  -0.011876  -0.002272  3.928853  -0.002
C  C60  1  0.82003111  0.01789142  0.22235322  1  -0.121038  -0.004927  3.686712  -0.005  -0.140656  -0.003225  3.925044  -0.003  -0.145018  -0.002807  3.942988  -0.003  -0.076111  -0.138718  -0.003557  3.915015  -0.004
C  C61  1  0.17996818  0.98211043  0.77764776  1  -0.121115  0.004953  3.686612  0.005  -0.140694  0.003231  3.92498  0.003  -0.145056  0.002805  3.942923  0.003  -0.076137  -0.138757  0.003557  3.914961  0.004
C  C62  1  0.89269251  0.17785705  0.07299865  1  -0.107585  -0.00696  3.703143  -0.007  -0.119842  -0.003801  3.947782  -0.004  -0.125484  -0.00334  3.967225  -0.004  -0.077752  -0.115744  -0.004159  3.935377  -0.005
C  C63  1  0.10730616  0.82214067  0.92699851  1  -0.10764  0.006992  3.703138  0.007  -0.119908  0.003796  3.947825  0.004  -0.125552  0.003343  3.967266  0.004  -0.077784  -0.115809  0.004159  3.935421  0.005
C  C64  1  0.04207771  0.60631022  0.22044772  1  -0.117442  -0.000243  3.755916  0.0  -0.139235  -3.4e-05  4.007756  0.0  -0.141554  -5.1e-05  4.028214  0.0  -0.096052  -0.137658  -4e-06  3.993878  0.0
C  C65  1  0.95793019  0.39368736  0.77954583  1  -0.117412  0.000238  3.755801  0.0  -0.139177  3.4e-05  4.007678  0.0  -0.141494  4.9e-05  4.028139  0.0  -0.096023  -0.137595  4e-06  3.993794  0.0
C  C66  1  0.08967381  0.53083264  0.11058296  1  -0.10239  0.000362  3.733409  0.0  -0.118682  9.1e-05  3.978327  0.0  -0.120844  8e-05  3.998742  0.0  -0.087074  -0.116876  0.00014  3.9644  0.0
C  C67  1  0.91033052  0.46916811  0.88941319  1  -0.102527  -0.000357  3.733134  0.0  -0.118875  -9.5e-05  3.978019  0.0  -0.121048  -7.6e-05  3.99843  0.0  -0.08716  -0.117064  -0.00014  3.964091  0.0
C  C68  1  0.15565565  0.63315946  0.61347879  1  -0.061334  -0.000835  3.77719  -0.001  -0.077466  -0.000294  4.031039  0.0  -0.079201  -0.000431  4.055873  0.0  -0.096297  -0.075767  -0.000204  4.013732  0.0
C  C69  1  0.84433977  0.36684349  0.38652330  1  -0.061255  0.000863  3.777134  0.001  -0.077393  0.000292  4.03101  0.0  -0.079127  0.000431  4.055839  0.0  -0.096311  -0.075695  0.000204  4.013712  0.0
S  S70  1  0.57574954  0.23447677  0.92332579  1  -0.309404  -0.048013  2.033805  -0.044  -0.337039  -0.007953  2.335492  -0.007  -0.357586  -0.003188  2.32732  -0.003  -0.150618  -0.318856  -0.014365  2.334873  -0.013
S  S71  1  0.42425679  0.76552189  0.07666734  1  -0.309172  0.04802  2.033993  0.044  -0.336908  0.007952  2.335665  0.007  -0.35744  0.00319  2.327482  0.003  -0.150608  -0.318744  0.014362  2.33507  0.013
N  N72  1  0.14674368  0.91572546  0.34815027  1  -0.42454  -0.069165  3.268503  -0.084  -0.389017  -0.054597  3.577085  -0.07  -0.422682  -0.045975  3.595474  -0.062  -0.363853  -0.369988  -0.058722  3.567712  -0.073
N  N73  1  0.85324752  0.08427648  0.65185819  1  -0.424525  0.069155  3.268439  0.083  -0.388981  0.054597  3.576989  0.07  -0.422649  0.045966  3.595385  0.062  -0.363916  -0.369949  0.058718  3.567607  0.073
N  N74  1  0.95027223  0.82228109  0.40693645  1  -0.132451  0.000899  3.473459  0.001  -0.045404  7.7e-05  3.693  0.0  -0.061552  0.000383  3.715341  0.001  -0.22772  -0.034165  -0.000113  3.677209  0.0
N  N75  1  0.04972517  0.17771973  0.59306852  1  -0.132502  -0.000908  3.473387  -0.001  -0.045425  -7.7e-05  3.69283  0.0  -0.061575  -0.000383  3.71517  -0.001  -0.227698  -0.034187  0.000113  3.677051  0.0
N  N76  1  0.35074476  0.13929928  0.10686631  1  -0.527439  -0.073224  3.08141  -0.085  -0.51009  -0.044276  3.397803  -0.054  -0.544638  -0.037768  3.400657  -0.047  -0.434176  -0.488312  -0.048488  3.396394  -0.057
N  N77  1  0.64926650  0.86068995  0.89312160  1  -0.527499  0.073243  3.081083  0.085  -0.510012  0.044276  3.397515  0.054  -0.544572  0.037764  3.400397  0.047  -0.434226  -0.488234  0.048488  3.396101  0.057
N  N78  1  0.06459135  0.06636526  0.18182338  1  -0.324433  -0.065146  3.324749  -0.079  -0.272549  -0.060161  3.604948  -0.079  -0.303538  -0.051208  3.629952  -0.071  -0.331049  -0.254891  -0.064215  3.591007  -0.081
N  N79  1  0.93540763  0.93363453  0.81817527  1  -0.32441  0.065162  3.324778  0.079  -0.27249  0.060161  3.604944  0.079  -0.30349  0.05121  3.62996  0.071  -0.331034  -0.25483  0.064215  3.591002  0.081
Cl  Cl80  1  0.42086730  0.03887277  0.33089827  1  -0.513308  -0.140002  0.913542  -0.156  -0.517419  -0.088366  1.188949  -0.105  -0.552121  -0.068113  1.166844  -0.084  -0.306311  -0.4975  -0.099315  1.204803  -0.114
Cl  Cl81  1  0.57913125  0.96112804  0.66910382  1  -0.513299  0.140014  0.913553  0.156  -0.517428  0.088367  1.188963  0.105  -0.552147  0.068113  1.166866  0.084  -0.306312  -0.497512  0.099319  1.204814  0.114
