# generated using pymatgen
data_EuH19C24(N3O4)2
_symmetry_space_group_name_H-M   'P 1'
_cell_length_a   11.22114658
_cell_length_b   13.08573996
_cell_length_c   18.93701674
_cell_angle_alpha   89.99921059
_cell_angle_beta   88.24267862
_cell_angle_gamma   89.99535726
_symmetry_Int_Tables_number   1
_chemical_formula_structural   EuH19C24(N3O4)2
_chemical_formula_sum   'Eu4 H76 C96 N24 O32'
_cell_volume   2779.34703916
_cell_formula_units_Z   4
loop_
 _symmetry_equiv_pos_site_id
 _symmetry_equiv_pos_as_xyz
  1  'x, y, z'
loop_
 _atom_site_type_symbol
 _atom_site_label
 _atom_site_symmetry_multiplicity
 _atom_site_fract_x
 _atom_site_fract_y
 _atom_site_fract_z
 _atom_site_occupancy
 _atom_site_pbe_bader_charge
 _atom_site_pbe_bader_spin_density
 _atom_site_pbe_cm5_charge
 _atom_site_pbe_ddec_charge
 _atom_site_pbe_ddec_spin_density
 _atom_site_pbe_ddec_sum_bond_order
 _atom_site_pbe_magmom
Eu  Eu0  1  0.64576091  0.09154064  0.99437732  1  2.180577  0  1.482853  2.077296  0  2.170572  0
Eu  Eu1  1  0.85423802  0.59154736  0.50562716  1  2.180528  0  1.482915  2.077515  0  2.17031  0
Eu  Eu2  1  0.35423961  0.90845818  0.00562305  1  2.180534  0  1.482837  2.077283  0  2.170561  0
Eu  Eu3  1  0.14576160  0.40845300  0.49437374  1  2.180497  0  1.482882  2.077475  0  2.170323  0
H  H4  1  0.89273896  0.07078471  0.01703498  1  0.636394  0  0.315021  0.402665  0  0.903299  0
H  H5  1  0.60726221  0.57080001  0.48296510  1  0.636361  0  0.3151  0.402753  0  0.903165  0
H  H6  1  0.10726073  0.92921565  0.98296381  1  0.636413  0  0.315003  0.402634  0  0.90334  0
H  H7  1  0.39273740  0.42919958  0.51703580  1  0.636347  0  0.315079  0.40272  0  0.903215  0
H  H8  1  0.85778433  0.97483541  0.97582526  1  0.647245  0  0.316191  0.406283  0  0.897846  0
H  H9  1  0.64222238  0.47485655  0.52417547  1  0.647515  0  0.316377  0.406486  0  0.897623  0
H  H10  1  0.14221446  0.02516418  0.02417405  1  0.647246  0  0.316217  0.406338  0  0.897782  0
H  H11  1  0.35777812  0.52514305  0.47582543  1  0.647519  0  0.316382  0.406498  0  0.897606  0
H  H12  1  0.73346344  0.18874236  0.86682225  1  0.61288  0  0.319565  0.406609  0  0.890744  0
H  H13  1  0.76653542  0.68876491  0.63317825  1  0.612237  0  0.319562  0.406576  0  0.890813  0
H  H14  1  0.26653800  0.81125800  0.13317758  1  0.612879  0  0.319592  0.406655  0  0.890678  0
H  H15  1  0.23346598  0.31123698  0.36682264  1  0.612273  0  0.319557  0.406581  0  0.890808  0
H  H16  1  0.66107054  0.27908405  0.90705429  1  0.629854  0  0.287819  0.352699  0  1.015506  0
H  H17  1  0.83892691  0.77909164  0.59294758  1  0.62967  0  0.287733  0.352583  0  1.015642  0
H  H18  1  0.33892910  0.72091707  0.09294608  1  0.62996  0  0.28782  0.352704  0  1.015502  0
H  H19  1  0.16107451  0.22090872  0.40705279  1  0.629686  0  0.287741  0.352577  0  1.015655  0
H  H20  1  0.99115535  0.27928500  0.36162092  1  0.50141  0  0.314518  0.273383  0  1.005269  0
H  H21  1  0.50884601  0.77927423  0.13837478  1  0.504269  0  0.314511  0.273294  0  1.005402  0
H  H22  1  0.00884517  0.72071535  0.63837945  1  0.501506  0  0.314514  0.273296  0  1.00532  0
H  H23  1  0.49115363  0.22072613  0.86162559  1  0.504272  0  0.314501  0.273306  0  1.005361  0
H  H24  1  0.98348314  0.91953175  0.21484686  1  0.460651  0  0.334304  0.289792  0  0.90583  0
H  H25  1  0.51651017  0.41953283  0.28515405  1  0.460677  0  0.334314  0.289737  0  0.905871  0
H  H26  1  0.01651651  0.08046784  0.78515298  1  0.460657  0  0.334307  0.2898  0  0.905822  0
H  H27  1  0.48349129  0.58046677  0.71484526  1  0.460691  0  0.334331  0.289762  0  0.905796  0
H  H28  1  0.17679025  0.09383233  0.49483212  1  0.474688  0  0.323249  0.291636  0  0.937674  0
H  H29  1  0.32320818  0.59383816  0.00517152  1  0.474672  0  0.323194  0.291522  0  0.937824  0
H  H30  1  0.82321118  0.90616802  0.50516772  1  0.474694  0  0.323244  0.291622  0  0.937683  0
H  H31  1  0.67679235  0.40616143  0.99482885  1  0.474677  0  0.323197  0.291538  0  0.937793  0
H  H32  1  0.88670588  0.14374727  0.20013098  1  0.138588  0  0.101992  0.118248  0  1.058427  0
H  H33  1  0.61330086  0.64374589  0.29987058  1  0.138536  0  0.101984  0.118243  0  1.058298  0
H  H34  1  0.11329376  0.85625385  0.79986939  1  0.138582  0  0.101989  0.118242  0  1.058372  0
H  H35  1  0.38669965  0.35625217  0.70013031  1  0.138572  0  0.102008  0.118251  0  1.05834  0
H  H36  1  0.90281034  0.41990259  0.32435664  1  0.071737  0  0.110063  0.119941  0  1.009701  0
H  H37  1  0.59717505  0.91988644  0.17564113  1  0.071845  0  0.110066  0.119916  0  1.009854  0
H  H38  1  0.09718841  0.58009624  0.67564374  1  0.071889  0  0.110075  0.119948  0  1.009686  0
H  H39  1  0.40282189  0.08011392  0.82435978  1  0.071843  0  0.110023  0.119906  0  1.009914  0
H  H40  1  0.76825543  0.50619056  0.24234048  1  0.110699  0  0.104051  0.108481  0  1.002554  0
H  H41  1  0.73172355  0.00617411  0.25765336  1  0.111086  0  0.104008  0.108395  0  1.002556  0
H  H42  1  0.23174331  0.49380827  0.75765989  1  0.110703  0  0.10406  0.108514  0  1.002498  0
H  H43  1  0.26827424  0.99382625  0.74234861  1  0.111034  0  0.104007  0.108387  0  1.002614  0
H  H44  1  0.69104232  0.41053060  0.13868604  1  0.071982  0  0.097929  0.098329  0  1.038679  0
H  H45  1  0.80894850  0.91052429  0.36130914  1  0.071757  0  0.097862  0.098221  0  1.038594  0
H  H46  1  0.30895642  0.58946899  0.86131433  1  0.071975  0  0.097938  0.098355  0  1.038672  0
H  H47  1  0.19105024  0.08947530  0.63869123  1  0.071757  0  0.097859  0.09822  0  1.03857  0
H  H48  1  0.01928860  0.75310097  0.37000469  1  0.125045  0  0.11142  0.124774  0  1.038151  0
H  H49  1  0.48070372  0.25309565  0.13000029  1  0.125123  0  0.111424  0.12479  0  1.038169  0
H  H50  1  0.98071193  0.24690015  0.62999568  1  0.12502  0  0.111388  0.124755  0  1.038133  0
H  H51  1  0.51929596  0.74690547  0.86999903  1  0.12513  0  0.111442  0.124822  0  1.038133  0
H  H52  1  0.15415082  0.50500993  0.24051977  1  0.083276  0  0.105319  0.114321  0  0.993532  0
H  H53  1  0.34585897  0.00502827  0.25947558  1  0.083212  0  0.105269  0.114225  0  0.993616  0
H  H54  1  0.84585151  0.49498966  0.75948006  1  0.083278  0  0.10531  0.114304  0  0.993563  0
H  H55  1  0.65414071  0.99497285  0.74052374  1  0.083024  0  0.105288  0.114208  0  0.993585  0
H  H56  1  0.14247223  0.61684000  0.13324460  1  0.087951  0  0.104746  0.106431  0  0.994573  0
H  H57  1  0.35753765  0.11686152  0.36675299  1  0.087518  0  0.104725  0.10631  0  0.994482  0
H  H58  1  0.85752827  0.38316036  0.86675629  1  0.087942  0  0.104772  0.106468  0  0.994577  0
H  H59  1  0.64246109  0.88313807  0.63324739  1  0.087516  0  0.104748  0.106364  0  0.994486  0
H  H60  1  0.07482440  0.79600367  0.14567870  1  0.085144  0  0.112677  0.122372  0  1.00199  0
H  H61  1  0.42517468  0.29601308  0.35432378  1  0.085159  0  0.112682  0.12237  0  1.00188  0
H  H62  1  0.92517436  0.20399592  0.85432115  1  0.085183  0  0.112657  0.122351  0  1.00197  0
H  H63  1  0.57482500  0.70398651  0.64567553  1  0.085147  0  0.112676  0.122358  0  1.00188  0
H  H64  1  0.07428429  0.83141687  0.47434176  1  0.118566  0  0.11171  0.125439  0  1.026481  0
H  H65  1  0.42571238  0.33141208  0.02565991  1  0.118609  0  0.111675  0.125375  0  1.026421  0
H  H66  1  0.92571715  0.16858349  0.52565808  1  0.118561  0  0.111698  0.12545  0  1.026456  0
H  H67  1  0.57428725  0.66858751  0.97434046  1  0.118595  0  0.111672  0.125339  0  1.026442  0
H  H68  1  0.34227575  0.71043863  0.60936345  1  0.066334  0  0.099955  0.101481  0  1.013834  0
H  H69  1  0.15771956  0.21045223  0.89064168  1  0.066359  0  0.099996  0.101612  0  1.013594  0
H  H70  1  0.65772387  0.28956019  0.39063745  1  0.066345  0  0.099959  0.101491  0  1.013837  0
H  H71  1  0.84228188  0.78954965  0.10935815  1  0.066336  0  0.100008  0.101628  0  1.013512  0
H  H72  1  0.42924824  0.88566517  0.62023647  1  0.067924  0  0.096631  0.093536  0  1.046679  0
H  H73  1  0.07074841  0.38569270  0.87976879  1  0.067647  0  0.09662  0.093508  0  1.046585  0
H  H74  1  0.57074959  0.11433442  0.37976444  1  0.067935  0  0.096616  0.093491  0  1.046665  0
H  H75  1  0.92925220  0.61430919  0.12022947  1  0.06768  0  0.096605  0.09348  0  1.046695  0
H  H76  1  0.34817470  0.02929066  0.55130780  1  0.117807  0  0.106681  0.113971  0  1.000802  0
H  H77  1  0.15181984  0.52930965  0.94869673  1  0.117443  0  0.106699  0.113977  0  1.00093  0
H  H78  1  0.65182582  0.97070969  0.44869257  1  0.117726  0  0.106694  0.113988  0  1.000794  0
H  H79  1  0.84818073  0.47069071  0.05130258  1  0.117748  0  0.106711  0.113995  0  1.000903  0
C  C80  1  0.74099958  0.21509205  0.10162842  1  1.500861  0  0.194125  0.576977  0  4.21434  0
C  C81  1  0.75900053  0.71509538  0.39837099  1  1.501288  0  0.194208  0.57718  0  4.214223  0
C  C82  1  0.25900007  0.78490754  0.89837143  1  1.500898  0  0.194158  0.577011  0  4.214438  0
C  C83  1  0.24100089  0.28490421  0.60162937  1  1.501295  0  0.194161  0.577136  0  4.214161  0
C  C84  1  0.78599731  0.27275111  0.16316820  1  -0.017292  0  -0.022625  -0.02397  0  4.003679  0
C  C85  1  0.71399917  0.77274962  0.33683128  1  -0.017439  0  -0.022639  -0.024271  0  4.003913  0
C  C86  1  0.21400233  0.72724771  0.83683217  1  -0.017299  0  -0.022699  -0.024112  0  4.003784  0
C  C87  1  0.28600045  0.22724997  0.66316962  1  -0.017445  0  -0.022629  -0.024228  0  4.003818  0
C  C88  1  0.86186051  0.22287769  0.20951141  1  -0.024408  0  -0.093226  -0.190793  0  3.903179  0
C  C89  1  0.63814240  0.72287477  0.29048898  1  -0.024489  0  -0.093169  -0.190612  0  3.903063  0
C  C90  1  0.13813823  0.77712113  0.79048896  1  -0.024664  0  -0.093153  -0.190705  0  3.903008  0
C  C91  1  0.36185726  0.27712559  0.70951086  1  -0.024514  0  -0.093163  -0.190577  0  3.903014  0
C  C92  1  0.90375113  0.27553756  0.26809891  1  0.355274  0  0.097777  0.244625  0  4.031439  0
C  C93  1  0.59624782  0.77552572  0.23189895  1  0.355473  0  0.097801  0.244541  0  4.031391  0
C  C94  1  0.09624767  0.72446203  0.73189988  1  0.355833  0  0.097766  0.244594  0  4.031377  0
C  C95  1  0.40375182  0.22447463  0.76810142  1  0.355536  0  0.097789  0.244539  0  4.031251  0
C  C96  1  0.87009650  0.37846441  0.27888614  1  -0.06891  0  -0.090327  -0.17402  0  3.940884  0
C  C97  1  0.62989280  0.87845043  0.22111090  1  -0.06927  0  -0.090418  -0.17411  0  3.941165  0
C  C98  1  0.12990139  0.62153518  0.72111318  1  -0.069452  0  -0.090355  -0.174063  0  3.94085  0
C  C99  1  0.37010503  0.12154763  0.77889000  1  -0.069292  0  -0.090388  -0.17415  0  3.941216  0
C  C100  1  0.79459780  0.42707690  0.23267720  1  -0.044762  0  -0.093315  -0.07445  0  4.039766  0
C  C101  1  0.70538790  0.92706439  0.26731786  1  -0.045241  0  -0.09319  -0.074271  0  4.039719  0
C  C102  1  0.20540003  0.57292345  0.76732370  1  -0.04462  0  -0.093318  -0.074499  0  4.039738  0
C  C103  1  0.29461080  0.07293444  0.73268357  1  -0.044781  0  -0.093204  -0.074252  0  4.039862  0
C  C104  1  0.75160283  0.37427111  0.17475815  1  -0.024394  0  -0.096105  -0.117627  0  4.010091  0
C  C105  1  0.74838869  0.87426515  0.32523786  1  -0.02349  0  -0.09603  -0.117382  0  4.009944  0
C  C106  1  0.24839678  0.62572849  0.82524275  1  -0.024421  0  -0.096071  -0.117577  0  4.010091  0
C  C107  1  0.25161001  0.12573444  0.67476357  1  -0.023933  0  -0.096029  -0.117412  0  4.009901  0
C  C108  1  0.01381751  0.13564392  0.33054997  1  1.573927  0  0.353789  0.560991  0  4.104248  0
C  C109  1  0.48618341  0.63563362  0.16944908  1  1.573739  0  0.353855  0.561069  0  4.104032  0
C  C110  1  0.98618391  0.86435491  0.66945039  1  1.573902  0  0.353772  0.560899  0  4.10424  0
C  C111  1  0.51381802  0.36436750  0.83055075  1  1.573819  0  0.353912  0.56112  0  4.104048  0
C  C112  1  0.03066777  0.96644181  0.30921446  1  1.562548  0  0.35211  0.547103  0  4.12334  0
C  C113  1  0.46933206  0.46644142  0.19079189  1  1.562411  0  0.35217  0.547034  0  4.123497  0
C  C114  1  0.96933278  0.03355855  0.69078538  1  1.562451  0  0.352145  0.547177  0  4.12324  0
C  C115  1  0.53066846  0.53355741  0.80920848  1  1.562365  0  0.352152  0.547039  0  4.123467  0
C  C116  1  0.10628512  0.03030542  0.40861641  1  1.575314  0  0.353221  0.551564  0  4.120418  0
C  C117  1  0.39371667  0.53030922  0.09138563  1  1.575378  0  0.353283  0.551672  0  4.120359  0
C  C118  1  0.89371547  0.96969494  0.59138237  1  1.575327  0  0.353266  0.551503  0  4.120432  0
C  C119  1  0.60628216  0.46969038  0.90861263  1  1.57531  0  0.353285  0.551623  0  4.120218  0
C  C120  1  0.04900018  0.78797334  0.25908882  1  0.309719  0  0.10032  0.245436  0  4.038917  0
C  C121  1  0.45099600  0.28797631  0.24091586  1  0.309612  0  0.100523  0.245794  0  4.038996  0
C  C122  1  0.95100126  0.21202625  0.74091102  1  0.309697  0  0.100437  0.245599  0  4.038943  0
C  C123  1  0.54900366  0.71202481  0.75908399  1  0.309641  0  0.100475  0.24567  0  4.038895  0
C  C124  1  0.04897263  0.72427594  0.31860756  1  0.016498  0  -0.079487  -0.177747  0  3.884478  0
C  C125  1  0.45102337  0.22427855  0.18139552  1  0.016442  0  -0.079655  -0.178055  0  3.884865  0
C  C126  1  0.95102786  0.27572442  0.68139386  1  0.016569  0  -0.079525  -0.177847  0  3.884598  0
C  C127  1  0.54897716  0.77572181  0.81860484  1  0.016402  0  -0.079635  -0.177988  0  3.884808  0
C  C128  1  0.08629036  0.62258845  0.31091248  1  0.051998  0  -0.012106  -0.01571  0  3.965283  0
C  C129  1  0.41371270  0.12259504  0.18908615  1  0.052298  0  -0.012147  -0.015537  0  3.96544  0
C  C130  1  0.91371015  0.37741267  0.68908842  1  0.051999  0  -0.012096  -0.015707  0  3.965276  0
C  C131  1  0.58628693  0.87740379  0.81091422  1  0.052279  0  -0.012117  -0.015561  0  3.96555  0
C  C132  1  0.12323500  0.58376616  0.24475300  1  -0.071012  0  -0.088954  -0.110681  0  3.970309  0
C  C133  1  0.37677443  0.08377937  0.25524433  1  -0.070789  0  -0.088973  -0.110785  0  3.97053  0
C  C134  1  0.87676642  0.41623496  0.75524736  1  -0.071056  0  -0.088983  -0.110711  0  3.970352  0
C  C135  1  0.62322433  0.91621945  0.74475551  1  -0.070556  0  -0.089002  -0.110717  0  3.970738  0
C  C136  1  0.11686085  0.64606685  0.18541916  1  -0.058974  0  -0.092262  -0.065935  0  4.046393  0
C  C137  1  0.38314266  0.14608074  0.31457980  1  -0.059296  0  -0.092183  -0.065774  0  4.046001  0
C  C138  1  0.88313969  0.35393351  0.81458068  1  -0.058978  0  -0.092248  -0.06594  0  4.046364  0
C  C139  1  0.61685791  0.85391962  0.68541951  1  -0.059341  0  -0.092255  -0.065937  0  4.046331  0
C  C140  1  0.07940973  0.74723088  0.19233250  1  -0.048957  0  -0.092707  -0.194216  0  3.97004  0
C  C141  1  0.42058939  0.24723924  0.30767197  1  -0.048562  0  -0.092618  -0.19404  0  3.969842  0
C  C142  1  0.92059084  0.25276871  0.80766681  1  -0.048974  0  -0.092762  -0.194238  0  3.969948  0
C  C143  1  0.57941028  0.75276188  0.69232734  1  -0.04856  0  -0.092594  -0.193975  0  3.969845  0
C  C144  1  0.08589830  0.55261473  0.37311871  1  1.525277  0  0.225586  0.641173  0  4.161216  0
C  C145  1  0.41410604  0.05262405  0.12687891  1  1.525298  0  0.225556  0.640993  0  4.161275  0
C  C146  1  0.91410223  0.44738562  0.62688166  1  1.525282  0  0.225641  0.641264  0  4.161076  0
C  C147  1  0.58589362  0.94737554  0.87312093  1  1.52529  0  0.225601  0.641035  0  4.16123  0
C  C148  1  0.20881287  0.93892890  0.50591096  1  0.382139  0  0.094815  0.240026  0  4.042423  0
C  C149  1  0.29118242  0.43893421  0.99409227  1  0.382081  0  0.094838  0.239956  0  4.042455  0
C  C150  1  0.79118859  0.06106992  0.49408835  1  0.382096  0  0.094767  0.239967  0  4.042477  0
C  C151  1  0.70881809  0.56106767  0.00590862  1  0.382071  0  0.094836  0.239995  0  4.042407  0
C  C152  1  0.15495514  0.84270621  0.50361233  1  -0.048367  0  -0.086509  -0.184547  0  3.916139  0
C  C153  1  0.34504212  0.34270772  0.99638959  1  -0.048569  0  -0.08642  -0.184236  0  3.915997  0
C  C154  1  0.84504451  0.15729338  0.49638752  1  -0.048322  0  -0.086483  -0.184519  0  3.916079  0
C  C155  1  0.65495758  0.65729340  0.00360920  1  -0.048447  0  -0.086409  -0.184192  0  3.916088  0
C  C156  1  0.20513430  0.76097086  0.53984389  1  -0.00242  0  -0.01806  -0.02582  0  3.990003  0
C  C157  1  0.29486158  0.26097658  0.96016188  1  -0.00216  0  -0.018139  -0.026044  0  3.990153  0
C  C158  1  0.79486536  0.23903026  0.46015595  1  -0.002428  0  -0.018054  -0.025849  0  3.990024  0
C  C159  1  0.70513722  0.73902378  0.03983691  1  -0.002652  0  -0.018121  -0.026069  0  3.990175  0
C  C160  1  0.30598693  0.77479497  0.58047924  1  -0.034649  0  -0.096172  -0.119666  0  3.991295  0
C  C161  1  0.19400944  0.27480853  0.91952641  1  -0.034567  0  -0.096132  -0.119651  0  3.991295  0
C  C162  1  0.69401362  0.22520539  0.41952060  1  -0.034666  0  -0.096173  -0.119653  0  3.991331  0
C  C163  1  0.80599022  0.72519106  0.08047343  1  -0.034509  0  -0.096152  -0.119676  0  3.991227  0
C  C164  1  0.35474605  0.87236049  0.58594561  1  -0.004981  0  -0.094099  -0.065278  0  4.037568  0
C  C165  1  0.14524922  0.37237832  0.91405871  1  -0.004055  0  -0.094091  -0.065237  0  4.037426  0
C  C166  1  0.64525355  0.12763986  0.41405582  1  -0.004959  0  -0.09408  -0.065266  0  4.037529  0
C  C167  1  0.85475317  0.62762203  0.08593954  1  -0.004185  0  -0.09407  -0.065195  0  4.037696  0
C  C168  1  0.30829825  0.95350807  0.54798911  1  -0.117925  0  -0.093709  -0.181307  0  3.974536  0
C  C169  1  0.19169296  0.45352344  0.95201507  1  -0.118368  0  -0.093742  -0.181327  0  3.97444  0
C  C170  1  0.69170315  0.04649229  0.45201178  1  -0.11784  0  -0.093717  -0.181306  0  3.974518  0
C  C171  1  0.80830848  0.54647768  0.04798476  1  -0.118575  0  -0.093754  -0.181361  0  3.97452  0
C  C172  1  0.14387358  0.65992792  0.53712572  1  1.573359  0  0.240969  0.659457  0  4.131447  0
C  C173  1  0.35612391  0.15993007  0.96287666  1  1.573309  0  0.240945  0.659436  0  4.131504  0
C  C174  1  0.85612692  0.34007168  0.46287518  1  1.573356  0  0.240925  0.659363  0  4.131552  0
C  C175  1  0.64387576  0.84006952  0.03712266  1  1.573618  0  0.240935  0.659431  0  4.131532  0
N  N176  1  0.97775847  0.23332288  0.31854063  1  -1.2826  0  -0.394149  -0.376258  0  3.552787  0
N  N177  1  0.52224544  0.73331338  0.18145491  1  -1.285764  0  -0.394153  -0.376035  0  3.552684  0
N  N178  1  0.02224300  0.76667594  0.68145867  1  -1.282748  0  -0.394101  -0.375959  0  3.55269  0
N  N179  1  0.47775509  0.26668850  0.81854545  1  -1.285846  0  -0.394207  -0.376121  0  3.552658  0
N  N180  1  0.98808745  0.05813212  0.28784770  1  -1.196336  0  -0.346208  -0.537029  0  3.207469  0
N  N181  1  0.51191392  0.55812656  0.21215512  1  -1.196439  0  -0.346262  -0.537086  0  3.207611  0
N  N182  1  0.01191491  0.94186823  0.71215160  1  -1.196198  0  -0.34625  -0.537087  0  3.207496  0
N  N183  1  0.48808843  0.44187227  0.78784418  1  -1.196468  0  -0.346244  -0.537072  0  3.207643  0
N  N184  1  0.08396500  0.94607825  0.37036285  1  -1.207424  0  -0.343624  -0.526458  0  3.191397  0
N  N185  1  0.41603495  0.44608585  0.12964366  1  -1.207222  0  -0.34369  -0.526458  0  3.191442  0
N  N186  1  0.91603554  0.05392211  0.62963699  1  -1.207412  0  -0.343627  -0.526459  0  3.191449  0
N  N187  1  0.58396470  0.55391451  0.87035618  1  -1.207257  0  -0.34366  -0.526437  0  3.191392  0
N  N188  1  0.07854355  0.12644634  0.38964485  1  -1.267516  0  -0.348178  -0.548196  0  3.350771  0
N  N189  1  0.42146017  0.62645089  0.11035057  1  -1.267277  0  -0.348249  -0.548415  0  3.350851  0
N  N190  1  0.92145698  0.87355402  0.61035551  1  -1.267469  0  -0.348246  -0.548259  0  3.350772  0
N  N191  1  0.57853946  0.37354871  0.88964980  1  -1.267288  0  -0.348293  -0.54842  0  3.350988  0
N  N192  1  0.01457973  0.89101494  0.26069135  1  -1.267925  0  -0.385747  -0.368127  0  3.570582  0
N  N193  1  0.48540944  0.39101247  0.23931302  1  -1.268307  0  -0.385859  -0.368178  0  3.570685  0
N  N194  1  0.98541901  0.10898542  0.73930903  1  -1.267951  0  -0.385758  -0.368162  0  3.57059  0
N  N195  1  0.51459019  0.60898712  0.76068734  1  -1.268278  0  -0.385874  -0.368188  0  3.570472  0
N  N196  1  0.16325623  0.02464016  0.47115599  1  -1.257668  0  -0.389387  -0.374075  0  3.534396  0
N  N197  1  0.33673894  0.52464382  0.02884665  1  -1.257657  0  -0.389398  -0.374061  0  3.534286  0
N  N198  1  0.83674255  0.97536096  0.52884333  1  -1.257717  0  -0.389348  -0.373947  0  3.534344  0
N  N199  1  0.66325984  0.47535730  0.97115266  1  -1.257512  0  -0.389409  -0.374085  0  3.534043  0
O  O200  1  0.77116599  0.12078919  0.09375676  1  -1.188788  0  -0.399741  -0.65534  0  2.19629  0
O  O201  1  0.72884372  0.62079676  0.40624657  1  -1.189199  0  -0.399881  -0.655432  0  2.196306  0
O  O202  1  0.22883549  0.87921193  0.90624202  1  -1.18883  0  -0.399766  -0.655372  0  2.196305  0
O  O203  1  0.27115767  0.37920284  0.59375432  1  -1.189186  0  -0.39981  -0.6554  0  2.196295  0
O  O204  1  0.67217024  0.25776500  0.05747264  1  -1.188032  0  -0.374483  -0.628225  0  2.172361  0
O  O205  1  0.82782494  0.75776113  0.44252749  1  -1.188019  0  -0.374504  -0.628309  0  2.172276  0
O  O206  1  0.32782670  0.74223612  0.94252827  1  -1.18802  0  -0.374503  -0.628215  0  2.172423  0
O  O207  1  0.17217739  0.24223846  0.55747234  1  -1.187992  0  -0.374515  -0.628282  0  2.172202  0
O  O208  1  0.00649314  0.56430608  0.42262007  1  -1.214732  0  -0.424581  -0.754694  0  2.424956  0
O  O209  1  0.49351359  0.06431694  0.07737903  1  -1.215019  0  -0.424462  -0.75445  0  2.425161  0
O  O210  1  0.99350830  0.43569428  0.57737977  1  -1.21476  0  -0.424635  -0.754797  0  2.424893  0
O  O211  1  0.50648608  0.93568265  0.92262028  1  -1.214978  0  -0.424526  -0.754485  0  2.425159  0
O  O212  1  0.16383284  0.48244630  0.37587049  1  -1.165783  0  -0.378468  -0.633411  0  2.191551  0
O  O213  1  0.33618113  0.98245576  0.12412352  1  -1.165418  0  -0.378497  -0.633396  0  2.191483  0
O  O214  1  0.83616860  0.51755406  0.62412935  1  -1.165774  0  -0.378463  -0.633396  0  2.191557  0
O  O215  1  0.66381852  0.01754384  0.87587632  1  -1.1654  0  -0.378478  -0.633382  0  2.191472  0
O  O216  1  0.03124151  0.65998521  0.54973148  1  -1.203156  0  -0.398112  -0.690101  0  2.390845  0
O  O217  1  0.46875626  0.15997747  0.95026403  1  -1.202946  0  -0.398136  -0.690074  0  2.390825  0
O  O218  1  0.96875902  0.34001361  0.45026889  1  -1.203186  0  -0.398078  -0.690036  0  2.390949  0
O  O219  1  0.53124431  0.84002212  0.04973528  1  -1.20295  0  -0.398144  -0.690071  0  2.390841  0
O  O220  1  0.20499231  0.58037215  0.52336222  1  -1.202017  0  -0.37519  -0.662744  0  2.285378  0
O  O221  1  0.29500931  0.08037982  0.97663499  1  -1.201995  0  -0.375163  -0.66271  0  2.285453  0
O  O222  1  0.79500813  0.41962668  0.47664026  1  -1.201999  0  -0.375217  -0.66272  0  2.285352  0
O  O223  1  0.70498946  0.91962053  0.02336486  1  -1.201997  0  -0.375165  -0.662698  0  2.285475  0
O  O224  1  0.87246481  0.04823547  0.96947021  1  -1.258681  0  -0.60318  -0.789931  0  1.947132  0
O  O225  1  0.62753206  0.54825598  0.53053147  1  -1.258967  0  -0.603454  -0.790244  0  1.946903  0
O  O226  1  0.12753489  0.95176489  0.03052858  1  -1.25871  0  -0.60318  -0.789957  0  1.947103  0
O  O227  1  0.37246758  0.45174361  0.46946890  1  -1.25895  0  -0.603442  -0.790231  0  1.946924  0
O  O228  1  0.71656142  0.21690444  0.91366779  1  -1.247917  0  -0.658667  -0.848799  0  2.16613  0
O  O229  1  0.78343930  0.71691451  0.58633142  1  -1.247051  0  -0.658614  -0.848761  0  2.166265  0
O  O230  1  0.28343822  0.78309591  0.08633258  1  -1.248004  0  -0.658689  -0.848835  0  2.166064  0
O  O231  1  0.21656211  0.28308509  0.41366895  1  -1.247087  0  -0.658617  -0.848747  0  2.166258  0
