# generated using pymatgen
data_CdH12C16(SN3)2
_symmetry_space_group_name_H-M   'P 1'
_cell_length_a   5.63393819
_cell_length_b   7.28650519
_cell_length_c   21.08457435
_cell_angle_alpha   89.99989879
_cell_angle_beta   95.67121875
_cell_angle_gamma   90.00113858
_symmetry_Int_Tables_number   1
_chemical_formula_structural   CdH12C16(SN3)2
_chemical_formula_sum   'Cd2 H24 C32 S4 N12'
_cell_volume   861.32142357
_cell_formula_units_Z   2
loop_
 _symmetry_equiv_pos_site_id
 _symmetry_equiv_pos_as_xyz
  1  'x, y, z'
loop_
 _atom_site_type_symbol
 _atom_site_label
 _atom_site_symmetry_multiplicity
 _atom_site_fract_x
 _atom_site_fract_y
 _atom_site_fract_z
 _atom_site_occupancy
 _atom_site_hle17_bader_spin_density
 _atom_site_hle17_ddec_charge
 _atom_site_hle17_ddec_spin_density
 _atom_site_hle17_ddec_sum_bond_order
 _atom_site_hle17_magmom
 _atom_site_hse06_10hf_bader_spin_density
 _atom_site_hse06_10hf_ddec_charge
 _atom_site_hse06_10hf_ddec_spin_density
 _atom_site_hse06_10hf_ddec_sum_bond_order
 _atom_site_hse06_10hf_magmom
 _atom_site_hse06_bader_spin_density
 _atom_site_hse06_ddec_charge
 _atom_site_hse06_ddec_spin_density
 _atom_site_hse06_ddec_sum_bond_order
 _atom_site_hse06_magmom
 _atom_site_pbe_bader_spin_density
 _atom_site_pbe_cm5_charge
 _atom_site_pbe_ddec_charge
 _atom_site_pbe_ddec_spin_density
 _atom_site_pbe_ddec_sum_bond_order
 _atom_site_pbe_magmom
Cd  Cd0  1  0.99999385  0.50001941  0.00000064  1  0  0.927189  0  2.040528  0  0  0.749954  0  2.507698  0  0  0.793094  0  2.472737  0  0  0.730231  0.719959  0  2.531125  0
Cd  Cd1  1  0.99999248  0.99998224  0.50000027  1  0  0.927087  0  2.040613  0  0  0.74982  0  2.5078  0  0  0.792963  0  2.472836  0  0  0.730236  0.719826  0  2.531228  0
H  H2  1  0.85589207  0.57775764  0.13474142  1  0  0.296663  0  0.900071  0  0  0.276136  0  0.968333  0  0  0.282729  0  0.963713  0  0  0.325378  0.271452  0  0.971672  0
H  H3  1  0.14410250  0.07775082  0.36526845  1  0  0.296711  0  0.899977  0  0  0.276157  0  0.968275  0  0  0.282753  0  0.963647  0  0  0.325375  0.271472  0  0.971616  0
H  H4  1  0.14409496  0.42225641  0.86526421  1  0  0.296647  0  0.900228  0  0  0.276089  0  0.968515  0  0  0.282685  0  0.963887  0  0  0.325334  0.271405  0  0.971854  0
H  H5  1  0.85587926  0.92223853  0.63473757  1  0  0.296657  0  0.8999  0  0  0.276118  0  0.968178  0  0  0.282714  0  0.963549  0  0  0.325334  0.271436  0  0.971518  0
H  H6  1  0.47463824  0.30940126  0.10882049  1  0  0.110144  0  0.951979  0  0  0.116668  0  1.021425  0  0  0.118608  0  1.019911  0  0  0.117951  0.11523  0  1.022515  0
H  H7  1  0.52532182  0.80938966  0.39117827  1  0  0.110205  0  0.951635  0  0  0.116632  0  1.021217  0  0  0.118571  0  1.019705  0  0  0.117933  0.115193  0  1.022303  0
H  H8  1  0.52534371  0.69060182  0.89117415  1  0  0.110221  0  0.951799  0  0  0.116704  0  1.021279  0  0  0.118643  0  1.019765  0  0  0.117991  0.115264  0  1.022374  0
H  H9  1  0.47464804  0.19057087  0.60881901  1  0  0.110307  0  0.952187  0  0  0.116762  0  1.02168  0  0  0.1187  0  1.020165  0  0  0.11797  0.115327  0  1.022766  0
H  H10  1  0.65318895  0.26582856  0.25209556  1  0  0.089878  0  0.996242  0  0  0.099108  0  1.060639  0  0  0.10076  0  1.061671  0  0  0.096455  0.09782  0  1.060077  0
H  H11  1  0.34680897  0.76583280  0.24790242  1  0  0.089886  0  0.996062  0  0  0.099087  0  1.060524  0  0  0.100754  0  1.061523  0  0  0.096464  0.097799  0  1.05996  0
H  H12  1  0.34681241  0.73417040  0.74789797  1  0  0.089902  0  0.995921  0  0  0.09907  0  1.060436  0  0  0.100746  0  1.061399  0  0  0.096523  0.097783  0  1.059876  0
H  H13  1  0.65320038  0.23416890  0.75209741  1  0  0.089865  0  0.996013  0  0  0.09908  0  1.060448  0  0  0.100755  0  1.061454  0  0  0.096441  0.097794  0  1.059886  0
H  H14  1  0.52943700  0.33759431  0.35940505  1  0  0.093107  0  0.975649  0  0  0.101646  0  1.040122  0  0  0.104063  0  1.04022  0  0  0.092664  0.099865  0  1.04022  0
H  H15  1  0.47058065  0.83760636  0.14059323  1  0  0.093074  0  0.97561  0  0  0.101577  0  1.040134  0  0  0.104009  0  1.040217  0  0  0.09264  0.099793  0  1.040231  0
H  H16  1  0.47059519  0.66238955  0.64059278  1  0  0.093103  0  0.975685  0  0  0.101595  0  1.04022  0  0  0.104033  0  1.040298  0  0  0.092663  0.099814  0  1.040314  0
H  H17  1  0.52942863  0.16240357  0.85940613  1  0  0.093078  0  0.975451  0  0  0.101579  0  1.039991  0  0  0.10401  0  1.040073  0  0  0.092619  0.099789  0  1.040088  0
H  H18  1  0.14344248  0.48857052  0.37132767  1  0  0.094187  0  0.956316  0  0  0.101922  0  1.022553  0  0  0.104981  0  1.020708  0  0  0.094627  0.099707  0  1.023889  0
H  H19  1  0.85658540  0.98857600  0.12867688  1  0  0.094281  0  0.956376  0  0  0.102039  0  1.022563  0  0  0.105098  0  1.020717  0  0  0.094641  0.099822  0  1.023901  0
H  H20  1  0.85658021  0.51141471  0.62867855  1  0  0.094274  0  0.956476  0  0  0.10206  0  1.022629  0  0  0.105098  0  1.020801  0  0  0.094648  0.099845  0  1.023965  0
H  H21  1  0.14341992  0.01143256  0.87131956  1  0  0.094236  0  0.956513  0  0  0.102058  0  1.022631  0  0  0.105113  0  1.020786  0  0  0.094666  0.099839  0  1.023969  0
H  H22  1  0.86937298  0.57922314  0.27624391  1  0  0.104832  0  0.990434  0  0  0.112777  0  1.054173  0  0  0.114822  0  1.055504  0  0  0.100339  0.111293  0  1.053424  0
H  H23  1  0.13064599  0.07922226  0.22376209  1  0  0.104688  0  0.99055  0  0  0.112707  0  1.054196  0  0  0.114754  0  1.055524  0  0  0.10026  0.111223  0  1.053447  0
H  H24  1  0.13064099  0.42077032  0.72376359  1  0  0.104759  0  0.990507  0  0  0.112793  0  1.054146  0  0  0.114841  0  1.055472  0  0  0.100315  0.11131  0  1.053397  0
H  H25  1  0.86934732  0.92078631  0.77623748  1  0  0.104736  0  0.990518  0  0  0.112747  0  1.054193  0  0  0.114797  0  1.055517  0  0  0.10031  0.111264  0  1.053445  0
C  C26  1  0.34004299  0.36962934  0.13588923  1  0  0.019143  0  3.653333  0  0  -0.028301  0  3.920484  0  0  -0.019209  0  3.933417  0  0  0.028087  -0.034007  0  3.911455  0
C  C27  1  0.65997347  0.86963222  0.36410712  1  0  0.019033  0  3.653677  0  0  -0.028334  0  3.920862  0  0  -0.019241  0  3.933799  0  0  0.028147  -0.034036  0  3.911828  0
C  C28  1  0.65995844  0.63037785  0.86410478  1  0  0.019131  0  3.653203  0  0  -0.028244  0  3.92035  0  0  -0.019152  0  3.933283  0  0  0.02814  -0.033949  0  3.911317  0
C  C29  1  0.34006908  0.13036674  0.63588852  1  0  0.018563  0  3.652705  0  0  -0.028872  0  3.9199  0  0  -0.019777  0  3.932827  0  0  0.027939  -0.034576  0  3.910866  0
C  C30  1  0.33253667  0.38435087  0.20292813  1  0  -0.049252  0  3.843022  0  0  -0.027312  0  4.076572  0  0  -0.034014  0  4.100173  0  0  -0.021682  -0.023131  0  4.060663  0
C  C31  1  0.66744651  0.88434730  0.29706908  1  0  -0.049365  0  3.843309  0  0  -0.027382  0  4.07693  0  0  -0.034083  0  4.10053  0  0  -0.021712  -0.023206  0  4.061019  0
C  C32  1  0.66745049  0.61565906  0.79706564  1  0  -0.04922  0  3.842979  0  0  -0.027351  0  4.076599  0  0  -0.034053  0  4.1002  0  0  -0.02169  -0.023172  0  4.060692  0
C  C33  1  0.33254178  0.11564480  0.70293278  1  0  -0.049034  0  3.842888  0  0  -0.027006  0  4.076385  0  0  -0.033703  0  4.09999  0  0  -0.02167  -0.022831  0  4.060479  0
C  C34  1  0.48446389  0.33406851  0.25715761  1  0  -0.088677  0  3.764826  0  0  -0.109358  0  4.011273  0  0  -0.107579  0  4.031087  0  0  -0.090109  -0.110158  0  3.997816  0
C  C35  1  0.51555037  0.83407116  0.24284251  1  0  -0.088653  0  3.764992  0  0  -0.109315  0  4.01144  0  0  -0.10754  0  4.031258  0  0  -0.090088  -0.110117  0  3.997984  0
C  C36  1  0.51555357  0.66592907  0.74283666  1  0  -0.0887  0  3.765143  0  0  -0.109364  0  4.01164  0  0  -0.10758  0  4.031475  0  0  -0.090183  -0.110161  0  3.998172  0
C  C37  1  0.48445911  0.16592642  0.75715827  1  0  -0.088653  0  3.765019  0  0  -0.109315  0  4.011403  0  0  -0.107562  0  4.031213  0  0  -0.090081  -0.110117  0  3.997947  0
C  C38  1  0.41361434  0.37352984  0.31675269  1  0  -0.100537  0  3.766357  0  0  -0.114055  0  4.02095  0  0  -0.119182  0  4.042901  0  0  -0.104629  -0.110758  0  4.006116  0
C  C39  1  0.58639939  0.87354205  0.18324883  1  0  -0.100402  0  3.766081  0  0  -0.113914  0  4.020716  0  0  -0.119056  0  4.042664  0  0  -0.104587  -0.110613  0  4.005878  0
C  C40  1  0.58640214  0.62645813  0.68324726  1  0  -0.100338  0  3.766423  0  0  -0.113824  0  4.021034  0  0  -0.118974  0  4.042972  0  0  -0.104527  -0.110523  0  4.006196  0
C  C41  1  0.41360593  0.12646102  0.81674761  1  0  -0.100395  0  3.766305  0  0  -0.113908  0  4.020958  0  0  -0.119048  0  4.042912  0  0  -0.104551  -0.110599  0  4.006108  0
C  C42  1  0.19259554  0.46082518  0.32346819  1  0  -0.049219  0  3.750882  0  0  -0.06784  0  4.006266  0  0  -0.066028  0  4.024669  0  0  -0.092414  -0.06867  0  3.993566  0
C  C43  1  0.80742586  0.96084070  0.17653342  1  0  -0.04952  0  3.750806  0  0  -0.068153  0  4.006192  0  0  -0.066341  0  4.024597  0  0  -0.09247  -0.06898  0  3.993495  0
C  C44  1  0.80742979  0.53915593  0.67653143  1  0  -0.049529  0  3.750676  0  0  -0.068206  0  4.006085  0  0  -0.066376  0  4.024495  0  0  -0.092508  -0.069033  0  3.993387  0
C  C45  1  0.19259121  0.03917198  0.82347081  1  0  -0.049563  0  3.750535  0  0  -0.068276  0  4.005955  0  0  -0.066461  0  4.024362  0  0  -0.092577  -0.069099  0  3.993253  0
C  C46  1  0.03866323  0.51215878  0.27098438  1  0  -0.167893  0  3.749271  0  0  -0.181072  0  3.999826  0  0  -0.185878  0  4.018625  0  0  -0.097344  -0.178018  0  3.987149  0
C  C47  1  0.96135877  0.01216608  0.22901791  1  0  -0.167792  0  3.74878  0  0  -0.180943  0  3.99936  0  0  -0.185751  0  4.018161  0  0  -0.097285  -0.177897  0  3.986681  0
C  C48  1  0.96135219  0.48784292  0.72902078  1  0  -0.167853  0  3.749164  0  0  -0.18109  0  3.99968  0  0  -0.185899  0  4.018476  0  0  -0.097331  -0.17804  0  3.987005  0
C  C49  1  0.03864291  0.98784798  0.77097800  1  0  -0.16768  0  3.748612  0  0  -0.180844  0  3.999194  0  0  -0.185653  0  4.017996  0  0  -0.097193  -0.177797  0  3.986515  0
C  C50  1  0.11205106  0.47422907  0.21060024  1  0  0.178043  0  3.798374  0  0  0.164793  0  4.042736  0  0  0.172655  0  4.062519  0  0  0.103099  0.159746  0  4.029304  0
C  C51  1  0.88794303  0.97422880  0.28940708  1  0  0.178332  0  3.798091  0  0  0.164813  0  4.042793  0  0  0.172673  0  4.06258  0  0  0.103128  0.159782  0  4.02934  0
C  C52  1  0.88794964  0.52577949  0.78940135  1  0  0.178183  0  3.798247  0  0  0.164923  0  4.042614  0  0  0.17278  0  4.062405  0  0  0.103106  0.159884  0  4.029174  0
C  C53  1  0.11205760  0.02577290  0.71059403  1  0  0.178186  0  3.798512  0  0  0.164726  0  4.04308  0  0  0.17258  0  4.06287  0  0  0.103093  0.159698  0  4.029632  0
C  C54  1  0.50949767  0.72635056  0.02465536  1  0  0.305402  0  4.023013  0  0  0.283966  0  4.327542  0  0  0.305905  0  4.342563  0  0  0.147281  0.269116  0  4.316968  0
C  C55  1  0.49049972  0.22632643  0.47534643  1  0  0.305407  0  4.023  0  0  0.283973  0  4.32752  0  0  0.305912  0  4.342537  0  0  0.1473  0.269126  0  4.316943  0
C  C56  1  0.49048685  0.27367584  0.97534501  1  0  0.305281  0  4.023338  0  0  0.283835  0  4.327888  0  0  0.305773  0  4.342914  0  0  0.147219  0.268985  0  4.317311  0
C  C57  1  0.50949028  0.77364645  0.52465498  1  0  0.305176  0  4.023204  0  0  0.283729  0  4.327737  0  0  0.305664  0  4.342763  0  0  0.147137  0.268883  0  4.31716  0
S  S58  1  0.25664278  0.82492137  0.00191803  1  0  -0.308465  0  2.125965  0  0  -0.27815  0  2.441953  0  0  -0.295499  0  2.437134  0  0  -0.135563  -0.265998  0  2.444787  0
S  S59  1  0.74337038  0.32490088  0.49808872  1  0  -0.308414  0  2.125596  0  0  -0.278088  0  2.441539  0  0  -0.295436  0  2.436713  0  0  -0.135521  -0.265956  0  2.444416  0
S  S60  1  0.74334703  0.17511876  0.99808196  1  0  -0.30838  0  2.12628  0  0  -0.278046  0  2.442238  0  0  -0.295393  0  2.43742  0  0  -0.135552  -0.265904  0  2.445086  0
S  S61  1  0.25662748  0.67507611  0.50191804  1  0  -0.308345  0  2.125809  0  0  -0.278016  0  2.441785  0  0  -0.295366  0  2.436967  0  0  -0.135468  -0.265871  0  2.444643  0
N  N62  1  0.14487227  0.44497410  0.10589896  1  0  -0.205477  0  3.197775  0  0  -0.148952  0  3.475919  0  0  -0.162336  0  3.495746  0  0  -0.239971  -0.139791  0  3.46216  0
N  N63  1  0.85510400  0.94495915  0.39410096  1  0  -0.205322  0  3.198426  0  0  -0.14877  0  3.47645  0  0  -0.162155  0  3.496274  0  0  -0.240009  -0.139611  0  3.462692  0
N  N64  1  0.85510327  0.55504407  0.89410079  1  0  -0.205512  0  3.198151  0  0  -0.149015  0  3.476257  0  0  -0.162398  0  3.496079  0  0  -0.240043  -0.139851  0  3.462491  0
N  N65  1  0.14486923  0.05500687  0.60589495  1  0  -0.205188  0  3.197184  0  0  -0.148617  0  3.475207  0  0  -0.162004  0  3.495035  0  0  -0.239815  -0.13945  0  3.461442  0
N  N66  1  0.00733435  0.50722779  0.15056871  1  0  -0.217708  0  3.423595  0  0  -0.163654  0  3.657716  0  0  -0.177589  0  3.675976  0  0  -0.284502  -0.154339  0  3.645316  0
N  N67  1  0.99264329  0.00722402  0.34943521  1  0  -0.217917  0  3.42395  0  0  -0.163702  0  3.658022  0  0  -0.177643  0  3.676302  0  0  -0.284514  -0.154393  0  3.645621  0
N  N68  1  0.99266133  0.49277666  0.84943516  1  0  -0.21788  0  3.423897  0  0  -0.163709  0  3.657862  0  0  -0.177654  0  3.676143  0  0  -0.284511  -0.154395  0  3.64546  0
N  N69  1  0.00734157  0.99277219  0.65056754  1  0  -0.217868  0  3.423825  0  0  -0.163695  0  3.657892  0  0  -0.177634  0  3.676177  0  0  -0.284532  -0.154397  0  3.645495  0
N  N70  1  0.69304962  0.65503786  0.04321954  1  0  -0.567706  0  2.894122  0  0  -0.513227  0  3.172057  0  0  -0.533688  0  3.178863  0  0  -0.404745  -0.499265  0  3.167271  0
N  N71  1  0.30695176  0.15501932  0.45678614  1  0  -0.567854  0  2.89456  0  0  -0.513396  0  3.172545  0  0  -0.533856  0  3.179349  0  0  -0.404867  -0.499428  0  3.167755  0
N  N72  1  0.30694157  0.34499541  0.95677762  1  0  -0.567742  0  2.894079  0  0  -0.513265  0  3.172021  0  0  -0.533728  0  3.178836  0  0  -0.404743  -0.499305  0  3.167233  0
N  N73  1  0.69302583  0.84495631  0.54321554  1  0  -0.567546  0  2.894345  0  0  -0.513059  0  3.172284  0  0  -0.533518  0  3.179092  0  0  -0.404701  -0.499101  0  3.167499  0
