# generated using pymatgen
data_AgH11C14SN2O3
_symmetry_space_group_name_H-M   'P 1'
_cell_length_a   7.20141077
_cell_length_b   18.88582094
_cell_length_c   18.89194462
_cell_angle_alpha   118.45806701
_cell_angle_beta   97.23898919
_cell_angle_gamma   97.35898206
_symmetry_Int_Tables_number   1
_chemical_formula_structural   AgH11C14SN2O3
_chemical_formula_sum   'Ag6 H66 C84 S6 N12 O18'
_cell_volume   2188.16031785
_cell_formula_units_Z   6
loop_
 _symmetry_equiv_pos_site_id
 _symmetry_equiv_pos_as_xyz
  1  'x, y, z'
loop_
 _atom_site_type_symbol
 _atom_site_label
 _atom_site_symmetry_multiplicity
 _atom_site_fract_x
 _atom_site_fract_y
 _atom_site_fract_z
 _atom_site_occupancy
 _atom_site_pbe_bader_charge
 _atom_site_pbe_bader_spin_density
 _atom_site_pbe_cm5_charge
 _atom_site_pbe_ddec_charge
 _atom_site_pbe_ddec_spin_density
 _atom_site_pbe_ddec_sum_bond_order
 _atom_site_pbe_magmom
Ag  Ag0  1  0.95326128  0.47323533  0.06542904  1  0.607669  0  0.475323  0.380364  0  1.910671  0
Ag  Ag1  1  0.48098609  0.59187554  0.52660314  1  0.60658  0  0.47521  0.380758  0  1.911947  0
Ag  Ag2  1  0.88809963  0.93453285  0.40785866  1  0.610819  0  0.475658  0.380858  0  1.911533  0
Ag  Ag3  1  0.04674820  0.52676020  0.93457300  1  0.607353  0  0.475294  0.380339  0  1.910624  0
Ag  Ag4  1  0.51901855  0.40812429  0.47339754  1  0.606597  0  0.475176  0.380704  0  1.911985  0
Ag  Ag5  1  0.11190592  0.06546884  0.59213872  1  0.610847  0  0.47566  0.380865  0  1.911635  0
H  H6  1  0.19749769  0.29074049  0.79415522  1  0.115812  0  0.106261  0.116251  0  1.010069  0
H  H7  1  0.90650328  0.50303829  0.70884940  1  0.104092  0  0.106222  0.115996  0  1.010464  0
H  H8  1  0.40480372  0.20547140  0.49654105  1  0.102034  0  0.106785  0.11682  0  1.01022  0
H  H9  1  0.80246824  0.70925194  0.20583691  1  0.115606  0  0.106361  0.116446  0  1.010157  0
H  H10  1  0.09349572  0.49696709  0.29114837  1  0.104118  0  0.106216  0.116072  0  1.010439  0
H  H11  1  0.59519776  0.79453892  0.50346448  1  0.10227  0  0.106767  0.116893  0  1.010194  0
H  H12  1  0.38528704  0.18227256  0.76119322  1  0.128986  0  0.100089  0.112467  0  1.048098  0
H  H13  1  0.20308536  0.57833485  0.81699532  1  0.106709  0  0.099878  0.112502  0  1.048657  0
H  H14  1  0.62557571  0.23849027  0.42105914  1  0.091365  0  0.099795  0.112031  0  1.049399  0
H  H15  1  0.61468432  0.81772234  0.23880194  1  0.129207  0  0.100103  0.112401  0  1.048108  0
H  H16  1  0.79691476  0.42166437  0.18300432  1  0.106715  0  0.099882  0.112487  0  1.048687  0
H  H17  1  0.37443200  0.76151573  0.57894198  1  0.091426  0  0.099801  0.112081  0  1.049351  0
H  H18  1  0.24291242  0.04906249  0.75240099  1  0.070853  0  0.102733  0.110118  0  1.012571  0
H  H19  1  0.19541307  0.70315679  0.95018439  1  0.07315  0  0.102632  0.109427  0  1.014138  0
H  H20  1  0.49235028  0.24732554  0.29680844  1  0.070057  0  0.102329  0.108362  0  1.014129  0
H  H21  1  0.75706391  0.95093118  0.24758906  1  0.070638  0  0.102673  0.109982  0  1.012628  0
H  H22  1  0.80459095  0.29684181  0.04981674  1  0.07316  0  0.102622  0.109341  0  1.014233  0
H  H23  1  0.50765576  0.75267430  0.70319020  1  0.070203  0  0.102293  0.108264  0  1.014192  0
H  H24  1  0.98767574  0.96549158  0.76972787  1  0.076665  0  0.097589  0.101222  0  1.047531  0
H  H25  1  0.02486013  0.80438996  0.03402915  1  0.073224  0  0.09714  0.100933  0  1.04526  0
H  H26  1  0.22009806  0.22995352  0.19599661  1  0.094711  0  0.097153  0.101232  0  1.046317  0
H  H27  1  0.01230140  0.03450085  0.23026797  1  0.076882  0  0.097631  0.101238  0  1.047523  0
H  H28  1  0.97514622  0.19561050  0.96597350  1  0.073313  0  0.097141  0.10097  0  1.045258  0
H  H29  1  0.77991839  0.77004755  0.80400205  1  0.095135  0  0.097214  0.10131  0  1.046324  0
H  H30  1  0.67389829  0.94634481  0.80645182  1  0.066243  0  0.096216  0.094631  0  1.021271  0
H  H31  1  0.73057302  0.86040069  0.05364300  1  0.069617  0  0.096309  0.094733  0  1.020474  0
H  H32  1  0.86957062  0.19329843  0.14028900  1  0.040715  0  0.096341  0.095364  0  1.020022  0
H  H33  1  0.32609704  0.05365318  0.19355654  1  0.06646  0  0.096196  0.094582  0  1.021385  0
H  H34  1  0.26943150  0.13959606  0.94636627  1  0.069596  0  0.096293  0.094689  0  1.020468  0
H  H35  1  0.13044490  0.80670079  0.85970662  1  0.04079  0  0.096345  0.095385  0  1.020032  0
H  H36  1  0.49356339  0.05984140  0.85029790  1  0.054626  0  0.097974  0.093916  0  1.014033  0
H  H37  1  0.43610285  0.79067112  0.94064130  1  0.03422  0  0.097685  0.094309  0  1.013124  0
H  H38  1  0.64533830  0.14962397  0.21007918  1  0.060257  0  0.097678  0.093778  0  1.014524  0
H  H39  1  0.50643086  0.94015720  0.14971282  1  0.054806  0  0.098033  0.09397  0  1.013931  0
H  H40  1  0.56389901  0.20932872  0.05936931  1  0.034378  0  0.097707  0.094385  0  1.013069  0
H  H41  1  0.35467501  0.85038203  0.78991903  1  0.060131  0  0.09768  0.093831  0  1.014442  0
H  H42  1  0.62045752  0.18876214  0.85289365  1  0.072686  0  0.101372  0.107828  0  1.038439  0
H  H43  1  0.43279938  0.66413277  0.81162533  1  0.104161  0  0.101478  0.10842  0  1.039012  0
H  H44  1  0.76936840  0.14705110  0.33627113  1  0.112803  0  0.101694  0.109039  0  1.039151  0
H  H45  1  0.37952723  0.81123153  0.14710368  1  0.072825  0  0.101368  0.107838  0  1.038449  0
H  H46  1  0.56720274  0.33587324  0.18837976  1  0.103884  0  0.101462  0.108391  0  1.038978  0
H  H47  1  0.23063618  0.85295984  0.66372955  1  0.112677  0  0.101643  0.108853  0  1.039241  0
H  H48  1  0.70381387  0.57566805  0.18633083  1  0.139019  0  0.134163  0.124586  0  0.963854  0
H  H49  1  0.13010741  0.61008722  0.42423741  1  0.142832  0  0.134316  0.125326  0  0.9633  0
H  H50  1  0.51782433  0.81377999  0.38954406  1  0.138213  0  0.134481  0.125661  0  0.963109  0
H  H51  1  0.29618671  0.42433487  0.81367113  1  0.139129  0  0.134182  0.124639  0  0.963803  0
H  H52  1  0.86989241  0.38991138  0.57576246  1  0.142817  0  0.134341  0.125394  0  0.963243  0
H  H53  1  0.48217720  0.18621923  0.61045671  1  0.138252  0  0.134518  0.125744  0  0.963047  0
H  H54  1  0.35415349  0.57812215  0.18677313  1  0.172151  0  0.129827  0.11828  0  0.988444  0
H  H55  1  0.77795224  0.60831572  0.42160727  1  0.153332  0  0.130105  0.118218  0  0.987959  0
H  H56  1  0.16765093  0.81331264  0.39162078  1  0.163591  0  0.129636  0.118455  0  0.988157  0
H  H57  1  0.64584335  0.42187892  0.81322089  1  0.172128  0  0.12983  0.118277  0  0.988483  0
H  H58  1  0.22204742  0.39168535  0.57839589  1  0.153252  0  0.130064  0.118155  0  0.988044  0
H  H59  1  0.83235121  0.18668782  0.60837902  1  0.163664  0  0.129648  0.118485  0  0.988189  0
H  H60  1  0.55374068  0.36028820  0.95867236  1  0.156142  0  0.123148  0.116368  0  1.014795  0
H  H61  1  0.19363820  0.59849861  0.63973913  1  0.169037  0  0.1235  0.117439  0  1.014515  0
H  H62  1  0.59539577  0.04119260  0.40147979  1  0.165052  0  0.123316  0.116794  0  1.014001  0
H  H63  1  0.44628265  0.63970979  0.04133416  1  0.156391  0  0.123123  0.116373  0  1.014678  0
H  H64  1  0.80636924  0.40150123  0.36026169  1  0.169173  0  0.123504  0.11745  0  1.014512  0
H  H65  1  0.40461541  0.95880909  0.59852685  1  0.165073  0  0.12332  0.116791  0  1.013979  0
H  H66  1  0.20098142  0.36060726  0.96009260  1  0.144174  0  0.119585  0.097842  0  1.03215  0
H  H67  1  0.84067897  0.59986770  0.63927861  1  0.143684  0  0.11957  0.097634  0  1.031792  0
H  H68  1  0.24127435  0.03970767  0.40035497  1  0.142792  0  0.119581  0.097425  0  1.032392  0
H  H69  1  0.79903474  0.63938765  0.03990628  1  0.144231  0  0.119633  0.097872  0  1.032068  0
H  H70  1  0.15932398  0.40012597  0.36072012  1  0.143689  0  0.119654  0.097668  0  1.031854  0
H  H71  1  0.75873945  0.96029649  0.59965086  1  0.141834  0  0.119597  0.097414  0  1.032439  0
C  C72  1  0.96017647  0.22492111  0.81135233  1  -0.220689  0  -0.021649  -0.138123  0  3.937798  0
C  C73  1  0.73580045  0.58634902  0.77485019  1  -0.151515  0  -0.021175  -0.136264  0  3.937861  0
C  C74  1  0.15039937  0.18850269  0.41376840  1  -0.188583  0  -0.02111  -0.134661  0  3.936233  0
C  C75  1  0.03979366  0.77507132  0.18864053  1  -0.220896  0  -0.02167  -0.13821  0  3.937724  0
C  C76  1  0.26420617  0.41365760  0.22514853  1  -0.151467  0  -0.021153  -0.136151  0  3.937875  0
C  C77  1  0.84960196  0.81150454  0.58623141  1  -0.188521  0  -0.02111  -0.134554  0  3.936299  0
C  C78  1  0.13847649  0.23427536  0.79331053  1  -0.01262  0  -0.08933  -0.086014  0  3.989575  0
C  C79  1  0.90440110  0.55876946  0.76530782  1  -0.054674  0  -0.089333  -0.08646  0  3.990482  0
C  C80  1  0.34668392  0.20637700  0.44101636  1  -0.063485  0  -0.089639  -0.086883  0  3.990965  0
C  C81  1  0.86149238  0.76572016  0.20668427  1  -0.011951  0  -0.089417  -0.086169  0  3.989578  0
C  C82  1  0.09560319  0.44123531  0.23469096  1  -0.054812  0  -0.089368  -0.08667  0  3.990736  0
C  C83  1  0.65331695  0.79363209  0.55898749  1  -0.063434  0  -0.089545  -0.086924  0  3.991007  0
C  C84  1  0.24329324  0.17139126  0.77305352  1  -0.018861  0  -0.103986  -0.100742  0  4.040214  0
C  C85  1  0.07240025  0.60132254  0.82801915  1  -0.026136  0  -0.103913  -0.101345  0  4.042417  0
C  C86  1  0.47180905  0.22661131  0.39837444  1  0.044108  0  -0.103299  -0.100416  0  4.042566  0
C  C87  1  0.75667129  0.82860117  0.22693855  1  -0.019376  0  -0.103861  -0.100549  0  4.039927  0
C  C88  1  0.92760391  0.39867914  0.17198081  1  -0.02626  0  -0.103886  -0.101313  0  4.0424  0
C  C89  1  0.52819571  0.77339716  0.60162825  1  0.043752  0  -0.103362  -0.100545  0  4.042606  0
C  C90  1  0.16594546  0.09896317  0.76992481  1  -0.115182  0  -0.091881  -0.133666  0  3.988335  0
C  C91  1  0.06828513  0.67080643  0.90043092  1  -0.071599  0  -0.091628  -0.132657  0  3.987975  0
C  C92  1  0.39779455  0.22982835  0.32920131  1  -0.108604  0  -0.091647  -0.132041  0  3.988074  0
C  C93  1  0.83402606  0.90102926  0.23006759  1  -0.115205  0  -0.091912  -0.133557  0  3.988077  0
C  C94  1  0.93171982  0.32919403  0.09957008  1  -0.071412  0  -0.091628  -0.132504  0  3.987875  0
C  C95  1  0.60220865  0.77017704  0.67079824  1  -0.108567  0  -0.091641  -0.131909  0  3.987922  0
C  C96  1  0.90603898  0.01384420  0.78755268  1  -0.026039  0  -0.090922  -0.125783  0  3.962086  0
C  C97  1  0.89455855  0.77385831  0.98584524  1  -0.051583  0  -0.090569  -0.125567  0  3.960524  0
C  C98  1  0.12051477  0.21221846  0.22656654  1  -0.096487  0  -0.089637  -0.124993  0  3.962064  0
C  C99  1  0.09394266  0.98614885  0.21244473  1  -0.026685  0  -0.09081  -0.125589  0  3.961819  0
C  C100  1  0.10544858  0.22614091  0.01415791  1  -0.052725  0  -0.090588  -0.125752  0  3.96053  0
C  C101  1  0.87949156  0.78778199  0.77342923  1  -0.096416  0  -0.089686  -0.125051  0  3.962144  0
C  C102  1  0.73171516  0.00355403  0.80823579  1  -0.056167  0  -0.097015  -0.084474  0  4.030774  0
C  C103  1  0.73075699  0.80490196  0.99640160  1  -0.056055  0  -0.09668  -0.084099  0  4.029803  0
C  C104  1  0.92556917  0.19155387  0.19567974  1  0.011821  0  -0.096846  -0.085737  0  4.030718  0
C  C105  1  0.26827862  0.99644087  0.19176626  1  -0.056033  0  -0.097097  -0.084507  0  4.030663  0
C  C106  1  0.26924674  0.19509603  0.00360504  1  -0.055074  0  -0.096581  -0.083745  0  4.029564  0
C  C107  1  0.07444603  0.80844473  0.80431504  1  0.011597  0  -0.096932  -0.085917  0  4.030846  0
C  C108  1  0.62940067  0.06749514  0.83222487  1  -0.024925  0  -0.09647  -0.087673  0  4.036919  0
C  C109  1  0.56406044  0.76488296  0.93270724  1  -0.023247  0  -0.096339  -0.088698  0  4.036965  0
C  C110  1  0.79920726  0.16764828  0.23571143  1  -0.161646  0  -0.096725  -0.08692  0  4.036035  0
C  C111  1  0.37058861  0.93249914  0.16777773  1  -0.024855  0  -0.096501  -0.087786  0  4.03676  0
C  C112  1  0.43594312  0.23511749  0.06730057  1  -0.023036  0  -0.096419  -0.089004  0  4.036892  0
C  C113  1  0.20080358  0.83235279  0.76428431  1  -0.160865  0  -0.096815  -0.087062  0  4.035909  0
C  C114  1  0.69973974  0.13975419  0.83349861  1  -0.041312  0  -0.095605  -0.138291  0  3.974984  0
C  C115  1  0.56148036  0.69381901  0.86039765  1  -0.076257  0  -0.094943  -0.137621  0  3.97508  0
C  C116  1  0.86810738  0.16641741  0.30664496  1  0.00059  0  -0.095488  -0.139586  0  3.97807  0
C  C117  1  0.30023879  0.86023824  0.16649677  1  -0.041576  0  -0.095653  -0.138289  0  3.975082  0
C  C118  1  0.43852395  0.30618576  0.13960855  1  -0.076068  0  -0.094917  -0.137506  0  3.975104  0
C  C119  1  0.13189738  0.83358551  0.69335138  1  -4e-06  0  -0.095274  -0.139075  0  3.97764  0
C  C120  1  0.87751752  0.15182841  0.81125377  1  -0.075688  0  -0.005651  0.060546  0  3.961533  0
C  C121  1  0.72695188  0.65944997  0.84801979  1  -0.011409  0  -0.006463  0.059768  0  3.960108  0
C  C122  1  0.06806231  0.18864057  0.34087380  1  0.005728  0  -0.006221  0.058374  0  3.964384  0
C  C123  1  0.12245899  0.84816279  0.18874093  1  -0.07558  0  -0.005533  0.060724  0  3.96163  0
C  C124  1  0.27305351  0.34055418  0.15197981  1  -0.011236  0  -0.006426  0.059695  0  3.960288  0
C  C125  1  0.93193857  0.81136297  0.65912476  1  0.005913  0  -0.006192  0.058188  0  3.964683  0
C  C126  1  0.98380554  0.08755089  0.78898455  1  -0.00166  0  -0.008282  0.070992  0  3.988364  0
C  C127  1  0.89795532  0.70147993  0.91207919  1  -0.039224  0  -0.008275  0.070815  0  3.984862  0
C  C128  1  0.19668796  0.21083956  0.29880848  1  -0.019713  0  -0.00901  0.070992  0  3.988348  0
C  C129  1  0.01616724  0.91243846  0.21100644  1  -0.001375  0  -0.008455  0.0707  0  3.988254  0
C  C130  1  0.10205225  0.29852299  0.08792257  1  -0.039544  0  -0.00834  0.070793  0  3.984783  0
C  C131  1  0.80332162  0.78916460  0.70118920  1  -0.020287  0  -0.009043  0.070996  0  3.988478  0
C  C132  1  0.59105499  0.52815558  0.13531578  1  0.532833  0  0.066105  0.064152  0  3.868568  0
C  C133  1  0.06437565  0.60679694  0.47172782  1  0.529109  0  0.066527  0.064498  0  3.86658  0
C  C134  1  0.45604686  0.86473085  0.39301013  1  0.498091  0  0.066217  0.063943  0  3.86666  0
C  C135  1  0.40894917  0.47184610  0.86468417  1  0.532747  0  0.066032  0.063993  0  3.868453  0
C  C136  1  0.93562479  0.39320290  0.52827267  1  0.529111  0  0.066515  0.064441  0  3.866601  0
C  C137  1  0.54395808  0.13526960  0.60699139  1  0.498165  0  0.066218  0.06388  0  3.866499  0
C  C138  1  0.39786595  0.52903336  0.13581091  1  0.471465  0  0.063616  0.058419  0  3.874639  0
C  C139  1  0.87032367  0.60655717  0.47077446  1  0.506187  0  0.064083  0.059674  0  3.872362  0
C  C140  1  0.26235458  0.86422595  0.39340331  1  0.526451  0  0.063904  0.057828  0  3.873057  0
C  C141  1  0.60213929  0.47096771  0.86418562  1  0.471441  0  0.063704  0.058536  0  3.874551  0
C  C142  1  0.12968005  0.39344082  0.52922636  1  0.50616  0  0.064116  0.059726  0  3.872497  0
C  C143  1  0.73765238  0.13577574  0.60659890  1  0.526286  0  0.0639  0.05779  0  3.87316  0
C  C144  1  0.50665698  0.40834447  0.00944071  1  0.488297  0  0.051211  0.040718  0  3.880258  0
C  C145  1  0.09892755  0.60113655  0.59162248  1  0.47897  0  0.051695  0.040301  0  3.8805  0
C  C146  1  0.49753581  0.99045787  0.39884615  1  0.482375  0  0.051845  0.041379  0  3.877207  0
C  C147  1  0.49336135  0.59165475  0.99056245  1  0.487467  0  0.051396  0.04094  0  3.87998  0
C  C148  1  0.90107958  0.39886267  0.40837697  1  0.479315  0  0.051605  0.040212  0  3.880536  0
C  C149  1  0.50247646  0.00954320  0.60115866  1  0.482203  0  0.051787  0.041397  0  3.877285  0
C  C150  1  0.31415241  0.40895476  0.01021317  1  0.487266  0  0.052555  0.041601  0  3.919374  0
C  C151  1  0.90586171  0.60145752  0.59094831  1  0.460639  0  0.05191  0.042073  0  3.92088  0
C  C152  1  0.30427209  0.98966489  0.39867684  1  0.471546  0  0.052424  0.042318  0  3.920933  0
C  C153  1  0.68586188  0.59104199  0.98978650  1  0.487131  0  0.052478  0.041597  0  3.919318  0
C  C154  1  0.09414216  0.39853800  0.40905028  1  0.459837  0  0.05193  0.042273  0  3.920764  0
C  C155  1  0.69573830  0.01033803  0.60132771  1  0.472533  0  0.052421  0.042366  0  3.921264  0
S  S156  1  0.83996705  0.30857730  0.83839461  1  3.183366  0  0.489674  1.158335  0  6.239902  0
S  S157  1  0.53164660  0.52974667  0.69133130  1  3.175358  0  0.488973  1.15754  0  6.241576  0
S  S158  1  0.00298169  0.16170552  0.47048941  1  3.189781  0  0.489334  1.157978  0  6.24524  0
S  S159  1  0.16000574  0.69141760  0.16160803  1  3.182746  0  0.489605  1.158315  0  6.239807  0
S  S160  1  0.46836327  0.47026365  0.30866881  1  3.175614  0  0.488876  1.157548  0  6.241316  0
S  S161  1  0.99701733  0.83829432  0.52950519  1  3.189888  0  0.489181  1.157828  0  6.245948  0
N  N162  1  0.64546856  0.46904492  0.07137556  1  -1.182763  0  -0.316769  -0.153038  0  3.540758  0
N  N163  1  0.17743865  0.60209016  0.53091544  1  -1.185093  0  -0.317841  -0.154366  0  3.541171  0
N  N164  1  0.57440031  0.92861457  0.39774068  1  -1.186382  0  -0.318498  -0.15536  0  3.538438  0
N  N165  1  0.35454588  0.53095492  0.92862824  1  -1.181814  0  -0.316804  -0.153103  0  3.540752  0
N  N166  1  0.82256428  0.39790906  0.46908434  1  -1.185321  0  -0.317833  -0.154433  0  3.541243  0
N  N167  1  0.42560744  0.07138588  0.60226257  1  -1.18641  0  -0.318527  -0.155415  0  3.538347  0
N  N168  1  0.25980289  0.47025913  0.07246110  1  -1.186123  0  -0.32095  -0.166275  0  3.590916  0
N  N169  1  0.79061051  0.60225621  0.52955920  1  -1.176819  0  -0.321387  -0.168092  0  3.593684  0
N  N170  1  0.18767506  0.92750169  0.39787999  1  -1.183739  0  -0.321005  -0.166398  0  3.593226  0
N  N171  1  0.74020610  0.52973824  0.92753332  1  -1.186355  0  -0.321053  -0.166442  0  3.591041  0
N  N172  1  0.20939290  0.39774116  0.47044237  1  -1.176043  0  -0.321407  -0.168141  0  3.593658  0
N  N173  1  0.81233391  0.07250123  0.60212078  1  -1.183644  0  -0.321005  -0.16644  0  3.593518  0
O  O174  1  0.82643955  0.33582814  0.92478226  1  -1.329807  0  -0.357999  -0.631327  0  2.305977  0
O  O175  1  0.49115154  0.58893272  0.66418212  1  -1.331233  0  -0.35739  -0.631734  0  2.306669  0
O  O176  1  0.90287273  0.07525213  0.41139464  1  -1.336979  0  -0.35744  -0.631462  0  2.30787  0
O  O177  1  0.17356932  0.66416615  0.07522287  1  -1.329492  0  -0.358041  -0.631306  0  2.305658  0
O  O178  1  0.50885055  0.41107883  0.33582191  1  -1.33179  0  -0.357449  -0.631847  0  2.30679  0
O  O179  1  0.09714026  0.92474771  0.58859109  1  -1.337013  0  -0.357362  -0.631407  0  2.308114  0
O  O180  1  0.96595920  0.37088293  0.83013595  1  -1.338119  0  -0.361197  -0.623301  0  2.28354  0
O  O181  1  0.59486903  0.45908709  0.62895490  1  -1.341245  0  -0.360979  -0.622957  0  2.283557  0
O  O182  1  0.13701849  0.17009250  0.54105298  1  -1.33544  0  -0.361037  -0.623757  0  2.284901  0
O  O183  1  0.03400160  0.62910765  0.16985718  1  -1.337749  0  -0.361181  -0.623437  0  2.28376  0
O  O184  1  0.40513926  0.54092570  0.37104260  1  -1.340824  0  -0.360995  -0.622974  0  2.28322  0
O  O185  1  0.86297852  0.82990610  0.45894252  1  -1.335577  0  -0.361014  -0.623723  0  2.285133  0
O  O186  1  0.65180926  0.27637776  0.78201914  1  -1.338635  0  -0.349991  -0.599953  0  2.163956  0
O  O187  1  0.37560852  0.50554325  0.72354275  1  -1.334416  0  -0.350059  -0.600256  0  2.166028  0
O  O188  1  0.87141402  0.21820278  0.49469566  1  -1.341855  0  -0.350562  -0.600602  0  2.166389  0
O  O189  1  0.34814829  0.72362022  0.21799429  1  -1.338801  0  -0.349897  -0.599849  0  2.164183  0
O  O190  1  0.62440478  0.49446275  0.27645546  1  -1.334612  0  -0.349899  -0.600163  0  2.166003  0
O  O191  1  0.12857708  0.78179521  0.50529926  1  -1.341899  0  -0.350475  -0.60054  0  2.16661  0
