# generated using pymatgen
data_ZnH15C19(NO2)2
_symmetry_space_group_name_H-M   'P 1'
_cell_length_a   7.43863915
_cell_length_b   9.87211950
_cell_length_c   12.10049947
_cell_angle_alpha   83.02946261
_cell_angle_beta   85.76742330
_cell_angle_gamma   68.35531887
_symmetry_Int_Tables_number   1
_chemical_formula_structural   ZnH15C19(NO2)2
_chemical_formula_sum   'Zn2 H30 C38 N4 O8'
_cell_volume   819.43462467
_cell_formula_units_Z   2
loop_
 _symmetry_equiv_pos_site_id
 _symmetry_equiv_pos_as_xyz
  1  'x, y, z'
loop_
 _atom_site_type_symbol
 _atom_site_label
 _atom_site_symmetry_multiplicity
 _atom_site_fract_x
 _atom_site_fract_y
 _atom_site_fract_z
 _atom_site_occupancy
 _atom_site_hle17_bader_spin_density
 _atom_site_hle17_ddec_charge
 _atom_site_hle17_ddec_spin_density
 _atom_site_hle17_ddec_sum_bond_order
 _atom_site_hle17_magmom
 _atom_site_hse06_10hf_bader_spin_density
 _atom_site_hse06_10hf_ddec_charge
 _atom_site_hse06_10hf_ddec_spin_density
 _atom_site_hse06_10hf_ddec_sum_bond_order
 _atom_site_hse06_10hf_magmom
 _atom_site_hse06_bader_spin_density
 _atom_site_hse06_ddec_charge
 _atom_site_hse06_ddec_spin_density
 _atom_site_hse06_ddec_sum_bond_order
 _atom_site_hse06_magmom
 _atom_site_pbe_bader_spin_density
 _atom_site_pbe_cm5_charge
 _atom_site_pbe_ddec_charge
 _atom_site_pbe_ddec_spin_density
 _atom_site_pbe_ddec_sum_bond_order
 _atom_site_pbe_magmom
Zn  Zn0  1  0.18920907  0.06630700  0.02553280  1  0  1.115456  0  1.771136  0  0  0.940336  0  2.237056  0  0  0.986916  0  2.179833  0  0  0.706196  0.907269  0  2.276952  0
Zn  Zn1  1  0.81079467  0.93369093  0.97446901  1  0  1.115471  0  1.771013  0  0  0.940383  0  2.236928  0  0  0.986959  0  2.179703  0  0  0.706227  0.907316  0  2.276826  0
H  H2  1  0.95935166  0.04644231  0.60907165  1  0  0.09424  0  0.950687  0  0  0.105929  0  1.010565  0  0  0.108782  0  1.009703  0  0  0.102659  0.10379  0  1.01142  0
H  H3  1  0.04064427  0.95355781  0.39093359  1  0  0.094278  0  0.950672  0  0  0.105946  0  1.010576  0  0  0.108796  0  1.009713  0  0  0.102672  0.103806  0  1.011431  0
H  H4  1  0.10254098  0.16883386  0.45490825  1  0  0.086234  0  0.943354  0  0  0.099279  0  1.000334  0  0  0.102132  0  0.998581  0  0  0.102006  0.097133  0  1.001815  0
H  H5  1  0.89745419  0.83117064  0.54509658  1  0  0.086297  0  0.94325  0  0  0.099338  0  1.000242  0  0  0.102192  0  0.998487  0  0  0.102042  0.097189  0  1.001726  0
H  H6  1  0.40715221  0.20867130  0.48327353  1  0  0.08797  0  0.987699  0  0  0.096438  0  1.051511  0  0  0.098077  0  1.053624  0  0  0.095569  0.095209  0  1.050219  0
H  H7  1  0.59284702  0.79133321  0.51672948  1  0  0.087873  0  0.987849  0  0  0.096388  0  1.051596  0  0  0.098028  0  1.053705  0  0  0.095551  0.09516  0  1.050302  0
H  H8  1  0.57174207  0.11761947  0.66452585  1  0  0.101456  0  0.943757  0  0  0.111251  0  1.003115  0  0  0.115141  0  1.000076  0  0  0.103959  0.108418  0  1.005361  0
H  H9  1  0.42826143  0.88238175  0.33547730  1  0  0.101518  0  0.943711  0  0  0.111301  0  1.003075  0  0  0.115191  0  1.000035  0  0  0.103982  0.108471  0  1.005322  0
H  H10  1  0.42312521  0.26530896  0.92901160  1  0  0.112506  0  0.970315  0  0  0.122661  0  1.030179  0  0  0.12525  0  1.028956  0  0  0.11745  0.120784  0  1.031176  0
H  H11  1  0.57686695  0.73468788  0.07098750  1  0  0.112602  0  0.97022  0  0  0.122738  0  1.030085  0  0  0.125321  0  1.028868  0  0  0.117478  0.120814  0  1.031139  0
H  H12  1  0.23407403  0.54565860  0.81956771  1  0  0.129714  0  0.968986  0  0  0.139411  0  1.029236  0  0  0.141965  0  1.028278  0  0  0.125505  0.137257  0  1.030374  0
H  H13  1  0.76592353  0.45433824  0.18042951  1  0  0.129661  0  0.968998  0  0  0.13937  0  1.029227  0  0  0.141936  0  1.028252  0  0  0.12551  0.137204  0  1.030394  0
H  H14  1  0.77504074  0.26271658  0.00015381  1  0  0.144799  0  0.956199  0  0  0.162164  0  1.019741  0  0  0.164614  0  1.018297  0  0  0.103312  0.160306  0  1.020975  0
H  H15  1  0.22495144  0.73728026  0.99984281  1  0  0.144768  0  0.956178  0  0  0.162131  0  1.019748  0  0  0.164579  0  1.018306  0  0  0.103288  0.160272  0  1.020981  0
H  H16  1  0.73586623  0.30630283  0.85456786  1  0  0.142509  0  0.918475  0  0  0.16465  0  0.971901  0  0  0.166837  0  0.971362  0  0  0.104939  0.163115  0  0.972283  0
H  H17  1  0.26413054  0.69369292  0.14542702  1  0  0.142443  0  0.918413  0  0  0.16456  0  0.971889  0  0  0.166748  0  0.971345  0  0  0.104872  0.163025  0  0.972273  0
H  H18  1  0.65624091  0.44802681  0.94510841  1  0  0.118562  0  0.952136  0  0  0.139418  0  1.01346  0  0  0.140843  0  1.013809  0  0  0.096819  0.138409  0  1.013247  0
H  H19  1  0.34375450  0.55196894  0.05488735  1  0  0.118562  0  0.952062  0  0  0.139421  0  1.013385  0  0  0.140843  0  1.013738  0  0  0.096815  0.138413  0  1.013172  0
H  H20  1  0.89996181  0.69468085  0.78285640  1  0  0.112904  0  0.93752  0  0  0.127966  0  0.997297  0  0  0.129871  0  0.995481  0  0  0.119786  0.126392  0  0.998939  0
H  H21  1  0.10004090  0.30531928  0.21714358  1  0  0.112885  0  0.937562  0  0  0.127975  0  0.99731  0  0  0.12988  0  0.995492  0  0  0.119791  0.126401  0  0.998954  0
H  H22  1  0.72579803  0.65836016  0.87539439  1  0  0.082372  0  0.946463  0  0  0.094682  0  1.015918  0  0  0.095207  0  1.016061  0  0  0.110045  0.094198  0  1.01599  0
H  H23  1  0.27420253  0.34163887  0.12460249  1  0  0.082352  0  0.946448  0  0  0.094657  0  1.015915  0  0  0.095185  0  1.016057  0  0  0.110043  0.094176  0  1.015987  0
H  H24  1  0.00239178  0.43770861  0.63999315  1  0  0.096156  0  0.949936  0  0  0.106332  0  1.011858  0  0  0.108992  0  1.011752  0  0  0.100442  0.104473  0  1.011919  0
H  H25  1  0.99761092  0.56229151  0.36000684  1  0  0.096188  0  0.949886  0  0  0.106367  0  1.011803  0  0  0.109025  0  1.011702  0  0  0.100445  0.104508  0  1.011865  0
H  H26  1  0.84077322  0.38586356  0.49196787  1  0  0.079185  0  0.986748  0  0  0.090073  0  1.051078  0  0  0.092504  0  1.050003  0  0  0.096184  0.088328  0  1.051973  0
H  H27  1  0.15923595  0.61413438  0.50802874  1  0  0.079191  0  0.986786  0  0  0.090076  0  1.051117  0  0  0.092506  0  1.050044  0  0  0.096193  0.088332  0  1.052011  0
H  H28  1  0.28670647  0.65837051  0.62582860  1  0  0.089505  0  0.970883  0  0  0.099408  0  1.035032  0  0  0.102642  0  1.032685  0  0  0.098481  0.097002  0  1.036918  0
H  H29  1  0.71330189  0.34162633  0.37416650  1  0  0.089493  0  0.970824  0  0  0.099392  0  1.034992  0  0  0.102626  0  1.032643  0  0  0.098435  0.096986  0  1.036877  0
H  H30  1  0.44884839  0.70781084  0.77283437  1  0  0.098295  0  0.976025  0  0  0.105722  0  1.043012  0  0  0.108251  0  1.042558  0  0  0.097964  0.103842  0  1.043471  0
H  H31  1  0.55114900  0.29219476  0.22716366  1  0  0.09837  0  0.975957  0  0  0.105757  0  1.042994  0  0  0.108289  0  1.042537  0  0  0.097973  0.10388  0  1.043452  0
C  C32  1  0.08695814  0.93838245  0.80989843  1  0  0.665652  0  3.904521  0  0  0.609093  0  4.20856  0  0  0.644019  0  4.197717  0  0  0.210781  0.585201  0  4.215179  0
C  C33  1  0.91304477  0.06161438  0.19010517  1  0  0.66575  0  3.904469  0  0  0.609138  0  4.208551  0  0  0.644072  0  4.197692  0  0  0.210809  0.585245  0  4.215178  0
C  C34  1  0.18438040  0.01324482  0.72329136  1  0  -0.035221  0  3.698815  0  0  -0.02029  0  3.929832  0  0  -0.022577  0  3.950015  0  0  -0.003758  -0.018939  0  3.916411  0
C  C35  1  0.81561906  0.98675640  0.27671196  1  0  -0.035215  0  3.698829  0  0  -0.020195  0  3.92976  0  0  -0.022483  0  3.94994  0  0  -0.003739  -0.018853  0  3.916358  0
C  C36  1  0.09352137  0.06309393  0.62084386  1  0  -0.099  0  3.738494  0  0  -0.120593  0  3.986142  0  0  -0.124179  0  4.007504  0  0  -0.089828  -0.118263  0  3.971701  0
C  C37  1  0.90647192  0.93691167  0.37916178  1  0  -0.099086  0  3.738391  0  0  -0.120675  0  3.986025  0  0  -0.124258  0  4.007383  0  0  -0.089871  -0.118343  0  3.971586  0
C  C38  1  0.17319009  0.13266612  0.53482352  1  0  -0.048452  0  3.766462  0  0  -0.064885  0  4.021615  0  0  -0.064489  0  4.040946  0  0  -0.08343  -0.064915  0  4.008429  0
C  C39  1  0.82680348  0.86734167  0.46518354  1  0  -0.048427  0  3.766296  0  0  -0.064886  0  4.021467  0  0  -0.064491  0  4.040799  0  0  -0.083397  -0.064913  0  4.008275  0
C  C40  1  0.34423873  0.15470873  0.55030941  1  0  -0.074364  0  3.775188  0  0  -0.087358  0  4.025587  0  0  -0.090354  0  4.047413  0  0  -0.092942  -0.085508  0  4.010922  0
C  C41  1  0.65575330  0.84530234  0.44969244  1  0  -0.074295  0  3.775358  0  0  -0.087298  0  4.025719  0  0  -0.090295  0  4.047548  0  0  -0.092964  -0.085446  0  4.01105  0
C  C42  1  0.43640338  0.10400502  0.65115815  1  0  -0.056991  0  3.730062  0  0  -0.080495  0  3.978346  0  0  -0.079393  0  3.996915  0  0  -0.081666  -0.081022  0  3.965654  0
C  C43  1  0.56359374  0.89600386  0.34884536  1  0  -0.057093  0  3.729982  0  0  -0.08059  0  3.978299  0  0  -0.079489  0  3.996865  0  0  -0.081714  -0.081117  0  3.96561  0
C  C44  1  0.35939495  0.03214931  0.73838090  1  0  -0.105304  0  3.744747  0  0  -0.09146  0  3.980297  0  0  -0.100133  0  4.004081  0  0  -0.022271  -0.085669  0  3.964256  0
C  C45  1  0.64060564  0.96785519  0.26162040  1  0  -0.105287  0  3.744701  0  0  -0.091499  0  3.980292  0  0  -0.100166  0  4.004065  0  0  -0.022197  -0.085707  0  3.964256  0
C  C46  1  0.47046152  0.97368476  0.84292368  1  0  0.662469  0  3.880674  0  0  0.608852  0  4.176828  0  0  0.643841  0  4.16853  0  0  0.216004  0.584967  0  4.181833  0
C  C47  1  0.52954117  0.02631537  0.15707713  1  0  0.662418  0  3.880775  0  0  0.608822  0  4.176937  0  0  0.643805  0  4.168637  0  0  0.21591  0.584936  0  4.181946  0
C  C48  1  0.27202052  0.32476675  0.91086222  1  0  -0.008632  0  3.769875  0  0  -0.04609  0  4.044478  0  0  -0.044618  0  4.064831  0  0  -0.01201  -0.04713  0  4.03077  0
C  C49  1  0.72797329  0.67523228  0.08913577  1  0  -0.008957  0  3.770172  0  0  -0.046409  0  4.044775  0  0  -0.044937  0  4.065141  0  0  -0.012093  -0.047408  0  4.031093  0
C  C50  1  0.18184899  0.46120690  0.85687924  1  0  -0.055045  0  3.667339  0  0  -0.096909  0  3.92772  0  0  -0.095152  0  3.94683  0  0  0.002211  -0.097773  0  3.914995  0
C  C51  1  0.81814670  0.53879103  0.14311795  1  0  -0.054845  0  3.667374  0  0  -0.096692  0  3.927731  0  0  -0.094944  0  3.94683  0  0  0.002243  -0.097553  0  3.915004  0
C  C52  1  0.96099058  0.36177396  0.91302049  1  0  0.39057  0  3.663597  0  0  0.365813  0  3.930508  0  0  0.38301  0  3.943822  0  0  0.226766  0.354467  0  3.921239  0
C  C53  1  0.03900106  0.63822398  0.08697687  1  0  0.390636  0  3.663342  0  0  0.365678  0  3.930538  0  0  0.382875  0  3.943855  0  0  0.226748  0.354332  0  3.92127  0
C  C54  1  0.77139770  0.34368731  0.92919790  1  0  -0.393814  0  3.704162  0  0  -0.476542  0  3.945014  0  0  -0.480504  0  3.949966  0  0  -0.233689  -0.473656  0  3.941647  0
C  C55  1  0.22859636  0.65630843  0.07079875  1  0  -0.393714  0  3.70384  0  0  -0.47637  0  3.944769  0  0  -0.480331  0  3.949724  0  0  -0.233587  -0.473483  0  3.9414  0
C  C56  1  0.83393245  0.61276979  0.80982729  1  0  -0.04937  0  3.649959  0  0  -0.115916  0  3.894854  0  0  -0.111819  0  3.90539  0  0  -0.051044  -0.118522  0  3.887898  0
C  C57  1  0.16606891  0.38723033  0.19017193  1  0  -0.0493  0  3.649895  0  0  -0.115868  0  3.894752  0  0  -0.11177  0  3.905283  0  0  -0.051017  -0.118476  0  3.8878  0
C  C58  1  0.73817369  0.57930401  0.71676061  1  0  0.06559  0  3.765082  0  0  0.087588  0  4.000969  0  0  0.086755  0  4.025407  0  0  -0.014336  0.088077  0  3.984379  0
C  C59  1  0.26182931  0.42069831  0.28323914  1  0  0.065495  0  3.765209  0  0  0.087552  0  4.001005  0  0  0.08672  0  4.025441  0  0  -0.014399  0.088042  0  3.984418  0
C  C60  1  0.84499652  0.48796114  0.63645491  1  0  -0.11375  0  3.752805  0  0  -0.13421  0  4.000867  0  0  -0.136751  0  4.022793  0  0  -0.094158  -0.132428  0  3.98593  0
C  C61  1  0.15500673  0.51203788  0.36354351  1  0  -0.113763  0  3.752824  0  0  -0.134249  0  4.000875  0  0  -0.136791  0  4.022799  0  0  -0.094166  -0.132465  0  3.985939  0
C  C62  1  0.75186086  0.45770198  0.55238244  1  0  -0.10649  0  3.756125  0  0  -0.124797  0  4.002775  0  0  -0.127783  0  4.024976  0  0  -0.09043  -0.122721  0  3.987731  0
C  C63  1  0.24814290  0.54229595  0.44761689  1  0  -0.106495  0  3.756207  0  0  -0.124807  0  4.002835  0  0  -0.127792  0  4.025035  0  0  -0.090436  -0.122731  0  3.987792  0
C  C64  1  0.54900304  0.51667809  0.54478312  1  0  0.043401  0  3.785323  0  0  0.058807  0  4.01198  0  0  0.058714  0  4.036426  0  0  -0.010104  0.058938  0  3.995079  0
C  C65  1  0.45100342  0.48331984  0.45521609  1  0  0.04344  0  3.785406  0  0  0.058903  0  4.011995  0  0  0.05881  0  4.03644  0  0  -0.010058  0.059036  0  3.995093  0
C  C66  1  0.44390950  0.60836542  0.62612963  1  0  -0.106568  0  3.748881  0  0  -0.125414  0  3.996244  0  0  -0.127655  0  4.016135  0  0  -0.090528  -0.123621  0  3.98238  0
C  C67  1  0.55609427  0.39163251  0.37386887  1  0  -0.106618  0  3.748895  0  0  -0.125469  0  3.996223  0  0  -0.12771  0  4.016115  0  0  -0.09054  -0.123672  0  3.982357  0
C  C68  1  0.53676359  0.63830233  0.71054956  1  0  -0.12344  0  3.764149  0  0  -0.142842  0  4.011809  0  0  -0.145476  0  4.033482  0  0  -0.09644  -0.140806  0  3.99688  0
C  C69  1  0.46323759  0.36170655  0.28945046  1  0  -0.123465  0  3.764266  0  0  -0.142852  0  4.011911  0  0  -0.145485  0  4.03358  0  0  -0.096396  -0.140817  0  3.996982  0
N  N70  1  0.13333990  0.26448200  0.94569829  1  0  -0.46513  0  3.290392  0  0  -0.392348  0  3.597356  0  0  -0.414449  0  3.607965  0  0  -0.364085  -0.377191  0  3.590084  0
N  N71  1  0.86665173  0.73551594  0.05430155  1  0  -0.464965  0  3.290363  0  0  -0.392134  0  3.597418  0  0  -0.414217  0  3.607985  0  0  -0.364048  -0.376976  0  3.590131  0
N  N72  1  0.98704916  0.48285250  0.85914545  1  0  -0.105021  0  3.525174  0  0  -0.013086  0  3.736966  0  0  -0.028981  0  3.762334  0  0  -0.237009  -0.002579  0  3.719694  0
N  N73  1  0.01294787  0.51714543  0.14085334  1  0  -0.105124  0  3.525118  0  0  -0.013139  0  3.736993  0  0  -0.029035  0  3.762364  0  0  -0.23702  -0.002632  0  3.719722  0
O  O74  1  0.39228525  0.92574777  0.92950202  1  0  -0.671706  0  2.065397  0  0  -0.600173  0  2.337932  0  0  -0.626027  0  2.32132  0  0  -0.33067  -0.581998  0  2.348778  0
O  O75  1  0.60771504  0.07425454  0.07050033  1  0  -0.671638  0  2.065243  0  0  -0.600149  0  2.337818  0  0  -0.62604  0  2.321287  0  0  -0.330654  -0.581977  0  2.348674  0
O  O76  1  0.64279965  0.97129832  0.83966766  1  0  -0.619982  0  2.064925  0  0  -0.551121  0  2.331575  0  0  -0.578454  0  2.318029  0  0  -0.307361  -0.532177  0  2.340438  0
O  O77  1  0.35720712  0.02870181  0.16032885  1  0  -0.619968  0  2.06504  0  0  -0.551077  0  2.33163  0  0  -0.578405  0  2.318086  0  0  -0.307341  -0.532133  0  2.340494  0
O  O78  1  0.98435609  0.01904219  0.88602241  1  0  -0.677095  0  2.111249  0  0  -0.593199  0  2.389941  0  0  -0.624186  0  2.37429  0  0  -0.324036  -0.571253  0  2.400284  0
O  O79  1  0.01565212  0.98094917  0.11398481  1  0  -0.6772  0  2.111273  0  0  -0.593226  0  2.389885  0  0  -0.624233  0  2.374259  0  0  -0.324038  -0.571263  0  2.400211  0
O  O80  1  0.09785141  0.81098985  0.80102277  1  0  -0.604181  0  1.933228  0  0  -0.558196  0  2.164427  0  0  -0.581416  0  2.15522  0  0  -0.307302  -0.541463  0  2.170286  0
O  O81  1  0.90216031  0.18900260  0.19898585  1  0  -0.604225  0  1.93325  0  0  -0.558257  0  2.164489  0  0  -0.581479  0  2.155275  0  0  -0.307335  -0.54152  0  2.17035  0
