# generated using pymatgen
data_H12PbC16(N5O2)2
_symmetry_space_group_name_H-M   'P 1'
_cell_length_a   4.95799713
_cell_length_b   13.01260414
_cell_length_c   15.41030296
_cell_angle_alpha   109.86392310
_cell_angle_beta   89.97618334
_cell_angle_gamma   90.06327626
_symmetry_Int_Tables_number   1
_chemical_formula_structural   H12PbC16(N5O2)2
_chemical_formula_sum   'H24 Pb2 C32 N20 O8'
_cell_volume   935.06380369
_cell_formula_units_Z   2
loop_
 _symmetry_equiv_pos_site_id
 _symmetry_equiv_pos_as_xyz
  1  'x, y, z'
loop_
 _atom_site_type_symbol
 _atom_site_label
 _atom_site_symmetry_multiplicity
 _atom_site_fract_x
 _atom_site_fract_y
 _atom_site_fract_z
 _atom_site_occupancy
 _atom_site_hle17_bader_spin_density
 _atom_site_hle17_ddec_charge
 _atom_site_hle17_ddec_spin_density
 _atom_site_hle17_ddec_sum_bond_order
 _atom_site_hle17_magmom
 _atom_site_hse06_10hf_bader_spin_density
 _atom_site_hse06_10hf_ddec_charge
 _atom_site_hse06_10hf_ddec_spin_density
 _atom_site_hse06_10hf_ddec_sum_bond_order
 _atom_site_hse06_10hf_magmom
 _atom_site_hse06_bader_spin_density
 _atom_site_hse06_ddec_charge
 _atom_site_hse06_ddec_spin_density
 _atom_site_hse06_ddec_sum_bond_order
 _atom_site_hse06_magmom
 _atom_site_pbe_bader_spin_density
 _atom_site_pbe_cm5_charge
 _atom_site_pbe_ddec_charge
 _atom_site_pbe_ddec_spin_density
 _atom_site_pbe_ddec_sum_bond_order
 _atom_site_pbe_magmom
H  H0  1  0.57669341  0.09641281  0.51540906  1  0  0.112514  0  0.991941  0  0  0.111105  0  1.072007  0  0  0.115601  0  1.069205  0  0  0.104595  0.107895  0  1.074087  0
H  H1  1  0.07671921  0.40350807  0.98458119  1  0  0.112731  0  0.991465  0  0  0.111244  0  1.071614  0  0  0.115748  0  1.068806  0  0  0.104747  0.108034  0  1.073684  0
H  H2  1  0.42334385  0.90365138  0.48457877  1  0  0.112707  0  0.992232  0  0  0.111411  0  1.072089  0  0  0.115895  0  1.069313  0  0  0.104847  0.108214  0  1.074141  0
H  H3  1  0.92313407  0.59645262  0.01539717  1  0  0.112704  0  0.991538  0  0  0.111188  0  1.071692  0  0  0.115692  0  1.068881  0  0  0.104768  0.10798  0  1.073766  0
H  H4  1  0.24592336  0.22116685  0.70264128  1  0  0.106794  0  0.966704  0  0  0.114526  0  1.031523  0  0  0.11719  0  1.031845  0  0  0.105203  0.112633  0  1.031411  0
H  H5  1  0.74584436  0.27891659  0.79737161  1  0  0.106684  0  0.966735  0  0  0.114421  0  1.031462  0  0  0.117054  0  1.031875  0  0  0.105126  0.112511  0  1.031379  0
H  H6  1  0.75394430  0.77890078  0.29742862  1  0  0.106748  0  0.966715  0  0  0.114512  0  1.031418  0  0  0.117174  0  1.031746  0  0  0.105238  0.112624  0  1.031283  0
H  H7  1  0.25404111  0.72104945  0.20264718  1  0  0.106822  0  0.966637  0  0  0.114473  0  1.031423  0  0  0.117176  0  1.031761  0  0  0.105225  0.112523  0  1.031381  0
H  H8  1  0.59000479  0.26837364  0.47974432  1  0  0.087085  0  0.952912  0  0  0.091105  0  1.024145  0  0  0.094171  0  1.021185  0  0  0.113397  0.088829  0  1.026306  0
H  H9  1  0.08966738  0.23152364  0.02028851  1  0  0.087007  0  0.952816  0  0  0.091058  0  1.024073  0  0  0.094122  0  1.021105  0  0  0.113301  0.088804  0  1.026217  0
H  H10  1  0.41002228  0.73168691  0.52028013  1  0  0.087249  0  0.952775  0  0  0.091379  0  1.023851  0  0  0.094497  0  1.020828  0  0  0.113471  0.089054  0  1.026062  0
H  H11  1  0.91015566  0.76844444  0.97969450  1  0  0.087265  0  0.952887  0  0  0.091272  0  1.024175  0  0  0.094347  0  1.021201  0  0  0.113412  0.08901  0  1.026327  0
H  H12  1  0.34531765  0.89297198  0.76171158  1  0  0.14439  0  0.943515  0  0  0.150155  0  1.011438  0  0  0.153966  0  1.008178  0  0  0.125933  0.147382  0  1.013885  0
H  H13  1  0.84532599  0.60711995  0.73823785  1  0  0.144748  0  0.942157  0  0  0.150059  0  1.011314  0  0  0.153869  0  1.008051  0  0  0.125931  0.147284  0  1.01379  0
H  H14  1  0.65474148  0.10701049  0.23825277  1  0  0.144723  0  0.942206  0  0  0.150071  0  1.011297  0  0  0.153878  0  1.008046  0  0  0.125974  0.14731  0  1.01373  0
H  H15  1  0.15470290  0.39289662  0.26178599  1  0  0.144737  0  0.942223  0  0  0.149968  0  1.011368  0  0  0.153777  0  1.008107  0  0  0.125972  0.147205  0  1.013832  0
H  H16  1  0.11653293  0.78135028  0.71336230  1  0  0.135862  0  0.913077  0  0  0.14971  0  0.969303  0  0  0.151914  0  0.968428  0  0  0.131045  0.148096  0  0.970048  0
H  H17  1  0.61669579  0.71867386  0.78657655  1  0  0.135951  0  0.91215  0  0  0.14933  0  0.969647  0  0  0.151526  0  0.968781  0  0  0.13093  0.147737  0  0.970375  0
H  H18  1  0.88354026  0.21861163  0.28658527  1  0  0.136487  0  0.911826  0  0  0.149861  0  0.969271  0  0  0.152065  0  0.968396  0  0  0.131097  0.148249  0  0.97002  0
H  H19  1  0.38328682  0.28134465  0.21340436  1  0  0.136171  0  0.911946  0  0  0.149496  0  0.969302  0  0  0.151683  0  0.968446  0  0  0.131033  0.14791  0  0.970034  0
H  H20  1  0.22657116  0.39008190  0.65971040  1  0  0.075669  0  0.96109  0  0  0.079829  0  1.030913  0  0  0.082251  0  1.029538  0  0  0.109879  0.078029  0  1.032002  0
H  H21  1  0.72623118  0.11000281  0.84032557  1  0  0.075435  0  0.96111  0  0  0.079481  0  1.031054  0  0  0.081907  0  1.02968  0  0  0.109661  0.077679  0  1.032132  0
H  H22  1  0.77360491  0.60990243  0.34027589  1  0  0.075692  0  0.961386  0  0  0.079875  0  1.031192  0  0  0.082316  0  1.029767  0  0  0.109894  0.078067  0  1.032301  0
H  H23  1  0.27382802  0.89004598  0.15973843  1  0  0.0759  0  0.960468  0  0  0.079804  0  1.030557  0  0  0.08223  0  1.029177  0  0  0.10983  0.077993  0  1.03164  0
Pb  Pb24  1  0.50078187  0.99977984  0.99998459  1  0  1.329068  0  1.410932  0  0  1.136827  0  1.809645  0  0  1.198669  0  1.766542  0  0  0.657683  1.092077  0  1.839808  0
Pb  Pb25  1  0.00038651  0.50007700  0.50000447  1  0  1.328935  0  1.411155  0  0  1.136808  0  1.809953  0  0  1.198668  0  1.766857  0  0  0.657565  1.092047  0  1.84011  0
C  C26  1  0.91731188  0.04392406  0.63455852  1  0  0.24276  0  3.786629  0  0  0.225213  0  4.059677  0  0  0.231969  0  4.074876  0  0  0.221559  0.220542  0  4.049461  0
C  C27  1  0.41737416  0.45606688  0.86547625  1  0  0.244528  0  3.781723  0  0  0.225221  0  4.059511  0  0  0.232005  0  4.07467  0  0  0.221572  0.220532  0  4.049321  0
C  C28  1  0.08261017  0.95610057  0.36545653  1  0  0.244628  0  3.781684  0  0  0.225359  0  4.059669  0  0  0.232025  0  4.074994  0  0  0.22171  0.220751  0  4.049368  0
C  C29  1  0.58249340  0.54394792  0.13453346  1  0  0.244699  0  3.782246  0  0  0.225598  0  4.059719  0  0  0.232267  0  4.075027  0  0  0.221719  0.220936  0  4.049498  0
C  C30  1  0.72524905  0.15871362  0.54959823  1  0  -0.139868  0  3.684166  0  0  -0.16224  0  3.936142  0  0  -0.169883  0  3.957457  0  0  -0.08328  -0.157254  0  3.921785  0
C  C31  1  0.22513430  0.34121680  0.95043137  1  0  -0.139703  0  3.683859  0  0  -0.162324  0  3.935894  0  0  -0.16997  0  3.9572  0  0  -0.083284  -0.157335  0  3.92154  0
C  C32  1  0.27479216  0.84134099  0.45040640  1  0  -0.139742  0  3.684152  0  0  -0.162222  0  3.936016  0  0  -0.169861  0  3.957333  0  0  -0.083138  -0.157238  0  3.921664  0
C  C33  1  0.77474516  0.65874405  0.04956066  1  0  -0.139349  0  3.683682  0  0  -0.161958  0  3.935831  0  0  -0.169592  0  3.957118  0  0  -0.083165  -0.156959  0  3.921437  0
C  C34  1  0.09679189  0.22897208  0.65342005  1  0  -0.14397  0  3.698619  0  0  -0.162719  0  3.943337  0  0  -0.169223  0  3.963384  0  0  -0.081267  -0.158517  0  3.929846  0
C  C35  1  0.59665756  0.27108328  0.84661307  1  0  -0.144132  0  3.698966  0  0  -0.162977  0  3.943366  0  0  -0.169492  0  3.963414  0  0  -0.08145  -0.158771  0  3.929881  0
C  C36  1  0.90316448  0.77107069  0.34661435  1  0  -0.143826  0  3.698906  0  0  -0.16264  0  3.943475  0  0  -0.169148  0  3.963523  0  0  -0.08127  -0.158433  0  3.929998  0
C  C37  1  0.40322398  0.72890725  0.15340997  1  0  -0.143999  0  3.698987  0  0  -0.162785  0  3.943418  0  0  -0.169361  0  3.963415  0  0  -0.08128  -0.158551  0  3.929966  0
C  C38  1  0.73198062  0.25485122  0.52902880  1  0  0.126689  0  3.715173  0  0  0.096386  0  3.97439  0  0  0.102966  0  3.9932  0  0  0.045407  0.092112  0  3.961506  0
C  C39  1  0.23174078  0.24507797  0.97099983  1  0  0.12679  0  3.715208  0  0  0.096459  0  3.974477  0  0  0.103033  0  3.993312  0  0  0.045377  0.092177  0  3.961575  0
C  C40  1  0.26810697  0.74520176  0.47097602  1  0  0.126459  0  3.715411  0  0  0.096113  0  3.974496  0  0  0.102664  0  3.993296  0  0  0.0452  0.091882  0  3.961613  0
C  C41  1  0.76816487  0.75488138  0.02900411  1  0  0.126515  0  3.715396  0  0  0.096144  0  3.974555  0  0  0.102725  0  3.993374  0  0  0.045322  0.091854  0  3.961679  0
C  C42  1  0.13233205  0.86994725  0.74932674  1  0  -0.22079  0  3.567863  0  0  -0.276921  0  3.816891  0  0  -0.278918  0  3.820831  0  0  -0.045635  -0.275495  0  3.814406  0
C  C43  1  0.63240742  0.63008564  0.75061250  1  0  -0.209226  0  3.576419  0  0  -0.276209  0  3.817058  0  0  -0.278199  0  3.821007  0  0  -0.045228  -0.274816  0  3.814599  0
C  C44  1  0.86774314  0.13001390  0.25062581  1  0  -0.209778  0  3.577127  0  0  -0.277158  0  3.817603  0  0  -0.27916  0  3.821565  0  0  -0.045655  -0.275747  0  3.815127  0
C  C45  1  0.36761543  0.36992752  0.24939871  1  0  -0.209694  0  3.577073  0  0  -0.276247  0  3.817078  0  0  -0.278227  0  3.821031  0  0  -0.045355  -0.274904  0  3.814692  0
C  C46  1  0.97439728  0.89808824  0.84077516  1  0  0.691179  0  3.890917  0  0  0.640357  0  4.195835  0  0  0.674271  0  4.189661  0  0  0.217091  0.617281  0  4.199024  0
C  C47  1  0.47441868  0.60189001  0.65918116  1  0  0.692136  0  3.888872  0  0  0.640628  0  4.195675  0  0  0.674538  0  4.189505  0  0  0.217253  0.617567  0  4.198855  0
C  C48  1  0.02561312  0.10180176  0.15915035  1  0  0.69246  0  3.889641  0  0  0.640997  0  4.196333  0  0  0.674911  0  4.190158  0  0  0.217396  0.617925  0  4.199519  0
C  C49  1  0.52559018  0.39815664  0.34083877  1  0  0.692583  0  3.888954  0  0  0.641017  0  4.195645  0  0  0.674928  0  4.189466  0  0  0.217351  0.617963  0  4.198824  0
C  C50  1  0.91279367  0.14446639  0.61257532  1  0  0.059049  0  3.782137  0  0  0.075329  0  4.008473  0  0  0.078421  0  4.029383  0  0  0.015284  0.073497  0  3.994252  0
C  C51  1  0.41280602  0.35551828  0.88745355  1  0  0.058492  0  3.782347  0  0  0.075251  0  4.007964  0  0  0.078322  0  4.028882  0  0  0.014979  0.073431  0  3.99374  0
C  C52  1  0.08717682  0.85556887  0.38744466  1  0  0.058834  0  3.782377  0  0  0.075188  0  4.008555  0  0  0.078304  0  4.029482  0  0  0.015029  0.073336  0  3.994332  0
C  C53  1  0.58706551  0.64448022  0.11255484  1  0  0.058669  0  3.782276  0  0  0.075344  0  4.007827  0  0  0.078456  0  4.028767  0  0  0.015107  0.073515  0  3.993614  0
C  C54  1  0.08725136  0.32250618  0.62922701  1  0  0.131093  0  3.735446  0  0  0.101032  0  3.994386  0  0  0.107831  0  4.01249  0  0  0.045198  0.09658  0  3.981963  0
C  C55  1  0.58696241  0.17752381  0.87079386  1  0  0.131148  0  3.735573  0  0  0.101237  0  3.994564  0  0  0.108025  0  4.012684  0  0  0.045578  0.0968  0  3.982122  0
C  C56  1  0.91285020  0.67750505  0.37076030  1  0  0.131153  0  3.735413  0  0  0.101047  0  3.994333  0  0  0.107858  0  4.012437  0  0  0.045251  0.09659  0  3.981916  0
C  C57  1  0.41297158  0.82248332  0.12925784  1  0  0.131073  0  3.73492  0  0  0.101148  0  3.993831  0  0  0.107957  0  4.011953  0  0  0.045429  0.09671  0  3.981382  0
N  N58  1  0.08766056  0.02468953  0.69512804  1  0  -0.289505  0  2.793401  0  0  -0.280485  0  3.058854  0  0  -0.285233  0  3.070728  0  0  -0.190648  -0.277183  0  3.051  0
N  N59  1  0.58774140  0.47538577  0.80488875  1  0  -0.277304  0  2.804169  0  0  -0.280666  0  3.058718  0  0  -0.285415  0  3.070587  0  0  -0.190637  -0.277364  0  3.050872  0
N  N60  1  0.91229771  0.97530471  0.30486555  1  0  -0.276987  0  2.804565  0  0  -0.280569  0  3.058787  0  0  -0.285293  0  3.070694  0  0  -0.190506  -0.277289  0  3.050916  0
N  N61  1  0.41212816  0.52462162  0.19511370  1  0  -0.277317  0  2.804505  0  0  -0.280734  0  3.058972  0  0  -0.285455  0  3.070883  0  0  -0.19059  -0.277436  0  3.051105  0
N  N62  1  0.90993098  0.33564873  0.56780612  1  0  -0.361477  0  3.192904  0  0  -0.29344  0  3.4536  0  0  -0.312953  0  3.473825  0  0  -0.304562  -0.279974  0  3.43959  0
N  N63  1  0.40953718  0.16434158  0.93224448  1  0  -0.361466  0  3.192013  0  0  -0.293558  0  3.45283  0  0  -0.313051  0  3.473028  0  0  -0.304743  -0.280106  0  3.438838  0
N  N64  1  0.09024935  0.66438024  0.43216669  1  0  -0.361775  0  3.193901  0  0  -0.293706  0  3.454663  0  0  -0.313245  0  3.474923  0  0  -0.304633  -0.280226  0  3.440631  0
N  N65  1  0.59045916  0.83562811  0.06780974  1  0  -0.361935  0  3.19393  0  0  -0.293668  0  3.454498  0  0  -0.313228  0  3.474766  0  0  -0.304713  -0.280176  0  3.440466  0
N  N66  1  0.01896159  0.92386736  0.68949106  1  0  0.246617  0  3.554995  0  0  0.293939  0  3.838307  0  0  0.290464  0  3.858979  0  0  -0.00246  0.295946  0  3.824543  0
N  N67  1  0.51900664  0.57613030  0.81046834  1  0  0.206103  0  3.613277  0  0  0.29424  0  3.83855  0  0  0.29076  0  3.859234  0  0  -0.002574  0.29626  0  3.824776  0
N  N68  1  0.98103299  0.07611769  0.31048374  1  0  0.205121  0  3.614005  0  0  0.294172  0  3.838265  0  0  0.290696  0  3.858941  0  0  -0.002478  0.296182  0  3.824499  0
N  N69  1  0.48095373  0.42389101  0.18954254  1  0  0.206086  0  3.613668  0  0  0.294099  0  3.838975  0  0  0.290616  0  3.859653  0  0  -0.002595  0.296132  0  3.825196  0
N  N70  1  0.75107295  0.95700284  0.59524150  1  0  -0.247599  0  2.955017  0  0  -0.226551  0  3.241941  0  0  -0.234001  0  3.253125  0  0  -0.182289  -0.221333  0  3.234345  0
N  N71  1  0.25108818  0.54286273  0.90475246  1  0  -0.246051  0  2.949966  0  0  -0.226305  0  3.241574  0  0  -0.23376  0  3.25275  0  0  -0.182156  -0.221087  0  3.233991  0
N  N72  1  0.24886321  0.04301431  0.40476108  1  0  -0.246248  0  2.949952  0  0  -0.22666  0  3.241856  0  0  -0.234081  0  3.253063  0  0  -0.182455  -0.221463  0  3.234242  0
N  N73  1  0.74885210  0.45718150  0.09526742  1  0  -0.245955  0  2.950166  0  0  -0.226273  0  3.241743  0  0  -0.233687  0  3.252949  0  0  -0.182196  -0.221064  0  3.234149  0
N  N74  1  0.81612119  0.88165361  0.63069365  1  0  -0.087659  0  2.823127  0  0  -0.090303  0  3.111225  0  0  -0.085482  0  3.119638  0  0  -0.065156  -0.093365  0  3.105617  0
N  N75  1  0.31615515  0.61821445  0.86924257  1  0  -0.075883  0  2.833953  0  0  -0.090872  0  3.111981  0  0  -0.086058  0  3.120421  0  0  -0.065439  -0.093937  0  3.106369  0
N  N76  1  0.18386132  0.11834121  0.36928063  1  0  -0.075168  0  2.833051  0  0  -0.090388  0  3.110812  0  0  -0.085566  0  3.11922  0  0  -0.065226  -0.093449  0  3.105207  0
N  N77  1  0.68385572  0.38183144  0.13078234  1  0  -0.075788  0  2.83379  0  0  -0.090849  0  3.111925  0  0  -0.086043  0  3.120374  0  0  -0.065357  -0.093911  0  3.106307  0
O  O78  1  0.09702848  0.88990364  0.91009244  1  0  -0.674787  0  1.990187  0  0  -0.6112  0  2.237734  0  0  -0.641368  0  2.228997  0  0  -0.305927  -0.589689  0  2.24293  0
O  O79  1  0.59721639  0.61003094  0.58983307  1  0  -0.675127  0  1.990099  0  0  -0.611502  0  2.237718  0  0  -0.641674  0  2.228976  0  0  -0.306178  -0.589987  0  2.2429  0
O  O80  1  0.90275607  0.11001950  0.08987736  1  0  -0.674461  0  1.990933  0  0  -0.610868  0  2.238703  0  0  -0.640961  0  2.229803  0  0  -0.305857  -0.589397  0  2.243987  0
O  O81  1  0.40266348  0.39002946  0.41017575  1  0  -0.675014  0  1.990444  0  0  -0.611387  0  2.238127  0  0  -0.641551  0  2.229365  0  0  -0.306148  -0.589872  0  2.243321  0
O  O82  1  0.72816879  0.92348905  0.83843740  1  0  -0.658587  0  1.996835  0  0  -0.593236  0  2.23435  0  0  -0.623286  0  2.227237  0  0  -0.302204  -0.572045  0  2.23856  0
O  O83  1  0.22803892  0.57651251  0.66155236  1  0  -0.658119  0  1.994932  0  0  -0.593552  0  2.234345  0  0  -0.623588  0  2.227209  0  0  -0.302277  -0.572354  0  2.238541  0
O  O84  1  0.27177692  0.07632922  0.16141225  1  0  -0.658446  0  1.99567  0  0  -0.593691  0  2.234577  0  0  -0.62372  0  2.227439  0  0  -0.302368  -0.572514  0  2.238797  0
O  O85  1  0.77194775  0.42354923  0.33850357  1  0  -0.658203  0  1.995157  0  0  -0.593626  0  2.234402  0  0  -0.623662  0  2.227278  0  0  -0.302191  -0.572434  0  2.238602  0
