# generated using pymatgen
data_CuH20C22(NO4)2
_symmetry_space_group_name_H-M   'P 1'
_cell_length_a   9.30801747
_cell_length_b   9.42922507
_cell_length_c   11.64104108
_cell_angle_alpha   89.99836934
_cell_angle_beta   90.00057012
_cell_angle_gamma   98.77556143
_symmetry_Int_Tables_number   1
_chemical_formula_structural   CuH20C22(NO4)2
_chemical_formula_sum   'Cu2 H40 C44 N4 O16'
_cell_volume   1009.74328207
_cell_formula_units_Z   2
loop_
 _symmetry_equiv_pos_site_id
 _symmetry_equiv_pos_as_xyz
  1  'x, y, z'
loop_
 _atom_site_type_symbol
 _atom_site_label
 _atom_site_symmetry_multiplicity
 _atom_site_fract_x
 _atom_site_fract_y
 _atom_site_fract_z
 _atom_site_occupancy
 _atom_site_pbe_bader_charge
 _atom_site_pbe_bader_spin_density
 _atom_site_pbe_cm5_charge
 _atom_site_pbe_ddec_charge
 _atom_site_pbe_ddec_spin_density
 _atom_site_pbe_ddec_sum_bond_order
 _atom_site_pbe_magmom
Cu  Cu0  1  0.99999995  0.99999862  0.00000020  1  1.139385  -0.555945  0.696337  0.869269  -0.731216  2.075149  -0.556
Cu  Cu1  1  0.49999995  0.00000087  0.50000111  1  1.13924  0.555963  0.696376  0.869292  0.731231  2.075181  0.556
H  H2  1  0.32403605  0.11487984  0.91621872  1  0.5378  -3e-06  0.307106  0.274575  -6e-06  1.001224  0.0
H  H3  1  0.82402977  0.11488091  0.58377538  1  0.53784  3e-06  0.307058  0.274503  6e-06  1.001335  0.0
H  H4  1  0.67596604  0.88512005  0.08377795  1  0.537837  -3e-06  0.307079  0.274522  -6e-06  1.001179  0.0
H  H5  1  0.17596944  0.88512114  0.41622645  1  0.537857  3e-06  0.307062  0.274495  6e-06  1.001325  0.0
H  H6  1  0.45809280  0.18859401  0.75411520  1  0.104378  0.000237  0.102174  0.115328  0.000262  1.046815  0.0
H  H7  1  0.95808693  0.18859172  0.74586881  1  0.104412  -0.000237  0.102198  0.115437  -0.000262  1.046777  0.0
H  H8  1  0.54191070  0.81140802  0.24588318  1  0.104361  0.000237  0.102164  0.115334  0.000262  1.0468  0.0
H  H9  1  0.04191409  0.81140817  0.25413043  1  0.104398  -0.000237  0.102174  0.115413  -0.000262  1.046788  0.0
H  H10  1  0.63971498  0.37007195  0.66066945  1  0.078981  3.2e-05  0.099068  0.098532  1.8e-05  1.017297  0.0
H  H11  1  0.13970286  0.37006928  0.83931297  1  0.07927  -3.2e-05  0.099067  0.098571  -1.8e-05  1.017168  0.0
H  H12  1  0.36029016  0.62992685  0.33932894  1  0.079021  3.2e-05  0.099051  0.098499  1.8e-05  1.017316  0.0
H  H13  1  0.86029601  0.62993063  0.16068713  1  0.079276  -3.2e-05  0.099081  0.098571  -1.8e-05  1.017182  0.0
H  H14  1  0.78859177  0.56103529  0.77761528  1  0.092969  -4.3e-05  0.097614  0.104249  -4.7e-05  1.038521  0.0
H  H15  1  0.28858781  0.56103226  0.72236993  1  0.093029  4.3e-05  0.097668  0.104268  4.7e-05  1.038504  0.0
H  H16  1  0.21141393  0.43896029  0.22238568  1  0.093065  -4.3e-05  0.097621  0.104291  -4.7e-05  1.03844  0.0
H  H17  1  0.71141123  0.43896872  0.27763189  1  0.093059  4.3e-05  0.097676  0.104292  4.7e-05  1.038465  0.0
H  H18  1  0.75617828  0.56247059  0.98968981  1  0.069466  -0.00019  0.097331  0.094158  -0.000181  1.029343  0.0
H  H19  1  0.25617665  0.56246508  0.51029511  1  0.069187  0.00019  0.097293  0.094145  0.000181  1.029427  0.0
H  H20  1  0.24382454  0.43752715  0.01030858  1  0.069458  -0.00019  0.097307  0.094098  -0.000181  1.029279  0.0
H  H21  1  0.74382578  0.43753696  0.48970671  1  0.069257  0.00019  0.097273  0.094129  0.000181  1.029408  0.0
H  H22  1  0.58106219  0.37520271  0.08537353  1  0.090078  2.7e-05  0.104365  0.115983  3.2e-05  1.034707  0.0
H  H23  1  0.08105717  0.37520497  0.41460839  1  0.089787  -2.7e-05  0.104337  0.11593  -3.2e-05  1.034674  0.0
H  H24  1  0.41894080  0.62479610  0.91462486  1  0.090053  2.7e-05  0.104369  0.115947  3.2e-05  1.034749  0.0
H  H25  1  0.91894543  0.62479814  0.58539171  1  0.089782  -2.7e-05  0.104322  0.115908  -3.2e-05  1.0347  0.0
H  H26  1  0.07450633  0.20700452  0.13520403  1  0.640314  0.000257  0.293379  0.324907  -0.000182  1.0107  0.0
H  H27  1  0.57451013  0.20701319  0.36479547  1  0.640288  -0.000257  0.293386  0.324871  0.000182  1.010725  0.0
H  H28  1  0.92549112  0.79299324  0.86479693  1  0.640346  0.000257  0.293391  0.324919  -0.000182  1.010716  0.0
H  H29  1  0.42548857  0.79298564  0.63520377  1  0.640326  -0.000257  0.293383  0.324848  0.000183  1.010789  0.0
H  H30  1  0.98006058  0.40616913  0.07281232  1  0.084889  -0.005469  0.094297  0.091723  -0.00297  1.023437  -0.004
H  H31  1  0.48006333  0.40617200  0.42718068  1  0.08484  0.005468  0.094285  0.091667  0.00297  1.023437  0.004
H  H32  1  0.01994061  0.59383184  0.92718606  1  0.084966  -0.005467  0.094292  0.091705  -0.00297  1.023459  -0.004
H  H33  1  0.51994159  0.59383217  0.57282028  1  0.084584  0.005468  0.094301  0.091649  0.002969  1.023534  0.004
H  H34  1  0.84046837  0.25292263  0.08459770  1  0.068735  -0.000986  0.092806  0.096421  -0.000435  1.026191  -0.001
H  H35  1  0.34046850  0.25293021  0.41540030  1  0.068765  0.000986  0.092805  0.096381  0.000435  1.02624  0.001
H  H36  1  0.15953084  0.74707942  0.91540154  1  0.068753  -0.000986  0.092826  0.096436  -0.000434  1.026193  -0.001
H  H37  1  0.65953303  0.74707291  0.58460067  1  0.06871  0.000986  0.092801  0.09642  0.000434  1.026249  0.001
H  H38  1  0.91385984  0.30653534  0.94714910  1  0.069659  -0.000103  0.099195  0.107176  3e-06  1.027355  0.0
H  H39  1  0.41386666  0.30653908  0.55284386  1  0.06938  0.000103  0.099169  0.107106  -3e-06  1.027539  0.0
H  H40  1  0.08614118  0.69346456  0.05284929  1  0.069688  -0.000102  0.099202  0.107193  3e-06  1.027311  0.0
H  H41  1  0.58613792  0.69346294  0.44715796  1  0.069397  0.000103  0.099205  0.107183  -3e-06  1.027478  0.0
C  C42  1  0.26986652  0.01904893  0.13602908  1  0.833204  0.000782  0.112045  0.197805  -0.001074  4.114971  0.002
C  C43  1  0.76986328  0.01904048  0.36397290  1  0.8333  -0.000779  0.112013  0.197616  0.001077  4.11495  -0.002
C  C44  1  0.73012811  0.98094455  0.86397103  1  0.833211  0.000782  0.112086  0.197807  -0.001074  4.114769  0.002
C  C45  1  0.23013378  0.98096158  0.63603064  1  0.833282  -0.000779  0.111955  0.197635  0.001077  4.115332  -0.002
C  C46  1  0.34839034  0.03139135  0.24650648  1  0.863756  -0.01294  0.113145  0.185016  -0.009189  4.126839  -0.009
C  C47  1  0.84837801  0.03137487  0.25347952  1  0.863902  0.012939  0.113132  0.185111  0.00919  4.127204  0.009
C  C48  1  0.65160943  0.96860748  0.75348933  1  0.863899  -0.012938  0.113147  0.185008  -0.009187  4.126925  -0.009
C  C49  1  0.15161249  0.96861970  0.74651199  1  0.863797  0.012936  0.113026  0.184818  0.009188  4.127078  0.009
C  C50  1  0.46568922  0.13580615  0.19159056  1  0.873798  -0.008796  0.119339  0.196644  -0.005899  4.097763  -0.005
C  C51  1  0.96566263  0.13578358  0.30841287  1  0.872888  0.0088  0.119493  0.196852  0.005899  4.096742  0.005
C  C52  1  0.53431248  0.86419804  0.80840869  1  0.874114  -0.008794  0.119392  0.196716  -0.005898  4.097505  -0.005
C  C53  1  0.03432267  0.86421209  0.69158895  1  0.873057  0.008794  0.119565  0.197071  0.005894  4.097268  0.005
C  C54  1  0.38591985  0.11822787  0.08195763  1  0.517135  -0.007081  0.121048  0.058917  -0.004616  3.958326  -0.005
C  C55  1  0.88590445  0.11821978  0.41804041  1  0.518001  0.007076  0.120979  0.058994  0.004614  3.958619  0.005
C  C56  1  0.61407675  0.88176453  0.91804161  1  0.516866  -0.007078  0.121033  0.058889  -0.004613  3.95859  -0.005
C  C57  1  0.11409046  0.88178229  0.58196227  1  0.517865  0.007077  0.120987  0.058836  0.004614  3.958602  0.005
C  C58  1  0.52482814  0.26951700  0.80610130  1  -0.044031  -0.000453  -0.098957  -0.185108  -0.000311  3.971532  0.0
C  C59  1  0.02482346  0.26951172  0.69388252  1  -0.043747  0.000452  -0.099027  -0.185416  0.00031  3.971385  0.0
C  C60  1  0.47517288  0.73048289  0.19389623  1  -0.043958  -0.000452  -0.09897  -0.185199  -0.000311  3.971545  0.0
C  C61  1  0.97517846  0.73048710  0.30611673  1  -0.044049  0.000451  -0.099056  -0.185436  0.00031  3.971464  0.0
C  C62  1  0.62643415  0.37306870  0.75364214  1  -0.070332  0.000312  -0.093993  -0.063037  0.000225  4.017995  0.0
C  C63  1  0.12642787  0.37306271  0.74634353  1  -0.070701  -0.000312  -0.093939  -0.063043  -0.000225  4.017775  0.0
C  C64  1  0.37357116  0.62693118  0.24635710  1  -0.070545  0.000313  -0.094008  -0.063019  0.000225  4.018058  0.0
C  C65  1  0.87357208  0.62693719  0.25365743  1  -0.070351  -0.000312  -0.093959  -0.06304  -0.000225  4.017788  0.0
C  C66  1  0.71090463  0.47871176  0.81909847  1  -0.024611  -0.001355  -0.102284  -0.111025  -0.00092  4.005255  -0.001
C  C67  1  0.21090223  0.47870154  0.68089146  1  -0.024445  0.001353  -0.1023  -0.110894  0.000918  4.005086  0.001
C  C68  1  0.28909961  0.52128812  0.18090164  1  -0.024518  -0.001354  -0.102235  -0.111064  -0.000919  4.005138  -0.001
C  C69  1  0.78909879  0.52129836  0.31911294  1  -0.024445  0.001352  -0.102272  -0.110889  0.000918  4.005185  0.001
C  C70  1  0.69347983  0.47822179  0.93833859  1  -0.07437  4.9e-05  -0.093077  -0.068161  -2e-06  4.022782  0.0
C  C71  1  0.19347744  0.47822098  0.56164777  1  -0.074243  -4.8e-05  -0.093082  -0.068359  3e-06  4.022765  0.0
C  C72  1  0.30652440  0.52177809  0.06166237  1  -0.074333  4.9e-05  -0.093042  -0.068027  -2e-06  4.022698  0.0
C  C73  1  0.80652516  0.52178213  0.43835406  1  -0.07433  -4.8e-05  -0.09307  -0.06834  2e-06  4.022875  0.0
C  C74  1  0.59432504  0.37376227  0.99255878  1  -0.007174  -0.000943  -0.094686  -0.171133  -0.000617  3.958975  -0.001
C  C75  1  0.09431815  0.37376440  0.50742490  1  -0.007074  0.000941  -0.094708  -0.171111  0.000616  3.958672  0.001
C  C76  1  0.40567778  0.62623547  0.00743960  1  -0.0072  -0.000942  -0.094695  -0.171159  -0.000617  3.95901  -0.001
C  C77  1  0.90568321  0.62623764  0.49257520  1  -0.007101  0.000941  -0.094682  -0.171032  0.000616  3.958777  0.001
C  C78  1  0.50940924  0.26891268  0.92609910  1  0.295459  -0.000308  0.090079  0.210543  -0.000245  4.024116  0.0
C  C79  1  0.00940908  0.26891145  0.57388460  1  0.295364  0.000308  0.09011  0.210816  0.000245  4.023693  0.0
C  C80  1  0.49059303  0.73108828  0.07389928  1  0.295424  -0.000308  0.090078  0.210585  -0.000245  4.023916  0.0
C  C81  1  0.99059086  0.73108845  0.42611464  1  0.295305  0.000308  0.090103  0.2107  0.000245  4.023775  0.0
C  C82  1  0.93954596  0.29901066  0.03830789  1  0.3293  -0.001846  -0.161425  -0.149013  -0.001861  3.911419  0.0
C  C83  1  0.43955093  0.29901127  0.46168640  1  0.329662  0.001846  -0.161389  -0.148845  0.001861  3.911632  0.0
C  C84  1  0.06045415  0.70099032  0.96169049  1  0.329233  -0.001846  -0.161432  -0.149002  -0.00186  3.911437  0.0
C  C85  1  0.56045472  0.70099075  0.53831542  1  0.32994  0.001845  -0.16143  -0.148992  0.00186  3.911679  0.0
N  N86  1  0.40219884  0.16322374  0.97374511  1  -1.321085  -0.004367  -0.374226  -0.2459  -0.002666  3.670774  -0.003
N  N87  1  0.90218751  0.16322464  0.52624505  1  -1.321459  0.004362  -0.374134  -0.245897  0.002662  3.670854  0.003
N  N88  1  0.59780059  0.83677294  0.02624984  1  -1.321274  -0.004365  -0.374155  -0.245722  -0.002664  3.670837  -0.003
N  N89  1  0.09781063  0.83677742  0.47375419  1  -1.321368  0.004362  -0.374089  -0.245731  0.002662  3.670797  0.003
O  O90  1  0.14857186  0.94939759  0.10700239  1  -1.132201  -0.072818  -0.298896  -0.416545  -0.048622  2.491306  -0.066
O  O91  1  0.64855821  0.94939572  0.39299686  1  -1.132197  0.072839  -0.298827  -0.416436  0.048635  2.491347  0.066
O  O92  1  0.85142933  0.05060338  0.89299514  1  -1.132131  -0.072822  -0.298881  -0.416548  -0.048625  2.491173  -0.066
O  O93  1  0.35143173  0.05060208  0.60700668  1  -1.132183  0.072811  -0.298787  -0.416366  0.048617  2.491409  0.066
O  O94  1  0.32584571  0.97793360  0.34405116  1  -1.163349  -0.014326  -0.281948  -0.437196  -0.009073  2.407848  -0.011
O  O95  1  0.82584110  0.97791932  0.15596175  1  -1.163558  0.014323  -0.281864  -0.4371  0.009071  2.408604  0.011
O  O96  1  0.67414994  0.02206632  0.65595152  1  -1.163493  -0.014321  -0.28195  -0.437147  -0.00907  2.407993  -0.011
O  O97  1  0.17415506  0.02208382  0.84404695  1  -1.163372  0.014319  -0.281845  -0.437062  0.009068  2.408024  0.011
O  O98  1  0.58033312  0.20923346  0.22774157  1  -1.152893  -0.012131  -0.281927  -0.407748  -0.0079  2.307632  -0.01
O  O99  1  0.08032255  0.20922554  0.27225362  1  -1.152519  0.012134  -0.282065  -0.407999  0.007903  2.306399  0.01
O  O100  1  0.41966077  0.79076217  0.77225423  1  -1.152859  -0.012129  -0.282008  -0.407864  -0.007899  2.307232  -0.01
O  O101  1  0.91967915  0.79077865  0.72774476  1  -1.152699  0.012124  -0.282114  -0.408004  0.007896  2.306959  0.01
O  O102  1  0.05207059  0.20974945  0.04959129  1  -1.12957  -0.066873  -0.409813  -0.451794  -0.045173  2.510904  -0.061
O  O103  1  0.55207430  0.20975091  0.45040882  1  -1.129618  0.066867  -0.409792  -0.45176  0.045168  2.510997  0.061
O  O104  1  0.94792580  0.79024832  0.95040967  1  -1.129631  -0.066868  -0.409816  -0.451846  -0.045169  2.510995  -0.061
O  O105  1  0.44792581  0.79025006  0.54959214  1  -1.129641  0.06687  -0.409797  -0.451709  0.04517  2.510956  0.061
