# generated using pymatgen
data_AlH9C20Cl4O5
_symmetry_space_group_name_H-M   'P 1'
_cell_length_a   6.63078142
_cell_length_b   25.33689471
_cell_length_c   29.18136121
_cell_angle_alpha   89.99972132
_cell_angle_beta   90.00522107
_cell_angle_gamma   89.99079230
_symmetry_Int_Tables_number   1
_chemical_formula_structural   AlH9C20Cl4O5
_chemical_formula_sum   'Al4 H36 C80 Cl16 O20'
_cell_volume   4902.56812789
_cell_formula_units_Z   4
loop_
 _symmetry_equiv_pos_site_id
 _symmetry_equiv_pos_as_xyz
  1  'x, y, z'
loop_
 _atom_site_type_symbol
 _atom_site_label
 _atom_site_symmetry_multiplicity
 _atom_site_fract_x
 _atom_site_fract_y
 _atom_site_fract_z
 _atom_site_occupancy
 _atom_site_pbe_bader_charge
 _atom_site_pbe_bader_spin_density
 _atom_site_pbe_cm5_charge
 _atom_site_pbe_ddec_charge
 _atom_site_pbe_ddec_spin_density
 _atom_site_pbe_ddec_sum_bond_order
 _atom_site_pbe_magmom
Al  Al0  1  0.79965333  0.74861825  0.74997808  1  2.48695  0  0.393873  1.661819  0  2.549317  0
Al  Al1  1  0.20034797  0.25138171  0.25002181  1  2.486752  0  0.393877  1.661909  0  2.549252  0
Al  Al2  1  0.29965980  0.75135542  0.74999567  1  2.485277  0  0.393757  1.662044  0  2.549043  0
Al  Al3  1  0.70034150  0.24864336  0.25000421  1  2.485295  0  0.393761  1.662027  0  2.549067  0
H  H4  1  0.19334391  0.36983434  0.45494698  1  0.096645  0  0.105318  0.120232  0  1.005112  0
H  H5  1  0.80666644  0.63016997  0.54505051  1  0.096732  0  0.105308  0.120173  0  1.005216  0
H  H6  1  0.80542348  0.62998009  0.95473597  1  0.075454  0  0.105192  0.119858  0  1.005786  0
H  H7  1  0.19458988  0.37002382  0.04526358  1  0.075417  0  0.105182  0.119826  0  1.005814  0
H  H8  1  0.69599870  0.12962097  0.04550886  1  0.063053  0  0.105138  0.119625  0  1.005755  0
H  H9  1  0.30398601  0.87037820  0.95449343  1  0.062891  0  0.105115  0.119588  0  1.005663  0
H  H10  1  0.30669364  0.86986554  0.54504859  1  0.078937  0  0.105252  0.119971  0  1.005251  0
H  H11  1  0.69330313  0.13013561  0.45494958  1  0.078995  0  0.105253  0.120015  0  1.005175  0
H  H12  1  0.73721388  0.46546723  0.38965408  1  0.056961  0  0.104782  0.118823  0  1.006598  0
H  H13  1  0.26279195  0.53453392  0.61034033  1  0.056891  0  0.104799  0.118884  0  1.006631  0
H  H14  1  0.26433704  0.53484732  0.88993218  1  0.056772  0  0.104721  0.118941  0  1.006829  0
H  H15  1  0.73565522  0.46515106  0.11006668  1  0.056939  0  0.104715  0.118934  0  1.006869  0
H  H16  1  0.23342483  0.03527723  0.10979581  1  0.111383  0  0.104649  0.118793  0  1.007442  0
H  H17  1  0.76656289  0.96472273  0.89020648  1  0.111524  0  0.104636  0.118782  0  1.007372  0
H  H18  1  0.76261191  0.96547460  0.61040550  1  0.061923  0  0.104864  0.119014  0  1.006555  0
H  H19  1  0.23739542  0.03452259  0.38959404  1  0.061887  0  0.104821  0.118937  0  1.006675  0
H  H20  1  0.93857125  0.52957177  0.42013980  1  0.072341  0  0.103622  0.10421  0  0.997743  0
H  H21  1  0.06143457  0.47043134  0.57985495  1  0.072423  0  0.103631  0.104297  0  0.99766  0
H  H22  1  0.06292358  0.47049018  0.92018866  1  0.07649  0  0.103597  0.104273  0  0.997534  0
H  H23  1  0.93708224  0.52951215  0.07981123  1  0.076455  0  0.103569  0.104197  0  0.997546  0
H  H24  1  0.43349277  0.97056432  0.07967869  1  0.07459  0  0.103673  0.104384  0  0.997659  0
H  H25  1  0.56649647  0.02943761  0.92032257  1  0.074496  0  0.103691  0.104378  0  0.997748  0
H  H26  1  0.56164428  0.02957813  0.57984245  1  0.072012  0  0.103573  0.104234  0  0.997761  0
H  H27  1  0.43836003  0.97042223  0.42015847  1  0.072004  0  0.103582  0.104233  0  0.99775  0
H  H28  1  0.96502822  0.59532658  0.48202186  1  0.040379  0  0.103696  0.104715  0  0.99704  0
H  H29  1  0.03497911  0.40467812  0.51797289  1  0.040464  0  0.103767  0.104738  0  0.997082  0
H  H30  1  0.03648080  0.40471178  0.98204997  1  0.04016  0  0.103959  0.104917  0  0.997265  0
H  H31  1  0.96353106  0.59529173  0.01795061  1  0.04008  0  0.10395  0.104929  0  0.997191  0
H  H32  1  0.46066599  0.90476581  0.01785580  1  0.044917  0  0.103894  0.104898  0  0.997543  0
H  H33  1  0.53932475  0.09523573  0.98214546  1  0.044899  0  0.103865  0.104819  0  0.997545  0
H  H34  1  0.53510388  0.09531970  0.51796002  1  0.040786  0  0.103838  0.104691  0  0.99722  0
H  H35  1  0.46489742  0.90468026  0.48204090  1  0.040811  0  0.103842  0.104685  0  0.997214  0
H  H36  1  0.54269632  0.68020193  0.74991128  1  0.600065  0  0.34878  0.432366  0  0.854286  0
H  H37  1  0.45730649  0.31979764  0.25008964  1  0.600077  0  0.348779  0.432346  0  0.854328  0
H  H38  1  0.04261858  0.81976724  0.74997427  1  0.600703  0  0.348321  0.431883  0  0.854751  0
H  H39  1  0.95738573  0.18023154  0.25002527  1  0.600675  0  0.348281  0.431857  0  0.854728  0
C  C40  1  0.55203419  0.81265443  0.68717689  1  1.615837  0  0.263174  0.661584  0  4.101501  0
C  C41  1  0.44795655  0.18734434  0.31282232  1  1.615681  0  0.26311  0.661472  0  4.101724  0
C  C42  1  0.44756544  0.18737262  0.18718458  1  1.61634  0  0.263225  0.661517  0  4.101859  0
C  C43  1  0.55242982  0.81262616  0.81281668  1  1.616531  0  0.263172  0.661464  0  4.101708  0
C  C44  1  0.05239759  0.68733699  0.81281089  1  1.615376  0  0.263013  0.661069  0  4.102584  0
C  C45  1  0.94760371  0.31266218  0.18718694  1  1.615544  0  0.26294  0.660905  0  4.102939  0
C  C46  1  0.94781232  0.31266470  0.31283633  1  1.616576  0  0.263417  0.661975  0  4.101158  0
C  C47  1  0.05219652  0.68733368  0.68716356  1  1.616974  0  0.263342  0.66189  0  4.101253  0
C  C48  1  0.07772465  0.34157138  0.39096313  1  0.046785  0  0.023026  0.155059  0  4.029763  0
C  C49  1  0.92228569  0.65842977  0.60903573  1  0.046473  0  0.023099  0.155239  0  4.029731  0
C  C50  1  0.92166819  0.65833003  0.89084574  1  0.046036  0  0.022742  0.154469  0  4.029578  0
C  C51  1  0.07833763  0.34167032  0.10915312  1  0.045706  0  0.022651  0.154359  0  4.029602  0
C  C52  1  0.57909623  0.15816040  0.10926721  1  0.047425  0  0.023279  0.155885  0  4.028838  0
C  C53  1  0.42089753  0.84183877  0.89073474  1  0.047667  0  0.023186  0.155793  0  4.029069  0
C  C54  1  0.42214707  0.84159079  0.60904504  1  0.048713  0  0.023006  0.154829  0  4.029759  0
C  C55  1  0.57784518  0.15840878  0.39095383  1  0.048251  0  0.02308  0.155026  0  4.029505  0
C  C56  1  0.08761263  0.37733372  0.42715496  1  -0.023541  0  -0.099393  -0.215702  0  3.971203  0
C  C57  1  0.91239620  0.62266861  0.57284253  1  -0.023595  0  -0.09933  -0.215539  0  3.971257  0
C  C58  1  0.91172186  0.62257242  0.92704944  1  -0.005584  0  -0.098654  -0.214472  0  3.971902  0
C  C59  1  0.08828246  0.37742991  0.07295148  1  -0.005528  0  -0.098551  -0.21428  0  3.971867  0
C  C60  1  0.58893896  0.12238754  0.07308442  1  0.006964  0  -0.099604  -0.215404  0  3.971632  0
C  C61  1  0.41105028  0.87761242  0.92691753  1  0.006881  0  -0.099469  -0.215227  0  3.97176  0
C  C62  1  0.41236873  0.87735694  0.57285012  1  -0.009306  0  -0.099484  -0.215397  0  3.971933  0
C  C63  1  0.58762804  0.12264263  0.42714908  1  -0.009064  0  -0.099556  -0.215624  0  3.971893  0
C  C64  1  0.96868833  0.42304633  0.42702228  1  0.071005  0  -0.001751  0.109706  0  4.021358  0
C  C65  1  0.03132202  0.57695600  0.57297418  1  0.070671  0  -0.001867  0.109544  0  4.021611  0
C  C66  1  0.03137302  0.57699794  0.92704368  1  0.073979  0  -0.002116  0.108765  0  4.022708  0
C  C67  1  0.96862827  0.42300360  0.07295689  1  0.074007  0  -0.002226  0.108626  0  4.022514  0
C  C68  1  0.46819433  0.07702519  0.07293792  1  0.07876  0  -0.001916  0.10916  0  4.021658  0
C  C69  1  0.53179038  0.92297438  0.92706334  1  0.075531  0  -0.001974  0.10905  0  4.021813  0
C  C70  1  0.53130347  0.92305085  0.57299074  1  0.072254  0  -0.001665  0.109658  0  4.021515  0
C  C71  1  0.46869632  0.07694911  0.42700812  1  0.072332  0  -0.001751  0.109604  0  4.02139  0
C  C72  1  0.83571468  0.43110030  0.39037258  1  0.031943  0  -0.100368  -0.217251  0  3.972664  0
C  C73  1  0.16429416  0.56890006  0.60962354  1  0.032346  0  -0.100403  -0.217413  0  3.972857  0
C  C74  1  0.16521336  0.56909550  0.89053301  1  0.032759  0  -0.099996  -0.216933  0  3.973166  0
C  C75  1  0.83478040  0.43090446  0.10946551  1  0.032636  0  -0.100078  -0.217064  0  3.973352  0
C  C76  1  0.33337135  0.06935470  0.10929481  1  -0.034435  0  -0.100216  -0.217514  0  3.974436  0
C  C77  1  0.66661487  0.93064408  0.89070679  1  -0.031641  0  -0.100192  -0.217477  0  3.974572  0
C  C78  1  0.66413450  0.93110698  0.60967048  1  0.029351  0  -0.100593  -0.217758  0  3.972394  0
C  C79  1  0.33586529  0.06889061  0.39032838  1  0.029318  0  -0.100528  -0.217693  0  3.972401  0
C  C80  1  0.82505171  0.39484423  0.35456969  1  0.047409  0  0.023831  0.161083  0  4.021063  0
C  C81  1  0.17495260  0.60515415  0.64542780  1  0.047807  0  0.023856  0.161207  0  4.020905  0
C  C82  1  0.17597837  0.60535120  0.85473574  1  0.027701  0  0.023806  0.160963  0  4.021619  0
C  C83  1  0.82401539  0.39464758  0.14526210  1  0.027705  0  0.023924  0.161118  0  4.021392  0
C  C84  1  0.32275175  0.10561183  0.14509856  1  0.036542  0  0.024091  0.161665  0  4.021582  0
C  C85  1  0.67723597  0.89438814  0.85490441  1  0.036859  0  0.024072  0.161629  0  4.021776  0
C  C86  1  0.67462188  0.89486916  0.64548539  1  0.045535  0  0.023838  0.161588  0  4.02098  0
C  C87  1  0.32537490  0.10512764  0.35451484  1  0.045402  0  0.02382  0.161626  0  4.020941  0
C  C88  1  0.94804766  0.34947794  0.35320316  1  0.049247  0  -0.019356  -0.160318  0  3.895328  0
C  C89  1  0.05195967  0.65052123  0.64679535  1  0.04906  0  -0.019339  -0.160386  0  3.895131  0
C  C90  1  0.05215167  0.65055440  0.85320554  1  0.070974  0  -0.019379  -0.160176  0  3.895309  0
C  C91  1  0.94785415  0.34944359  0.14679367  1  0.070986  0  -0.019414  -0.160221  0  3.89519  0
C  C92  1  0.44768449  0.15060199  0.14678142  1  0.071904  0  -0.019617  -0.161044  0  3.894573  0
C  C93  1  0.55230625  0.84939758  0.85322121  1  0.07172  0  -0.019553  -0.161019  0  3.894683  0
C  C94  1  0.55173263  0.84949663  0.64682232  1  0.048766  0  -0.019023  -0.159917  0  3.894818  0
C  C95  1  0.44825962  0.15050255  0.35317723  1  0.049051  0  -0.018978  -0.159864  0  3.894768  0
C  C96  1  0.96231573  0.51633540  0.45531388  1  -0.103339  0  -0.089292  -0.124341  0  3.991359  0
C  C97  1  0.03769009  0.48366811  0.54468019  1  -0.103218  0  -0.089406  -0.124601  0  3.991286  0
C  C98  1  0.03852516  0.48370123  0.95534611  1  -0.107687  0  -0.089583  -0.124491  0  3.991265  0
C  C99  1  0.96147764  0.51630268  0.04465515  1  -0.108638  0  -0.089536  -0.124359  0  3.991165  0
C  C100  1  0.45953127  0.98375073  0.04457672  1  -0.098425  0  -0.089505  -0.124851  0  3.991627  0
C  C101  1  0.54045645  0.01625002  0.95542420  1  -0.098848  0  -0.089517  -0.124809  0  3.99167  0
C  C102  1  0.53781008  0.01633730  0.54467667  1  -0.103182  0  -0.089376  -0.124586  0  3.991278  0
C  C103  1  0.46219122  0.98366148  0.45532390  1  -0.103195  0  -0.08943  -0.124645  0  3.991388  0
C  C104  1  0.97763092  0.55345494  0.49024574  1  -0.045168  0  -0.08913  -0.125219  0  3.991471  0
C  C105  1  0.02237792  0.44654818  0.50975072  1  -0.044641  0  -0.089154  -0.125122  0  3.991316  0
C  C106  1  0.02322115  0.44656581  0.99026294  1  0.002838  0  -0.089299  -0.125367  0  3.991245  0
C  C107  1  0.97678619  0.55343454  0.00973832  1  0.003676  0  -0.089325  -0.125403  0  3.99129  0
C  C108  1  0.47521244  0.94660435  0.00967883  1  -0.006029  0  -0.089176  -0.125148  0  3.991173  0
C  C109  1  0.52477529  0.05339640  0.99032277  1  -0.005465  0  -0.089136  -0.12504  0  3.991343  0
C  C110  1  0.52245106  0.05345180  0.50974267  1  -0.045086  0  -0.089156  -0.125053  0  3.990943  0
C  C111  1  0.47755024  0.94654935  0.49025722  1  -0.045079  0  -0.089072  -0.124894  0  3.991046  0
C  C112  1  0.01579818  0.53786179  0.53564118  1  0.050946  0  -0.00686  0.067829  0  3.996944  0
C  C113  1  0.98420764  0.46214330  0.46435186  1  0.050778  0  -0.006864  0.067758  0  3.996934  0
C  C114  1  0.98420606  0.46212063  0.03563437  1  0.004495  0  -0.006768  0.067882  0  3.996037  0
C  C115  1  0.01579977  0.53788249  0.96436450  1  0.00436  0  -0.006796  0.067876  0  3.996395  0
C  C116  1  0.51614743  0.96210924  0.96437745  1  0.001434  0  -0.006772  0.068151  0  3.995947  0
C  C117  1  0.48383879  0.03789270  0.03562347  1  0.001458  0  -0.006792  0.068101  0  3.996224  0
C  C118  1  0.48415710  0.03785616  0.46434645  1  0.051371  0  -0.007007  0.067797  0  3.996444  0
C  C119  1  0.51584420  0.96214420  0.53565412  1  0.051289  0  -0.007036  0.067741  0  3.996556  0
Cl  Cl120  1  0.22876958  0.28614724  0.39484063  1  -0.18104  0  0.002767  -0.0611  0  1.564768  0
Cl  Cl121  1  0.77124831  0.71385548  0.60515789  1  -0.180901  0  0.00272  -0.061202  0  1.564769  0
Cl  Cl122  1  0.76970447  0.71359853  0.89457891  1  -0.180425  0  0.002994  -0.060453  0  1.563545  0
Cl  Cl123  1  0.23030588  0.28640340  0.10541824  1  -0.180161  0  0.003023  -0.060434  0  1.563536  0
Cl  Cl124  1  0.73237759  0.21317454  0.10564124  1  -0.182311  0  0.002958  -0.061166  0  1.564976  0
Cl  Cl125  1  0.26761617  0.78682384  0.89436071  1  -0.182073  0  0.00295  -0.061172  0  1.564959  0
Cl  Cl126  1  0.27108776  0.78618485  0.60515257  1  -0.180722  0  0.002836  -0.061026  0  1.56481  0
Cl  Cl127  1  0.72890298  0.21381511  0.39484458  1  -0.180665  0  0.002836  -0.061049  0  1.564689  0
Cl  Cl128  1  0.65839030  0.40953260  0.31068253  1  -0.20053  0  -0.007403  -0.076063  0  1.525397  0
Cl  Cl129  1  0.34160346  0.59046263  0.68931599  1  -0.200557  0  -0.007369  -0.076056  0  1.525398  0
Cl  Cl130  1  0.34408787  0.59086204  0.81108760  1  -0.196641  0  -0.006994  -0.075435  0  1.525832  0
Cl  Cl131  1  0.65590740  0.40913595  0.18891023  1  -0.196601  0  -0.006978  -0.075424  0  1.525835  0
Cl  Cl132  1  0.15343601  0.09133741  0.18855422  1  -0.199329  0  -0.006496  -0.074757  0  1.526665  0
Cl  Cl133  1  0.84655322  0.90866374  0.81144807  1  -0.199426  0  -0.006463  -0.074704  0  1.526613  0
Cl  Cl134  1  0.84078810  0.90959089  0.68945805  1  -0.199214  0  -0.007655  -0.076647  0  1.524506  0
Cl  Cl135  1  0.15920717  0.09040592  0.31054081  1  -0.199223  0  -0.007663  -0.076659  0  1.524391  0
O  O136  1  0.38107113  0.80145871  0.79604438  1  -1.23878  0  -0.232625  -0.584469  0  2.362839  0
O  O137  1  0.61892716  0.19854125  0.20395619  1  -1.238744  0  -0.232587  -0.584414  0  2.362914  0
O  O138  1  0.61935174  0.19867923  0.29617088  1  -1.236472  0  -0.232541  -0.584575  0  2.362615  0
O  O139  1  0.38063749  0.80131875  0.70382832  1  -1.236607  0  -0.232657  -0.584701  0  2.362472  0
O  O140  1  0.88076428  0.69866128  0.70381087  1  -1.237522  0  -0.232662  -0.584619  0  2.361911  0
O  O141  1  0.11924456  0.30133749  0.29618833  1  -1.237322  0  -0.232764  -0.584745  0  2.361814  0
O  O142  1  0.11894051  0.30148368  0.20396370  1  -1.239997  0  -0.232446  -0.583946  0  2.362308  0
O  O143  1  0.88106532  0.69851589  0.79603516  1  -1.240032  0  -0.232464  -0.584052  0  2.362383  0
O  O144  1  0.72156166  0.79679366  0.70175777  1  -1.236005  0  -0.231879  -0.591093  0  2.39012  0
O  O145  1  0.27842908  0.20320669  0.29824314  1  -1.236104  0  -0.231887  -0.591134  0  2.390233  0
O  O146  1  0.27811320  0.20336103  0.20170514  1  -1.234983  0  -0.232092  -0.592006  0  2.393288  0
O  O147  1  0.72188508  0.79663972  0.79829646  1  -1.23509  0  -0.232047  -0.59191  0  2.393152  0
O  O148  1  0.22188291  0.70330987  0.79831305  1  -1.233669  0  -0.231921  -0.591474  0  2.39137  0
O  O149  1  0.77812593  0.29668890  0.20168615  1  -1.233819  0  -0.231898  -0.591371  0  2.39148  0
O  O150  1  0.77833311  0.29681361  0.29823134  1  -1.235294  0  -0.231921  -0.591365  0  2.390654  0
O  O151  1  0.22167271  0.70318319  0.70176889  1  -1.235455  0  -0.23193  -0.59131  0  2.390556  0
O  O152  1  0.54752856  0.71839834  0.74998637  1  -1.400036  0  -0.447535  -0.989791  0  2.219905  0
O  O153  1  0.45247575  0.28160162  0.25001318  1  -1.399992  0  -0.447552  -0.989799  0  2.219909  0
O  O154  1  0.04749559  0.78156952  0.74998851  1  -1.400517  0  -0.446988  -0.989074  0  2.219833  0
O  O155  1  0.95250269  0.21843005  0.25001138  1  -1.400507  0  -0.446961  -0.989094  0  2.219833  0
