# generated using pymatgen
data_ZnH13C17(NO2)3
_symmetry_space_group_name_H-M   'P 1'
_cell_length_a   10.62239073
_cell_length_b   10.99907848
_cell_length_c   16.12346978
_cell_angle_alpha   90.00017302
_cell_angle_beta   89.99895155
_cell_angle_gamma   98.87259795
_symmetry_Int_Tables_number   1
_chemical_formula_structural   ZnH13C17(NO2)3
_chemical_formula_sum   'Zn4 H52 C68 N12 O24'
_cell_volume   1861.26777525
_cell_formula_units_Z   4
loop_
 _symmetry_equiv_pos_site_id
 _symmetry_equiv_pos_as_xyz
  1  'x, y, z'
loop_
 _atom_site_type_symbol
 _atom_site_label
 _atom_site_symmetry_multiplicity
 _atom_site_fract_x
 _atom_site_fract_y
 _atom_site_fract_z
 _atom_site_occupancy
 _atom_site_pbe_bader_charge
 _atom_site_pbe_bader_spin_density
 _atom_site_pbe_cm5_charge
 _atom_site_pbe_ddec_charge
 _atom_site_pbe_ddec_spin_density
 _atom_site_pbe_ddec_sum_bond_order
 _atom_site_pbe_magmom
Zn  Zn0  1  0.71740666  0.24477468  0.17198188  1  1.317052  0  0.674703  0.821074  0  2.304059  0
Zn  Zn1  1  0.28259240  0.75522718  0.67197972  1  1.317041  0  0.674697  0.821132  0  2.304036  0
Zn  Zn2  1  0.23245287  0.23345848  0.15973307  1  1.32306  0  0.667928  0.820664  0  2.34066  0
Zn  Zn3  1  0.76754624  0.76654153  0.65973442  1  1.323007  0  0.667916  0.820557  0  2.340681  0
H  H4  1  0.66049374  0.50022164  0.23396230  1  0.111166  0  0.111186  0.076772  0  1.01923  0
H  H5  1  0.33950604  0.49977197  0.73396640  1  0.111129  0  0.111199  0.076779  0  1.019181  0
H  H6  1  0.76524577  0.71879553  0.23362822  1  0.067897  0  0.10702  0.114137  0  1.016979  0
H  H7  1  0.23474787  0.28120084  0.73363500  1  0.06783  0  0.10703  0.114114  0  1.016945  0
H  H8  1  0.09419569  0.59469641  0.12289230  1  0.111716  0  0.108187  0.115399  0  1.00734  0
H  H9  1  0.90580459  0.40530451  0.62289935  1  0.111794  0  0.108163  0.115351  0  1.007369  0
H  H10  1  0.97698379  0.38200054  0.12990949  1  0.205244  0  0.119086  0.095504  0  1.048289  0
H  H11  1  0.02302244  0.61799762  0.62991513  1  0.205363  0  0.119007  0.095363  0  1.048316  0
H  H12  1  0.30213692  0.97702039  0.17938238  1  0.091964  0  0.114243  0.088783  0  1.021395  0
H  H13  1  0.69786294  0.02297596  0.67938620  1  0.091933  0  0.11426  0.088918  0  1.02132  0
H  H14  1  0.19653686  0.75808299  0.19069860  1  0.080988  0  0.103532  0.106586  0  1.035737  0
H  H15  1  0.80346189  0.24191428  0.69070221  1  0.08119  0  0.103545  0.106651  0  1.035651  0
H  H16  1  0.83604589  0.88877883  0.15579422  1  0.077645  0  0.109516  0.117765  0  1.004986  0
H  H17  1  0.16395398  0.11121935  0.65578911  1  0.077658  0  0.10952  0.117748  0  1.005026  0
H  H18  1  0.95602110  0.10054701  0.14983929  1  0.194048  0  0.118884  0.102438  0  1.055065  0
H  H19  1  0.04397596  0.89945024  0.64983531  1  0.193451  0  0.118875  0.102447  0  1.055111  0
H  H20  1  0.10614578  0.46095968  0.42614817  1  0.139192  0  0.11973  0.143871  0  0.981317  0
H  H21  1  0.89385100  0.53904875  0.92614570  1  0.139232  0  0.119746  0.143844  0  0.981332  0
H  H22  1  0.92936751  0.55952536  0.48690817  1  0.13056  0  0.105305  0.109908  0  1.057454  0
H  H23  1  0.07061851  0.44047941  0.98690669  1  0.130686  0  0.10535  0.110002  0  1.057405  0
H  H24  1  0.70418434  0.46967086  0.44977660  1  0.077816  0  0.109096  0.114213  0  1.028318  0
H  H25  1  0.29581351  0.53033665  0.94978253  1  0.077145  0  0.109096  0.114177  0  1.028365  0
H  H26  1  0.30797482  0.44275451  0.29131120  1  0.096318  0  0.124683  0.0999  0  0.987512  0
H  H27  1  0.69202395  0.55724281  0.79131553  1  0.096231  0  0.124722  0.099903  0  0.987578  0
H  H28  1  0.40083390  0.66319751  0.29918944  1  0.100941  0  0.119985  0.138284  0  0.982019  0
H  H29  1  0.59916306  0.33680165  0.79919072  1  0.100839  0  0.120062  0.138336  0  0.981958  0
H  H30  1  0.46589849  0.65122237  0.03352847  1  0.121983  0  0.114022  0.136504  0  1.027497  0
H  H31  1  0.53410075  0.34878587  0.53353305  1  0.121967  0  0.114053  0.136555  0  1.027474  0
H  H32  1  0.36937996  0.43050220  0.03885709  1  0.104683  0  0.120662  0.089745  0  1.003207  0
H  H33  1  0.63063172  0.56950237  0.53886094  1  0.104827  0  0.120639  0.089771  0  1.003156  0
H  H34  1  0.59279838  0.05870371  0.04242844  1  0.118825  0  0.126374  0.102437  0  0.972264  0
H  H35  1  0.40720112  0.94130177  0.54242392  1  0.119236  0  0.126372  0.102476  0  0.972104  0
H  H36  1  0.48870577  0.84165741  0.03368792  1  0.165341  0  0.112671  0.137775  0  1.029104  0
H  H37  1  0.51128673  0.15834991  0.53368619  1  0.165037  0  0.112635  0.137688  0  1.029183  0
H  H38  1  0.53705482  0.82247652  0.30171491  1  0.158696  0  0.108873  0.133289  0  1.051444  0
H  H39  1  0.46294330  0.17752448  0.80171565  1  0.158684  0  0.108875  0.133291  0  1.05147  0
H  H40  1  0.62944523  0.04084536  0.29727595  1  0.142788  0  0.117918  0.086701  0  1.020067  0
H  H41  1  0.37056090  0.95915196  0.79727501  1  0.142852  0  0.117915  0.086674  0  1.020029  0
H  H42  1  0.22800833  0.00606971  0.87428812  1  0.12102  0  0.108476  0.117382  0  1.030628  0
H  H43  1  0.77198781  0.99391384  0.37428552  1  0.121697  0  0.108501  0.117469  0  1.030476  0
H  H44  1  0.00235430  0.94833746  0.82892051  1  0.13388  0  0.107075  0.110318  0  1.033923  0
H  H45  1  0.99764319  0.05165252  0.32891397  1  0.133637  0  0.107043  0.110296  0  1.034069  0
H  H46  1  0.83501352  0.05789596  0.89355334  1  0.089603  0  0.12187  0.138058  0  0.959934  0
H  H47  1  0.16499225  0.94210417  0.39354799  1  0.08949  0  0.121827  0.138018  0  0.960071  0
H  H48  1  0.53711127  0.35884064  0.14522518  1  0.594469  0  0.301244  0.367978  0  0.944527  0
H  H49  1  0.46288686  0.64115661  0.64522126  1  0.594512  0  0.301211  0.367984  0  0.944538  0
H  H50  1  0.50045799  0.25781402  0.07952976  1  0.646293  0  0.288628  0.382106  0  0.962103  0
H  H51  1  0.49954553  0.74218780  0.57952808  1  0.64623  0  0.288577  0.382042  0  0.962206  0
H  H52  1  0.43351225  0.21780680  0.26684651  1  0.646508  0  0.281591  0.377915  0  0.969066  0
H  H53  1  0.56648699  0.78219511  0.76685030  1  0.646493  0  0.281539  0.37785  0  0.969155  0
H  H54  1  0.29107134  0.19803071  0.30618503  1  0.64433  0  0.283001  0.375682  0  0.967399  0
H  H55  1  0.70892224  0.80197214  0.80618964  1  0.644484  0  0.283084  0.375866  0  0.967138  0
C  C56  1  0.75646878  0.52567255  0.20916498  1  0.478717  0  0.044433  0.097154  0  3.962318  0
C  C57  1  0.24352980  0.47432105  0.70916894  1  0.478526  0  0.044446  0.097189  0  3.962418  0
C  C58  1  0.81525183  0.64747416  0.20861586  1  0.00255  0  -0.082463  -0.172932  0  3.934692  0
C  C59  1  0.18474895  0.35252127  0.70861842  1  0.002859  0  -0.082506  -0.172989  0  3.934615  0
C  C60  1  0.93976087  0.67621445  0.17737497  1  -0.086767  0  0.016273  0.112089  0  3.977026  0
C  C61  1  0.06023825  0.32378281  0.67737835  1  -0.086955  0  0.01633  0.112293  0  3.977033  0
C  C62  1  0.99841246  0.57852611  0.14888314  1  -0.003546  0  -0.077513  -0.158551  0  3.905622  0
C  C63  1  0.00158854  0.42147206  0.64888865  1  -0.003572  0  -0.07744  -0.158544  0  3.905719  0
C  C64  1  0.93280695  0.45907698  0.15138597  1  0.442806  0  0.056674  0.120217  0  3.902789  0
C  C65  1  0.06719665  0.54092027  0.65139094  1  0.442767  0  0.05675  0.120381  0  3.902638  0
C  C66  1  0.19918608  0.95213315  0.17408944  1  0.426966  0  0.048682  0.104286  0  3.943847  0
C  C67  1  0.80081234  0.04786504  0.67409085  1  0.426976  0  0.048702  0.104202  0  3.943805  0
C  C68  1  0.13962870  0.83088911  0.17983596  1  0.101973  0  -0.08339  -0.174311  0  3.942182  0
C  C69  1  0.86037129  0.16910816  0.67984185  1  0.101953  0  -0.08335  -0.17434  0  3.9421  0
C  C70  1  0.00628290  0.80401626  0.17350497  1  -0.059638  0  0.016057  0.104276  0  3.985029  0
C  C71  1  0.99371712  0.19598009  0.67350808  1  -0.059675  0  0.015983  0.104153  0  3.985137  0
C  C72  1  0.93935396  0.90302524  0.16248200  1  -0.024004  0  -0.078006  -0.158868  0  3.910227  0
C  C73  1  0.06064731  0.09697109  0.66248307  1  -0.024078  0  -0.077963  -0.158735  0  3.910211  0
C  C74  1  0.00593936  0.02203844  0.15824198  1  0.43572  0  0.04642  0.094532  0  3.92511  0
C  C75  1  0.99405999  0.97795697  0.65824414  1  0.436446  0  0.046385  0.094418  0  3.92524  0
C  C76  1  0.98051239  0.33060747  0.35464888  1  0.34514  0  0.110489  0.017465  0  3.842639  0
C  C77  1  0.01948791  0.66940460  0.85464909  1  0.345092  0  0.110541  0.017484  0  3.842718  0
C  C78  1  0.00721949  0.42703199  0.41068679  1  0.040551  0  -0.072329  -0.118369  0  3.953212  0
C  C79  1  0.99277598  0.57297734  0.91068445  1  0.040446  0  -0.072346  -0.118242  0  3.953358  0
C  C80  1  0.90935793  0.48163736  0.44480375  1  0.028815  0  -0.082286  -0.048412  0  3.98811  0
C  C81  1  0.09063288  0.51836647  0.94480157  1  0.028807  0  -0.082326  -0.048672  0  3.988358  0
C  C82  1  0.78492230  0.43274902  0.42426296  1  -0.059254  0  -0.084699  -0.13838  0  4.019299  0
C  C83  1  0.21507335  0.56725204  0.92426310  1  -0.058348  0  -0.08469  -0.138222  0  4.019107  0
C  C84  1  0.75863296  0.33415868  0.37004826  1  0.396545  0  0.100051  -0.008793  0  3.895736  0
C  C85  1  0.24136320  0.66584787  0.87005015  1  0.396187  0  0.099987  -0.0089  0  3.895704  0
C  C86  1  0.62139551  0.28247783  0.35087698  1  1.630325  0  0.208594  0.557079  0  4.268223  0
C  C87  1  0.37859900  0.71752688  0.85087670  1  1.630228  0  0.208557  0.557115  0  4.268119  0
C  C88  1  0.08912655  0.27990423  0.31329583  1  1.646701  0  0.211866  0.555541  0  4.269669  0
C  C89  1  0.91087133  0.72010322  0.81329724  1  1.646787  0  0.211924  0.555732  0  4.269479  0
C  C90  1  0.34375333  0.49282113  0.23562885  1  0.486132  0  0.049864  0.099262  0  3.942488  0
C  C91  1  0.65625234  0.50717432  0.73563227  1  0.486101  0  0.049701  0.099106  0  3.942745  0
C  C92  1  0.39718469  0.61644070  0.23941506  1  -0.056205  0  -0.077694  -0.179118  0  3.921768  0
C  C93  1  0.60281155  0.38356120  0.73941639  1  -0.056175  0  -0.077765  -0.179125  0  3.921925  0
C  C94  1  0.44376179  0.67848026  0.16653350  1  0.049697  0  0.013387  0.101836  0  3.972779  0
C  C95  1  0.55623692  0.32152437  0.66653403  1  0.049731  0  0.013335  0.101766  0  3.972773  0
C  C96  1  0.43273213  0.60999965  0.09266975  1  -0.03339  0  -0.078005  -0.171184  0  3.90325  0
C  C97  1  0.56726937  0.39000953  0.59267214  1  -0.033583  0  -0.078006  -0.17122  0  3.903504  0
C  C98  1  0.37749839  0.48686675  0.09471232  1  0.461622  0  0.048318  0.093965  0  3.965689  0
C  C99  1  0.62250609  0.51313783  0.59471430  1  0.461751  0  0.048383  0.093972  0  3.965781  0
C  C100  1  0.57733260  0.00253384  0.09831285  1  0.45932  0  0.056467  0.108344  0  3.919464  0
C  C101  1  0.42266693  0.99746983  0.59831197  1  0.458937  0  0.056516  0.108378  0  3.919419  0
C  C102  1  0.51956536  0.88014068  0.09404885  1  -0.060282  0  -0.076792  -0.170131  0  3.890543  0
C  C103  1  0.48043363  0.11986483  0.59404803  1  -0.060035  0  -0.076812  -0.17005  0  3.890703  0
C  C104  1  0.50252209  0.80983968  0.16732591  1  -0.039544  0  0.009075  0.093231  0  3.980582  0
C  C105  1  0.49746828  0.19016587  0.66732503  1  -0.039924  0  0.009133  0.093238  0  3.980628  0
C  C106  1  0.54357170  0.86905863  0.24187854  1  -0.069672  0  -0.08324  -0.187848  0  3.929199  0
C  C107  1  0.45642701  0.13094142  0.74187865  1  -0.069238  0  -0.083236  -0.187875  0  3.929214  0
C  C108  1  0.59811858  0.99230007  0.24035819  1  0.479208  0  0.05316  0.109548  0  3.935173  0
C  C109  1  0.40188160  0.00769722  0.74035499  1  0.47927  0  0.053156  0.10964  0  3.935001  0
C  C110  1  0.32567211  0.17268860  0.98639818  1  1.641696  0  0.210603  0.560304  0  4.250241  0
C  C111  1  0.67432532  0.82729317  0.48639952  1  1.641506  0  0.210594  0.560279  0  4.250211  0
C  C112  1  0.18668996  0.13910278  0.96188627  1  0.361368  0  0.099162  -0.009559  0  3.869204  0
C  C113  1  0.81331556  0.86089002  0.46188291  1  0.361143  0  0.099184  -0.009612  0  3.869191  0
C  C114  1  0.15290884  0.05006429  0.90135165  1  0.013585  0  -0.079979  -0.125676  0  3.988916  0
C  C115  1  0.84709481  0.94992387  0.40134558  1  0.012967  0  -0.07994  -0.125692  0  3.989037  0
C  C116  1  0.02705645  0.01851832  0.87595337  1  -0.056623  0  -0.078417  -0.041772  0  3.989726  0
C  C117  1  0.97294952  0.98147996  0.37595081  1  -0.056275  0  -0.078428  -0.041817  0  3.989852  0
C  C118  1  0.93482661  0.07918700  0.91155881  1  0.03621  0  -0.073148  -0.121994  0  3.962662  0
C  C119  1  0.06518149  0.92081313  0.41155647  1  0.036147  0  -0.073095  -0.12199  0  3.962499  0
C  C120  1  0.96876377  0.16821814  0.97193528  1  0.393708  0  0.115494  0.021465  0  3.8526  0
C  C121  1  0.03124699  0.83178571  0.47193565  1  0.39463  0  0.115379  0.021393  0  3.852534  0
C  C122  1  0.87169825  0.23764657  0.01260148  1  1.675251  0  0.207433  0.558633  0  4.295757  0
C  C123  1  0.12830358  0.76235062  0.51259870  1  1.675246  0  0.207585  0.559033  0  4.295668  0
N  N124  1  0.81337790  0.43249570  0.18093675  1  -1.236403  0  -0.318549  -0.23239  0  3.508646  0
N  N125  1  0.18662618  0.56749789  0.68094158  1  -1.236314  0  -0.318655  -0.232558  0  3.508697  0
N  N126  1  0.13367329  0.04635106  0.16326745  1  -1.221217  0  -0.324497  -0.23644  0  3.516142  0
N  N127  1  0.86632557  0.95364803  0.66326241  1  -1.221411  0  -0.324501  -0.236419  0  3.516212  0
N  N128  1  0.85661629  0.28623076  0.33350773  1  -0.64255  0  -0.100171  0.276478  0  3.913534  0
N  N129  1  0.14338307  0.71377762  0.83350716  1  -0.64223  0  -0.100103  0.276473  0  3.913624  0
N  N130  1  0.33337559  0.42790530  0.16437371  1  -1.241023  0  -0.319617  -0.247153  0  3.500703  0
N  N131  1  0.66662592  0.57209288  0.66437714  1  -1.241019  0  -0.319512  -0.246968  0  3.500573  0
N  N132  1  0.61661303  0.05837200  0.17016445  1  -1.234888  0  -0.31535  -0.219676  0  3.497802  0
N  N133  1  0.38338753  0.94162711  0.67016021  1  -1.234967  0  -0.315404  -0.219802  0  3.49781  0
N  N134  1  0.09323918  0.19599158  0.99701518  1  -0.640833  0  -0.100699  0.270818  0  3.901342  0
N  N135  1  0.90676921  0.80400768  0.49701307  1  -0.64146  0  -0.100724  0.27087  0  3.90131  0
O  O136  1  0.57591316  0.31625554  0.10132927  1  -1.215839  0  -0.573504  -0.723792  0  2.139908  0
O  O137  1  0.42408801  0.68374721  0.60132776  1  -1.215841  0  -0.573451  -0.723836  0  2.13988  0
O  O138  1  0.83161267  0.19547574  0.27918077  1  -0.631845  0  -0.22877  -0.470248  0  2.053925  0
O  O139  1  0.16838885  0.80453078  0.77918008  1  -0.632059  0  -0.228798  -0.470213  0  2.054017  0
O  O140  1  0.58775861  0.27934916  0.27395081  1  -1.181933  0  -0.31689  -0.584299  0  2.375288  0
O  O141  1  0.41223443  0.72065643  0.77395076  1  -1.181893  0  -0.316895  -0.584331  0  2.375299  0
O  O142  1  0.54951316  0.25353442  0.41103317  1  -1.162055  0  -0.312845  -0.514042  0  2.101961  0
O  O143  1  0.45048697  0.74646296  0.91103395  1  -1.161988  0  -0.312783  -0.514017  0  2.101834  0
O  O144  1  0.16736383  0.23931908  0.36052833  1  -1.166211  0  -0.315091  -0.533142  0  2.124023  0
O  O145  1  0.83262991  0.76068840  0.86053138  1  -1.16648  0  -0.3152  -0.533387  0  2.123949  0
O  O146  1  0.09423066  0.29146552  0.23472153  1  -1.131723  0  -0.309278  -0.544407  0  2.387764  0
O  O147  1  0.90576942  0.70854190  0.73472360  1  -1.131625  0  -0.309284  -0.544406  0  2.387705  0
O  O148  1  0.34314717  0.17866132  0.25742224  1  -1.283984  0  -0.586669  -0.762496  0  2.15671  0
O  O149  1  0.65685204  0.82133874  0.75742565  1  -1.284012  0  -0.586691  -0.762572  0  2.156578  0
O  O150  1  0.12128301  0.28193865  0.05481778  1  -0.659798  0  -0.227117  -0.463643  0  2.094719  0
O  O151  1  0.87872308  0.71806316  0.55481833  1  -0.65969  0  -0.227128  -0.463655  0  2.094644  0
O  O152  1  0.35349908  0.19043912  0.06399546  1  -1.186575  0  -0.318866  -0.572023  0  2.402983  0
O  O153  1  0.64649814  0.80956177  0.56400021  1  -1.186397  0  -0.318752  -0.571793  0  2.402834  0
O  O154  1  0.40542246  0.17624497  0.92963449  1  -1.146463  0  -0.318229  -0.518732  0  2.093293  0
O  O155  1  0.59457792  0.82373953  0.42963802  1  -1.146407  0  -0.318206  -0.518768  0  2.093473  0
O  O156  1  0.83992005  0.32639445  0.97508317  1  -1.138919  0  -0.315554  -0.514927  0  2.093677  0
O  O157  1  0.16008489  0.67360295  0.47507921  1  -1.138966  0  -0.315656  -0.515141  0  2.093579  0
O  O158  1  0.83100548  0.19002181  0.08231372  1  -1.177455  0  -0.318363  -0.554404  0  2.384897  0
O  O159  1  0.16900511  0.80997173  0.58230869  1  -1.177551  0  -0.318361  -0.554528  0  2.384989  0
