# generated using pymatgen
data_CdH44C60N6(O3F4)2
_symmetry_space_group_name_H-M   'P 1'
_cell_length_a   13.44127782
_cell_length_b   13.44127877
_cell_length_c   16.91361485
_cell_angle_alpha   111.16221349
_cell_angle_beta   111.16209319
_cell_angle_gamma   90.96765818
_symmetry_Int_Tables_number   1
_chemical_formula_structural   CdH44C60N6(O3F4)2
_chemical_formula_sum   'Cd2 H88 C120 N12 O12 F16'
_cell_volume   2619.14956378
_cell_formula_units_Z   2
loop_
 _symmetry_equiv_pos_site_id
 _symmetry_equiv_pos_as_xyz
  1  'x, y, z'
loop_
 _atom_site_type_symbol
 _atom_site_label
 _atom_site_symmetry_multiplicity
 _atom_site_fract_x
 _atom_site_fract_y
 _atom_site_fract_z
 _atom_site_occupancy
 _atom_site_pbe_bader_charge
 _atom_site_pbe_bader_spin_density
 _atom_site_pbe_cm5_charge
 _atom_site_pbe_ddec_charge
 _atom_site_pbe_ddec_spin_density
 _atom_site_pbe_ddec_sum_bond_order
 _atom_site_pbe_magmom
Cd  Cd0  1  0.37428719  0.62571405  0.75000095  1  1.241058  0  0.770996  0.721455  0  2.248023  0
Cd  Cd1  1  0.62571371  0.37428643  0.24999889  1  1.241021  0  0.771002  0.721438  0  2.248113  0
H  H2  1  0.48495420  0.84228993  0.93965277  1  0.104786  0  0.115302  0.086925  0  1.008914  0
H  H3  1  0.15771280  0.51504401  0.56034994  1  0.104767  0  0.115309  0.08693  0  1.008851  0
H  H4  1  0.51504509  0.15771269  0.06034840  1  0.10478  0  0.115288  0.086922  0  1.008841  0
H  H5  1  0.84228809  0.48495408  0.43964980  1  0.104773  0  0.115355  0.086996  0  1.009015  0
H  H6  1  0.17366380  0.66873248  0.80805060  1  0.116747  0  0.111627  0.082045  0  1.042003  0
H  H7  1  0.33126942  0.82633643  0.69195197  1  0.116717  0  0.111614  0.082008  0  1.04201  0
H  H8  1  0.82633791  0.33127054  0.19194901  1  0.116735  0  0.111622  0.082037  0  1.041999  0
H  H9  1  0.66873228  0.17366340  0.30804850  1  0.11673  0  0.111639  0.082028  0  1.042058  0
H  H10  1  0.43359400  0.98895626  0.05221464  1  0.09308  0  0.107938  0.117468  0  1.022249  0
H  H11  1  0.01104724  0.56640547  0.44778869  1  0.093206  0  0.10793  0.117437  0  1.022279  0
H  H12  1  0.56640528  0.01104636  0.94778475  1  0.093092  0  0.107974  0.117539  0  1.022239  0
H  H13  1  0.98895527  0.43359448  0.55221146  1  0.093168  0  0.107924  0.117434  0  1.022246  0
H  H14  1  0.10884371  0.80731788  0.91299817  1  0.103652  0  0.104478  0.117988  0  1.018065  0
H  H15  1  0.19268340  0.89115386  0.58700244  1  0.103704  0  0.104477  0.118012  0  1.018113  0
H  H16  1  0.89115395  0.19268446  0.08699714  1  0.103606  0  0.104473  0.118024  0  1.018078  0
H  H17  1  0.80731749  0.10884503  0.41299635  1  0.103699  0  0.104453  0.117946  0  1.01813  0
H  H18  1  0.27452922  0.07931329  0.06833861  1  0.097587  0  0.108359  0.128311  0  0.961139  0
H  H19  1  0.92068825  0.72546729  0.43166271  1  0.097573  0  0.108359  0.128312  0  0.961121  0
H  H20  1  0.72546764  0.92068813  0.93166152  1  0.097581  0  0.108351  0.12831  0  0.961139  0
H  H21  1  0.07931345  0.27453174  0.56833871  1  0.097572  0  0.108346  0.128319  0  0.961121  0
H  H22  1  0.26838462  0.99561692  0.12548263  1  0.11362  0  0.106445  0.12278  0  1.019286  0
H  H23  1  0.00438587  0.73161168  0.37451854  1  0.113597  0  0.106469  0.122815  0  1.019214  0
H  H24  1  0.73161304  0.00438304  0.87451613  1  0.113569  0  0.10646  0.122799  0  1.019246  0
H  H25  1  0.99561422  0.26838787  0.62548140  1  0.113595  0  0.10647  0.122818  0  1.019207  0
H  H26  1  0.37320210  0.52124638  0.54424089  1  0.114043  0  0.116334  0.089443  0  1.004663  0
H  H27  1  0.47875465  0.62679918  0.95576087  1  0.114028  0  0.116346  0.08947  0  1.004616  0
H  H28  1  0.62679717  0.47875225  0.45575854  1  0.114008  0  0.116352  0.089483  0  1.004634  0
H  H29  1  0.52124706  0.37320144  0.04424161  1  0.11406  0  0.116321  0.089435  0  1.004673  0
H  H30  1  0.41292206  0.39014356  0.73817523  1  0.088136  0  0.110497  0.076702  0  1.051961  0
H  H31  1  0.60985493  0.58707666  0.76182552  1  0.08808  0  0.110529  0.076786  0  1.05196  0
H  H32  1  0.58707802  0.60985440  0.26182483  1  0.088133  0  0.110517  0.076742  0  1.051973  0
H  H33  1  0.39014435  0.41292357  0.23817555  1  0.088182  0  0.110506  0.076747  0  1.05197  0
H  H34  1  0.36056425  0.33968207  0.42291073  1  0.113185  0  0.105411  0.117029  0  1.046977  0
H  H35  1  0.66031874  0.63943740  0.07709082  1  0.113162  0  0.105416  0.117007  0  1.046956  0
H  H36  1  0.63943583  0.66031590  0.57708933  1  0.113173  0  0.105421  0.11701  0  1.046997  0
H  H37  1  0.33968296  0.36056083  0.92291097  1  0.113264  0  0.105417  0.117034  0  1.046964  0
H  H38  1  0.40025562  0.20441295  0.62632828  1  0.098849  0  0.103415  0.115699  0  1.027934  0
H  H39  1  0.79558691  0.59974490  0.87367148  1  0.098853  0  0.103385  0.115733  0  1.027901  0
H  H40  1  0.59974447  0.79558661  0.37367224  1  0.098853  0  0.103412  0.115715  0  1.027941  0
H  H41  1  0.20441237  0.40025452  0.12632878  1  0.098834  0  0.1034  0.115719  0  1.02791  0
H  H42  1  0.37030663  0.15357778  0.38115304  1  0.153925  0  0.103939  0.125005  0  1.035165  0
H  H43  1  0.84642109  0.62969340  0.11884733  1  0.153923  0  0.103932  0.124987  0  1.035172  0
H  H44  1  0.62969345  0.84642018  0.61884761  1  0.153899  0  0.103974  0.125041  0  1.03513  0
H  H45  1  0.15358061  0.37030563  0.88115291  1  0.153903  0  0.103967  0.125041  0  1.035161  0
H  H46  1  0.27342989  0.10714583  0.41392694  1  0.101128  0  0.103149  0.122805  0  0.983681  0
H  H47  1  0.89285384  0.72656999  0.08607248  1  0.101131  0  0.103158  0.122797  0  0.98368  0
H  H48  1  0.72656938  0.89285200  0.58607286  1  0.101138  0  0.10315  0.122829  0  0.983654  0
H  H49  1  0.10714625  0.27343036  0.91392709  1  0.101137  0  0.10315  0.122797  0  0.983671  0
H  H50  1  0.73862547  0.69610329  0.74899573  1  0.047569  0  0.095168  0.091096  0  1.050787  0
H  H51  1  0.30389296  0.26137393  0.75100338  1  0.047526  0  0.095159  0.091124  0  1.050761  0
H  H52  1  0.26137462  0.30389706  0.25100502  1  0.047437  0  0.095154  0.091088  0  1.050769  0
H  H53  1  0.69610228  0.73862722  0.24899562  1  0.047478  0  0.095149  0.09101  0  1.050798  0
H  H54  1  0.79879547  0.87941737  0.76743748  1  0.078135  0  0.096006  0.09806  0  1.033332  0
H  H55  1  0.12057980  0.20120292  0.73256288  1  0.078113  0  0.095987  0.098052  0  1.033334  0
H  H56  1  0.20120462  0.12058299  0.23256386  1  0.078152  0  0.096003  0.098053  0  1.033289  0
H  H57  1  0.87941706  0.79879769  0.26743879  1  0.078218  0  0.095995  0.098076  0  1.033239  0
H  H58  1  0.96272570  0.91951396  0.74058457  1  0.030542  0  0.090463  0.085829  0  1.042636  0
H  H59  1  0.08048607  0.03727253  0.75941588  1  0.030326  0  0.090479  0.085841  0  1.042645  0
H  H60  1  0.03727358  0.08048546  0.25941627  1  0.030553  0  0.090468  0.085838  0  1.042617  0
H  H61  1  0.91951482  0.96272636  0.24058409  1  0.03035  0  0.090479  0.085867  0  1.042558  0
H  H62  1  0.06422551  0.77138964  0.69233290  1  0.071758  0  0.093259  0.089376  0  1.030923  0
H  H63  1  0.22860995  0.93577425  0.80766668  1  0.072005  0  0.093247  0.08934  0  1.030948  0
H  H64  1  0.93577376  0.22860979  0.30766676  1  0.071742  0  0.093244  0.089346  0  1.030943  0
H  H65  1  0.77138932  0.06422437  0.19232980  1  0.071933  0  0.093233  0.089309  0  1.030972  0
H  H66  1  0.00518233  0.58645426  0.67616175  1  0.046169  0  0.094899  0.094061  0  1.049603  0
H  H67  1  0.41354544  0.99481959  0.82383896  1  0.0462  0  0.094897  0.094041  0  1.049638  0
H  H68  1  0.99481695  0.41354516  0.32383850  1  0.046252  0  0.094884  0.094017  0  1.049653  0
H  H69  1  0.58645384  0.00518143  0.17615583  1  0.046186  0  0.094866  0.093975  0  1.049665  0
H  H70  1  0.66177599  0.51869489  0.62807141  1  0.04666  0  0.098166  0.098216  0  1.024467  0
H  H71  1  0.48130392  0.33822500  0.87192822  1  0.046611  0  0.098152  0.09823  0  1.024434  0
H  H72  1  0.33822410  0.48130547  0.37192935  1  0.046607  0  0.098159  0.098218  0  1.024461  0
H  H73  1  0.51869536  0.66177442  0.12807026  1  0.046621  0  0.098174  0.098233  0  1.024428  0
H  H74  1  0.60010130  0.33140627  0.60295057  1  0.048601  0  0.091221  0.088165  0  1.041919  0
H  H75  1  0.66859034  0.39990093  0.89704810  1  0.048589  0  0.091236  0.088197  0  1.041878  0
H  H76  1  0.39989879  0.66859329  0.39704936  1  0.048598  0  0.091211  0.088154  0  1.041931  0
H  H77  1  0.33140812  0.60009756  0.10295106  1  0.048565  0  0.091218  0.0882  0  1.041854  0
H  H78  1  0.73344037  0.22167901  0.66109724  1  0.070585  0  0.093845  0.092076  0  1.021513  0
H  H79  1  0.77832166  0.26656203  0.83890185  1  0.070589  0  0.093838  0.092042  0  1.021463  0
H  H80  1  0.26655972  0.77832055  0.33890210  1  0.070604  0  0.093843  0.092058  0  1.021513  0
H  H81  1  0.22167923  0.73343686  0.16109694  1  0.070596  0  0.093831  0.092054  0  1.021476  0
H  H82  1  0.92938668  0.30283539  0.74598987  1  0.052927  0  0.096422  0.097851  0  1.004446  0
H  H83  1  0.69716302  0.07061321  0.75400836  1  0.052971  0  0.0964  0.097803  0  1.00442  0
H  H84  1  0.07061260  0.69716404  0.25400979  1  0.052932  0  0.096416  0.097842  0  1.004474  0
H  H85  1  0.30283464  0.92938515  0.24598994  1  0.052956  0  0.096407  0.097807  0  1.004498  0
H  H86  1  0.99165005  0.48804062  0.76775767  1  0.089068  0  0.09305  0.095107  0  1.052863  0
H  H87  1  0.51195643  0.00835206  0.73224090  1  0.089107  0  0.093031  0.095076  0  1.052885  0
H  H88  1  0.00835004  0.51195973  0.23224367  1  0.089066  0  0.093058  0.095106  0  1.052877  0
H  H89  1  0.48803799  0.99164815  0.26775464  1  0.089112  0  0.093069  0.095112  0  1.0529  0
C  C90  1  0.40254090  0.83769334  0.93674970  1  0.478122  0  0.043805  0.095312  0  3.952914  0
C  C91  1  0.16230836  0.59745879  0.56325380  1  0.4785  0  0.043801  0.095387  0  3.952973  0
C  C92  1  0.59745919  0.16231021  0.06324961  1  0.478145  0  0.043776  0.095324  0  3.952952  0
C  C93  1  0.83769173  0.40254317  0.43674741  1  0.478476  0  0.043765  0.095311  0  3.953031  0
C  C94  1  0.22886390  0.74093215  0.86323666  1  0.440481  0  0.043078  0.098562  0  3.957744  0
C  C95  1  0.25906895  0.77113383  0.63676498  1  0.440607  0  0.043099  0.098641  0  3.957803  0
C  C96  1  0.77113376  0.25906940  0.13675901  1  0.440628  0  0.043093  0.09863  0  3.957873  0
C  C97  1  0.74093032  0.22886479  0.36323504  1  0.440568  0  0.04309  0.098619  0  3.957752  0
C  C98  1  0.37347028  0.91904370  0.99865438  1  -0.00752  0  -0.082262  -0.178644  0  3.917246  0
C  C99  1  0.08095929  0.62652776  0.50134851  1  -0.007988  0  -0.082344  -0.17876  0  3.917401  0
C  C100  1  0.62652819  0.08095878  0.00134534  1  -0.007511  0  -0.082376  -0.178834  0  3.917383  0
C  C101  1  0.91904160  0.37347033  0.49865123  1  -0.007948  0  -0.082327  -0.178718  0  3.917435  0
C  C102  1  0.19337987  0.81904855  0.92249776  1  0.040046  0  -0.08653  -0.184786  0  3.934397  0
C  C103  1  0.18095527  0.80662076  0.57750558  1  0.040005  0  -0.086461  -0.184796  0  3.934298  0
C  C104  1  0.80662023  0.18095579  0.07750059  1  0.039942  0  -0.086458  -0.184801  0  3.93427  0
C  C105  1  0.81904645  0.19338066  0.42249713  1  0.040068  0  -0.086483  -0.184737  0  3.934348  0
C  C106  1  0.26609378  0.91149775  0.99145481  1  -0.067095  0  0.020285  0.184168  0  3.906802  0
C  C107  1  0.08850312  0.73390472  0.50854708  1  -0.067019  0  0.020362  0.184313  0  3.906544  0
C  C108  1  0.73390307  0.08850366  0.00854295  1  -0.067089  0  0.02031  0.18425  0  3.906549  0
C  C109  1  0.91149777  0.26609577  0.49145276  1  -0.067084  0  0.020317  0.184213  0  3.906929  0
C  C110  1  0.23423924  0.00111167  0.05790711  1  -0.028222  0  -0.148342  -0.225902  0  3.937619  0
C  C111  1  0.99889064  0.76575805  0.44209463  1  -0.028266  0  -0.148431  -0.226034  0  3.937543  0
C  C112  1  0.76575843  0.99888988  0.94209270  1  -0.028182  0  -0.148387  -0.22597  0  3.937562  0
C  C113  1  0.00111106  0.23424098  0.55790620  1  -0.028246  0  -0.148381  -0.225993  0  3.93758  0
C  C114  1  0.11455045  0.00038391  0.02898720  1  0.077177  0  -0.019973  -0.060081  0  4.051528  0
C  C115  1  0.99961642  0.88544638  0.47101275  1  0.077283  0  -0.019962  -0.060036  0  4.051451  0
C  C116  1  0.88544721  0.99961684  0.97101297  1  0.077125  0  -0.019932  -0.059989  0  4.051572  0
C  C117  1  0.00038528  0.11455264  0.52898808  1  0.077095  0  -0.019941  -0.05998  0  4.051337  0
C  C118  1  0.05911064  0.04661235  0.96747003  1  0.514575  0  0.087335  0.121122  0  4.084741  0
C  C119  1  0.95339052  0.94088803  0.53253079  1  0.514554  0  0.087391  0.121303  0  4.084777  0
C  C120  1  0.94088621  0.95338747  0.03252786  1  0.514478  0  0.087366  0.121177  0  4.084886  0
C  C121  1  0.04661199  0.05911114  0.46747091  1  0.514629  0  0.087333  0.121155  0  4.084798  0
C  C122  1  0.94813928  0.04612437  0.93906428  1  0.522461  0  0.087638  0.12046  0  4.100131  0
C  C123  1  0.95387879  0.05185842  0.56093742  1  0.522493  0  0.087648  0.120383  0  4.099948  0
C  C124  1  0.05185757  0.95387545  0.06093480  1  0.522483  0  0.087596  0.120395  0  4.100128  0
C  C125  1  0.04612372  0.94813994  0.43906404  1  0.522389  0  0.087599  0.120382  0  4.100168  0
C  C126  1  0.37726044  0.44819580  0.55863492  1  0.467622  0  0.046174  0.098909  0  3.942522  0
C  C127  1  0.55180458  0.62274037  0.94136646  1  0.467615  0  0.046159  0.098853  0  3.942553  0
C  C128  1  0.62273883  0.55180203  0.44136487  1  0.467507  0  0.046072  0.098679  0  3.94239  0
C  C129  1  0.44819713  0.37725946  0.05863579  1  0.467497  0  0.046092  0.098763  0  3.942493  0
C  C130  1  0.39968258  0.37493476  0.66704819  1  0.44126  0  0.03854  0.090619  0  3.964374  0
C  C131  1  0.62506477  0.60031715  0.83295138  1  0.441202  0  0.038491  0.090525  0  3.964415  0
C  C132  1  0.60031588  0.62506293  0.33295074  1  0.441317  0  0.03854  0.090615  0  3.964516  0
C  C133  1  0.37493532  0.39968321  0.16705056  1  0.441217  0  0.038602  0.090647  0  3.964361  0
C  C134  1  0.36973295  0.34741666  0.49160265  1  -0.028037  0  -0.081916  -0.177006  0  3.910308  0
C  C135  1  0.65258346  0.63026688  0.00839818  1  -0.027745  0  -0.081943  -0.177017  0  3.91027  0
C  C136  1  0.63026551  0.65258263  0.50839733  1  -0.027722  0  -0.081928  -0.17694  0  3.910234  0
C  C137  1  0.34741744  0.36973201  0.99160357  1  -0.028048  0  -0.081923  -0.176987  0  3.91029  0
C  C138  1  0.39214862  0.27147213  0.60393980  1  -0.033585  0  -0.088093  -0.187492  0  3.934688  0
C  C139  1  0.72852858  0.60785258  0.89606164  1  -0.033604  0  -0.088036  -0.187561  0  3.934719  0
C  C140  1  0.60785228  0.72852916  0.39606086  1  -0.03359  0  -0.088091  -0.187592  0  3.93476  0
C  C141  1  0.27147070  0.39214764  0.10393884  1  -0.033613  0  -0.088074  -0.187553  0  3.934655  0
C  C142  1  0.37449697  0.25587585  0.51319572  1  0.009187  0  0.017305  0.182853  0  3.910929  0
C  C143  1  0.74412360  0.62550257  0.98680488  1  0.008876  0  0.017283  0.182907  0  3.91096  0
C  C144  1  0.62550311  0.74412291  0.48680516  1  0.008888  0  0.017325  0.182928  0  3.910913  0
C  C145  1  0.25587729  0.37449712  0.01319651  1  0.009147  0  0.017273  0.182866  0  3.910958  0
C  C146  1  0.35828223  0.14485791  0.43933175  1  -0.057561  0  -0.154317  -0.23388  0  3.930804  0
C  C147  1  0.85514168  0.64171761  0.06066818  1  -0.05758  0  -0.154289  -0.233836  0  3.930814  0
C  C148  1  0.64171786  0.85514085  0.56066854  1  -0.057284  0  -0.154365  -0.233973  0  3.93084  0
C  C149  1  0.14486002  0.35828222  0.93933229  1  -0.057242  0  -0.154341  -0.233909  0  3.930791  0
C  C150  1  0.43098599  0.07145742  0.47143923  1  0.106208  0  -0.021318  -0.05983  0  4.04969  0
C  C151  1  0.92854329  0.56901523  0.02856072  1  0.106186  0  -0.021291  -0.059755  0  4.04972  0
C  C152  1  0.56901571  0.92854161  0.52856160  1  0.105849  0  -0.021227  -0.059759  0  4.049777  0
C  C153  1  0.07145923  0.43098632  0.97144048  1  0.105915  0  -0.021291  -0.059787  0  4.049822  0
C  C154  1  0.53334922  0.06975315  0.46818992  1  0.504857  0  0.089602  0.125785  0  4.090815  0
C  C155  1  0.93024851  0.46665301  0.03181051  1  0.502605  0  0.089563  0.125682  0  4.090807  0
C  C156  1  0.46665330  0.93024681  0.53181082  1  0.504919  0  0.089573  0.125733  0  4.090905  0
C  C157  1  0.06975643  0.53334815  0.96819009  1  0.504845  0  0.089594  0.125733  0  4.090834  0
C  C158  1  0.59967782  0.99960223  0.49510082  1  0.486786  0  0.085749  0.114629  0  4.104231  0
C  C159  1  0.00040058  0.40032638  0.00489999  1  0.488972  0  0.085753  0.114713  0  4.104141  0
C  C160  1  0.40032550  0.00039707  0.50490055  1  0.486654  0  0.085841  0.114807  0  4.10418  0
C  C161  1  0.99960437  0.59967638  0.99510107  1  0.486707  0  0.085816  0.114702  0  4.104202  0
C  C162  1  0.86828331  0.62800631  0.71223642  1  -0.019908  0  -0.012833  0.064944  0  4.006662  0
C  C163  1  0.37199137  0.13171795  0.78776466  1  -0.019842  0  -0.012799  0.06508  0  4.006623  0
C  C164  1  0.13171678  0.37199404  0.28776492  1  -0.019906  0  -0.012814  0.064992  0  4.006713  0
C  C165  1  0.62800467  0.86828253  0.21223201  1  -0.019969  0  -0.012844  0.064898  0  4.006887  0
C  C166  1  0.81106037  0.71207490  0.73769822  1  -0.05213  0  -0.097266  -0.136655  0  3.981496  0
C  C167  1  0.28792357  0.18894025  0.76230183  1  -0.052081  0  -0.097338  -0.136832  0  3.981511  0
C  C168  1  0.18893972  0.28792545  0.26230312  1  -0.051964  0  -0.097253  -0.136659  0  3.981547  0
C  C169  1  0.71207410  0.81106290  0.23769548  1  -0.051968  0  -0.097288  -0.136519  0  3.981664  0
C  C170  1  0.84545101  0.81625849  0.74848700  1  -0.07942  0  -0.100028  -0.084793  0  4.030014  0
C  C171  1  0.18373849  0.15454646  0.75151237  1  -0.079488  0  -0.099936  -0.084672  0  4.03004  0
C  C172  1  0.15454827  0.18374173  0.25151408  1  -0.07942  0  -0.099992  -0.084709  0  4.030055  0
C  C173  1  0.81625675  0.84545309  0.24848617  1  -0.079468  0  -0.099974  -0.084792  0  4.03007  0
C  C174  1  0.93703350  0.83823975  0.73311521  1  0.001467  0  -0.103738  -0.099271  0  4.03113  0
C  C175  1  0.16176018  0.06296642  0.76688505  1  0.001463  0  -0.103762  -0.099313  0  4.03124  0
C  C176  1  0.06296659  0.16176061  0.26688613  1  0.001285  0  -0.103752  -0.099332  0  4.031204  0
C  C177  1  0.83823747  0.93703274  0.23311347  1  0.001301  0  -0.103743  -0.099335  0  4.031188  0
C  C178  1  0.99388300  0.75513955  0.70633097  1  -0.094753  0  -0.098915  -0.080213  0  4.030529  0
C  C179  1  0.24485989  0.00611681  0.79367080  1  -0.094742  0  -0.098894  -0.080148  0  4.030405  0
C  C180  1  0.00611708  0.24486001  0.29367074  1  -0.094619  0  -0.098913  -0.080181  0  4.030469  0
C  C181  1  0.75513939  0.99388341  0.20632791  1  -0.094496  0  -0.098898  -0.08014  0  4.030412  0
C  C182  1  0.96040558  0.65112977  0.69680194  1  -0.016259  0  -0.097024  -0.140248  0  3.966411  0
C  C183  1  0.34887103  0.03959704  0.80320038  1  -0.016264  0  -0.097041  -0.140288  0  3.966451  0
C  C184  1  0.03959451  0.34887058  0.30319941  1  -0.016351  0  -0.097045  -0.140274  0  3.966453  0
C  C185  1  0.65112824  0.96040238  0.19679692  1  -0.016356  0  -0.096975  -0.140123  0  3.966387  0
C  C186  1  0.83117678  0.51717105  0.69988342  1  -0.057444  0  -0.014487  0.058481  0  4.017024  0
C  C187  1  0.48282819  0.16882361  0.80011721  1  -0.057466  0  -0.014491  0.058439  0  4.016893  0
C  C188  1  0.16882331  0.48282930  0.30011793  1  -0.057443  0  -0.014473  0.058495  0  4.017055  0
C  C189  1  0.51716946  0.83117554  0.19988013  1  -0.057442  0  -0.01446  0.058471  0  4.017013  0
C  C190  1  0.72069217  0.47152320  0.65422742  1  -0.033576  0  -0.094894  -0.136867  0  3.97261  0
C  C191  1  0.52847491  0.27930928  0.84577501  1  -0.033561  0  -0.094887  -0.136909  0  3.972497  0
C  C192  1  0.27930711  0.52847703  0.34577365  1  -0.033518  0  -0.094883  -0.136889  0  3.972648  0
C  C193  1  0.47152357  0.72069080  0.15422579  1  -0.033571  0  -0.09492  -0.136922  0  3.97264  0
C  C194  1  0.68584791  0.36585239  0.64000274  1  -0.022743  0  -0.097311  -0.07429  0  4.016034  0
C  C195  1  0.63414956  0.31415114  0.85999768  1  -0.022298  0  -0.097336  -0.074387  0  4.016135  0
C  C196  1  0.31415218  0.63414796  0.35999742  1  -0.022772  0  -0.09731  -0.074292  0  4.01601  0
C  C197  1  0.36585214  0.68584709  0.14000233  1  -0.022743  0  -0.097322  -0.074362  0  4.01603  0
C  C198  1  0.76063419  0.30430083  0.67230529  1  -0.065638  0  -0.097018  -0.089617  0  4.02019  0
C  C199  1  0.69569829  0.23936713  0.82769427  1  -0.06634  0  -0.096976  -0.089448  0  4.020279  0
C  C200  1  0.23936509  0.69569859  0.32769437  1  -0.065848  0  -0.096993  -0.089551  0  4.020171  0
C  C201  1  0.30430179  0.76063163  0.17230425  1  -0.065693  0  -0.096977  -0.089524  0  4.020151  0
C  C202  1  0.87034975  0.34956159  0.71937426  1  -0.048115  0  -0.098488  -0.084799  0  4.0312  0
C  C203  1  0.65043607  0.12965389  0.78062787  1  -0.048015  0  -0.098482  -0.08484  0  4.031349  0
C  C204  1  0.12965114  0.65043890  0.28062676  1  -0.048066  0  -0.098485  -0.084816  0  4.031287  0
C  C205  1  0.34956078  0.87034592  0.21937180  1  -0.048026  0  -0.098504  -0.084795  0  4.031346  0
C  C206  1  0.90554921  0.45463143  0.73235138  1  -0.051503  0  -0.097487  -0.139383  0  3.98014  0
C  C207  1  0.54536964  0.09445196  0.76764871  1  -0.051577  0  -0.097477  -0.139296  0  3.980109  0
C  C208  1  0.09445007  0.54536959  0.26764934  1  -0.051555  0  -0.097526  -0.139404  0  3.980158  0
C  C209  1  0.45462802  0.90554799  0.23234886  1  -0.051573  0  -0.097502  -0.139354  0  3.980194  0
N  N210  1  0.33117415  0.74991637  0.86887665  1  -1.236577  0  -0.332889  -0.241745  0  3.499822  0
N  N211  1  0.25008776  0.66882565  0.63112697  1  -1.236722  0  -0.332874  -0.241773  0  3.499953  0
N  N212  1  0.66882676  0.25008810  0.13112256  1  -1.236671  0  -0.332819  -0.241731  0  3.499984  0
N  N213  1  0.74991314  0.33117484  0.36887524  1  -1.236645  0  -0.332847  -0.241744  0  3.499867  0
N  N214  1  0.39030338  0.46175678  0.64474539  1  -1.219127  0  -0.335857  -0.240272  0  3.527417  0
N  N215  1  0.53824325  0.60969650  0.85525621  1  -1.218914  0  -0.335851  -0.240231  0  3.527452  0
N  N216  1  0.60969509  0.53824250  0.35525341  1  -1.219016  0  -0.335821  -0.240133  0  3.527359  0
N  N217  1  0.46175765  0.39030399  0.14474659  1  -1.219021  0  -0.335828  -0.240183  0  3.527296  0
N  N218  1  0.22041328  0.46187215  0.76632234  1  0.835164  0  0.093072  0.714199  0  4.420831  0
N  N219  1  0.53812897  0.77958770  0.73367825  1  0.835178  0  0.092953  0.714049  0  4.421015  0
N  N220  1  0.77958681  0.53812661  0.23367795  1  0.835666  0  0.093063  0.714173  0  4.420814  0
N  N221  1  0.46187274  0.22041293  0.26632127  1  0.835151  0  0.093059  0.71413  0  4.420966  0
O  O222  1  0.19431936  0.50816776  0.70876453  1  -0.601827  0  -0.213441  -0.486251  0  2.019667  0
O  O223  1  0.49183330  0.80568048  0.79123695  1  -0.601856  0  -0.213424  -0.486252  0  2.019691  0
O  O224  1  0.80567830  0.49183139  0.29123518  1  -0.601849  0  -0.213457  -0.486264  0  2.019685  0
O  O225  1  0.50816840  0.19431855  0.20876329  1  -0.601861  0  -0.213456  -0.486278  0  2.019688  0
O  O226  1  0.31673389  0.48508928  0.82603239  1  -0.556424  0  -0.198304  -0.466325  0  1.971367  0
O  O227  1  0.51491143  0.68326766  0.67396760  1  -0.556374  0  -0.198283  -0.46631  0  1.971428  0
O  O228  1  0.68326781  0.51491055  0.17396749  1  -0.556871  0  -0.198289  -0.466312  0  1.971396  0
O  O229  1  0.48508947  0.31673283  0.32603165  1  -0.55638  0  -0.198281  -0.466285  0  1.971465  0
O  O230  1  0.15064768  0.39478943  0.76206871  1  -0.53363  0  -0.175128  -0.427958  0  2.013762  0
O  O231  1  0.60520991  0.84935389  0.73793214  1  -0.533657  0  -0.175041  -0.427802  0  2.013775  0
O  O232  1  0.84935402  0.60520959  0.23793213  1  -0.533619  0  -0.175115  -0.427917  0  2.013688  0
O  O233  1  0.39478937  0.15064713  0.26206798  1  -0.533618  0  -0.175121  -0.427889  0  2.013737  0
F  F234  1  0.11518219  0.09370828  0.93384546  1  -0.629507  0  -0.078023  -0.103161  0  1.424383  0
F  F235  1  0.90629604  0.88481782  0.56615734  1  -0.629513  0  -0.07804  -0.103214  0  1.424394  0
F  F236  1  0.88481466  0.90629074  0.06615221  1  -0.629418  0  -0.078077  -0.103202  0  1.424419  0
F  F237  1  0.09370810  0.11518320  0.43384654  1  -0.629495  0  -0.078063  -0.103209  0  1.424415  0
F  F238  1  0.90000918  0.08971324  0.87647786  1  -0.63185  0  -0.083754  -0.109418  0  1.399737  0
F  F239  1  0.91028903  0.09999049  0.62352422  1  -0.631841  0  -0.083782  -0.10944  0  1.399644  0
F  F240  1  0.09998848  0.91028591  0.12352126  1  -0.631812  0  -0.083732  -0.109384  0  1.399761  0
F  F241  1  0.08971429  0.90000881  0.37647833  1  -0.631843  0  -0.083738  -0.109402  0  1.399757  0
F  F242  1  0.56948910  0.13704196  0.43715828  1  -0.626908  0  -0.079555  -0.098763  0  1.406726  0
F  F243  1  0.86295539  0.43051122  0.06283980  1  -0.626871  0  -0.079517  -0.098712  0  1.406611  0
F  F244  1  0.43051341  0.86295560  0.56284118  1  -0.626904  0  -0.079562  -0.098749  0  1.406713  0
F  F245  1  0.13704631  0.56948860  0.93715890  1  -0.626963  0  -0.079556  -0.098746  0  1.406663  0
F  F246  1  0.69710966  0.00049836  0.48764161  1  -0.627189  0  -0.088343  -0.115278  0  1.415152  0
F  F247  1  0.99950431  0.30289213  0.01235939  1  -0.627117  0  -0.088341  -0.115326  0  1.415036  0
F  F248  1  0.30289285  0.99950240  0.51235877  1  -0.627125  0  -0.08837  -0.115356  0  1.415188  0
F  F249  1  0.00049982  0.69710810  0.98764071  1  -0.627158  0  -0.08836  -0.115306  0  1.415158  0
