# generated using pymatgen
data_CuH5C15NO6
_symmetry_space_group_name_H-M   'P 1'
_cell_length_a   10.95253206
_cell_length_b   15.13399049
_cell_length_c   20.49513964
_cell_angle_alpha   111.66345282
_cell_angle_beta   105.50294216
_cell_angle_gamma   90.01080128
_symmetry_Int_Tables_number   1
_chemical_formula_structural   CuH5C15NO6
_chemical_formula_sum   'Cu4 H20 C60 N4 O24'
_cell_volume   3023.76962619
_cell_formula_units_Z   4
loop_
 _symmetry_equiv_pos_site_id
 _symmetry_equiv_pos_as_xyz
  1  'x, y, z'
loop_
 _atom_site_type_symbol
 _atom_site_label
 _atom_site_symmetry_multiplicity
 _atom_site_fract_x
 _atom_site_fract_y
 _atom_site_fract_z
 _atom_site_occupancy
 _atom_site_pbe_bader_charge
 _atom_site_pbe_bader_spin_density
 _atom_site_pbe_cm5_charge
 _atom_site_pbe_ddec_charge
 _atom_site_pbe_ddec_spin_density
 _atom_site_pbe_ddec_sum_bond_order
 _atom_site_pbe_magmom
Cu  Cu0  1  0.55431128  0.47606375  0.95208853  1  1.068561  0.542985  0.707995  0.838453  0.706026  2.194111  0.545
Cu  Cu1  1  0.10223059  0.02393794  0.04791766  1  1.066307  0.542923  0.708467  0.83892  0.704826  2.19262  0.545
Cu  Cu2  1  0.89776916  0.97606128  0.95208165  1  1.068214  0.542977  0.708486  0.838976  0.704827  2.192565  0.545
Cu  Cu3  1  0.44568952  0.52393559  0.04791162  1  1.066516  0.542925  0.707999  0.838396  0.706024  2.19418  0.545
H  H4  1  0.73337839  0.46906353  0.21974424  1  0.103126  0.000325  0.119286  0.133524  0.000223  0.969212  0.0
H  H5  1  0.75727153  0.30166025  0.43029583  1  0.109571  1e-06  0.117243  0.123852  1e-06  0.982694  0.0
H  H6  1  0.01341318  0.03098506  0.78025576  1  0.122113  0.000315  0.118629  0.133236  0.000224  0.969257  0.0
H  H7  1  0.82705880  0.19831456  0.56961879  1  0.125362  2e-06  0.117544  0.124354  1e-06  0.983566  0.0
H  H8  1  0.98667341  0.25092694  0.21975112  1  0.09661  0.000329  0.118827  0.132634  0.000225  0.970179  0.0
H  H9  1  0.17298402  0.62855605  0.43027360  1  0.114799  1e-06  0.117501  0.124585  0.0  0.983194  0.0
H  H10  1  0.26672174  0.24919916  0.78029329  1  0.108798  0.000326  0.119155  0.132603  0.000223  0.970276  0.0
H  H11  1  0.24253355  0.87138942  0.56980369  1  0.131577  1e-06  0.116991  0.123828  1e-06  0.983239  0.0
H  H12  1  0.26662704  0.53093845  0.78025784  1  0.103279  0.000325  0.119297  0.13357  0.000223  0.969166  0.0
H  H13  1  0.24272843  0.69833844  0.56970439  1  0.10922  1e-06  0.117248  0.123826  1e-06  0.982705  0.0
H  H14  1  0.98658857  0.96901393  0.21974403  1  0.122113  0.000315  0.118631  0.133248  0.000224  0.969243  0.0
H  H15  1  0.17294158  0.80168729  0.43038101  1  0.125387  2e-06  0.117533  0.124327  1e-06  0.983567  0.0
H  H16  1  0.01332740  0.74907240  0.78024902  1  0.096641  0.000329  0.118854  0.132635  0.000225  0.970185  0.0
H  H17  1  0.82701584  0.37144363  0.56972690  1  0.114989  1e-06  0.117499  0.124586  1e-06  0.983186  0.0
H  H18  1  0.73328001  0.75080129  0.21970796  1  0.10908  0.000325  0.119131  0.132602  0.000223  0.970293  0.0
H  H19  1  0.75746210  0.12861224  0.43019591  1  0.131506  1e-06  0.117003  0.123856  1e-06  0.983156  0.0
H  H20  1  0.75740884  0.25753766  0.01509183  1  0.104502  0.00052  0.119583  0.13395  0.000383  0.973607  0.0
H  H21  1  0.24237546  0.24240663  0.98493563  1  0.103263  0.000519  0.119745  0.13395  0.000382  0.973613  0.0
H  H22  1  0.24259186  0.74246316  0.98490908  1  0.104779  0.00052  0.119565  0.13393  0.000383  0.973592  0.0
H  H23  1  0.75762460  0.75759156  0.01506479  1  0.103264  0.000519  0.119731  0.133968  0.000382  0.973643  0.0
C  C24  1  0.64794189  0.41763438  0.07237481  1  1.539686  -0.001936  0.221753  0.584627  -0.002451  4.145111  -0.005
C  C25  1  0.73833448  0.36932590  0.11325594  1  -0.088837  0.017656  -0.002735  0.005463  0.012549  3.947459  0.014
C  C26  1  0.77418171  0.40655495  0.18995635  1  0.112462  0.003107  -0.061286  -0.142539  0.002223  3.883756  0.002
C  C27  1  0.84450069  0.35855793  0.34156536  1  1.334876  7.1e-05  0.245374  0.434056  5e-05  4.099464  0.0
C  C28  1  0.88558862  0.40111716  0.42290033  1  0.001044  4.2e-05  -0.003442  -0.058884  3e-05  3.982857  0.0
C  C29  1  0.83057990  0.36235731  0.46150398  1  0.062235  1e-05  -0.061108  -0.071425  6e-06  3.936129  0.0
C  C30  1  0.07540298  0.08235179  0.92760727  1  1.556849  -0.001997  0.220827  0.583366  -0.00246  4.147611  -0.005
C  C31  1  0.12498303  0.13066935  0.88676168  1  -0.033643  0.017636  -0.004067  0.002686  0.012541  3.951094  0.014
C  C32  1  0.08400181  0.09352030  0.81006431  1  -0.023553  0.003254  -0.058805  -0.139749  0.002249  3.882074  0.002
C  C33  1  0.00276051  0.14138727  0.65838190  1  1.328943  6.3e-05  0.243581  0.429155  4.4e-05  4.104367  0.0
C  C34  1  0.96274678  0.09889889  0.57704606  1  -0.022629  3.9e-05  -0.002201  -0.055171  2.9e-05  3.983614  0.0
C  C35  1  0.86918318  0.13766601  0.53842222  1  0.089031  1.3e-05  -0.063076  -0.073872  8e-06  3.93878  0.0
C  C36  1  0.92454630  0.15484367  0.07236468  1  1.549976  -0.001886  0.221156  0.584663  -0.00246  4.147302  -0.005
C  C37  1  0.87505438  0.24404215  0.11324966  1  0.01935  0.017538  -0.003455  -0.000416  0.012572  3.955625  0.014
C  C38  1  0.91602417  0.28360212  0.18995614  1  0.023128  0.003214  -0.060041  -0.137776  0.002234  3.882539  0.002
C  C39  1  0.99723755  0.48296578  0.34160782  1  1.335993  7.2e-05  0.243966  0.429617  5.1e-05  4.099103  0.0
C  C40  1  0.03728650  0.52176572  0.42291684  1  0.015159  4.3e-05  -0.001911  -0.055554  3.1e-05  3.980972  0.0
C  C41  1  0.13093103  0.59911491  0.46151084  1  -0.106105  9e-06  -0.062768  -0.073805  5e-06  3.935925  0.0
C  C42  1  0.35207492  0.34520882  0.92767949  1  1.556841  -0.002011  0.221634  0.585388  -0.002459  4.144187  -0.005
C  C43  1  0.26169891  0.25598349  0.88678344  1  0.032822  0.017618  -0.003339  0.00351  0.012553  3.949282  0.014
C  C44  1  0.22586511  0.21651520  0.81008413  1  0.015198  0.003207  -0.061288  -0.141017  0.002232  3.883899  0.002
C  C45  1  0.15544138  0.01705894  0.65843875  1  1.337513  6.1e-05  0.244679  0.433019  4.3e-05  4.096903  0.0
C  C46  1  0.11424527  0.97820433  0.57711869  1  0.017788  4e-05  -0.003337  -0.056865  2.9e-05  3.981502  0.0
C  C47  1  0.16926734  0.90083022  0.53855657  1  -0.10191  1e-05  -0.06051  -0.07166  5e-06  3.935871  0.0
C  C48  1  0.35205976  0.58236609  0.92762575  1  1.539687  -0.001936  0.221772  0.584633  -0.002451  4.145264  -0.005
C  C49  1  0.26166906  0.63067435  0.88674440  1  -0.088989  0.017656  -0.002739  0.005451  0.012549  3.947482  0.014
C  C50  1  0.22582089  0.59344565  0.81004435  1  0.112346  0.003107  -0.061295  -0.142599  0.002224  3.883791  0.002
C  C51  1  0.15550106  0.64144154  0.65843491  1  1.334974  7.1e-05  0.245334  0.433996  5e-05  4.099522  0.0
C  C52  1  0.11441219  0.59888267  0.57710030  1  0.001037  4.2e-05  -0.003474  -0.058929  3.1e-05  3.98284  0.0
C  C53  1  0.16942100  0.63764152  0.53849638  1  0.062591  1e-05  -0.061104  -0.071344  5e-06  3.936059  0.0
C  C54  1  0.92459762  0.91764758  0.07239148  1  1.55674  -0.001998  0.220801  0.583249  -0.00246  4.147723  -0.005
C  C55  1  0.87501883  0.86932864  0.11323783  1  -0.033997  0.017638  -0.004045  0.002739  0.012542  3.951037  0.014
C  C56  1  0.91600089  0.90647834  0.18993513  1  -0.023534  0.003254  -0.058831  -0.139794  0.002249  3.882082  0.002
C  C57  1  0.99723608  0.85861404  0.34161735  1  1.328838  6.3e-05  0.243549  0.429038  4.4e-05  4.104638  0.0
C  C58  1  0.03725351  0.90110298  0.42295304  1  -0.02261  4e-05  -0.002248  -0.05517  2.9e-05  3.983614  0.0
C  C59  1  0.13081552  0.86233505  0.46157821  1  0.089015  1.3e-05  -0.062984  -0.073791  8e-06  3.938697  0.0
C  C60  1  0.07545440  0.84515666  0.92763574  1  1.549919  -0.001886  0.221179  0.58466  -0.00246  4.147318  -0.005
C  C61  1  0.12494643  0.75595767  0.88675097  1  0.019392  0.017538  -0.003492  -0.000513  0.012572  3.95574  0.014
C  C62  1  0.08397937  0.71639910  0.81004518  1  0.023125  0.003214  -0.060117  -0.137748  0.002233  3.882529  0.002
C  C63  1  0.00276325  0.51703404  0.65839281  1  1.336045  7.2e-05  0.243934  0.429603  5e-05  4.099027  0.0
C  C64  1  0.96271420  0.47823412  0.57708309  1  0.015094  4.3e-05  -0.0019  -0.055556  3.1e-05  3.980962  0.0
C  C65  1  0.86906798  0.40088365  0.53848924  1  -0.106263  9e-06  -0.062808  -0.073819  5e-06  3.935985  0.0
C  C66  1  0.64792378  0.65479126  0.07231997  1  1.556867  -0.002011  0.22161  0.585286  -0.002459  4.14415  -0.005
C  C67  1  0.73830400  0.74401461  0.11321690  1  0.033013  0.017619  -0.00331  0.003631  0.012553  3.949091  0.014
C  C68  1  0.77413654  0.78348526  0.18991643  1  0.014917  0.003208  -0.061323  -0.14116  0.002232  3.883953  0.002
C  C69  1  0.84455437  0.98294075  0.34155960  1  1.337485  6.1e-05  0.244534  0.432876  4.3e-05  4.097196  0.0
C  C70  1  0.88575059  0.02179535  0.42288035  1  0.018125  4e-05  -0.003412  -0.057012  3e-05  3.981706  0.0
C  C71  1  0.83072757  0.09917078  0.46144380  1  -0.102117  1e-05  -0.06042  -0.071589  5e-06  3.935782  0.0
C  C72  1  0.86376282  0.36375048  0.22737078  1  0.368675  0.001517  0.092512  0.186551  0.00088  4.03784  0.001
C  C73  1  0.78735394  0.28740116  0.07478738  1  0.013311  0.004598  -0.061188  -0.093798  0.003189  3.877804  0.003
C  C74  1  0.98048094  0.48046991  0.46095690  1  0.057945  5e-05  0.004349  0.03124  3.4e-05  3.999135  0.0
C  C75  1  0.13620382  0.13632982  0.77265261  1  0.376172  0.001511  0.09215  0.186841  0.000876  4.037725  0.001
C  C76  1  0.21257211  0.21257027  0.92524508  1  0.022855  0.004604  -0.060796  -0.09369  0.003195  3.875811  0.003
C  C77  1  0.01949909  0.01952327  0.53903858  1  -0.126574  4e-05  0.004482  0.029846  2.7e-05  4.00223  0.0
C  C78  1  0.13623893  0.63624900  0.77262950  1  0.368664  0.001517  0.092539  0.186595  0.00088  4.037746  0.001
C  C79  1  0.21264792  0.71259927  0.92521457  1  0.01313  0.004599  -0.061164  -0.093766  0.003189  3.877672  0.003
C  C80  1  0.01951987  0.51952943  0.53904324  1  -0.083967  5.2e-05  0.004328  0.031228  3.4e-05  3.999177  0.0
C  C81  1  0.86379678  0.86367053  0.22734711  1  0.376131  0.001511  0.092196  0.186963  0.000876  4.037636  0.001
C  C82  1  0.78742880  0.78742807  0.07475478  1  0.023052  0.004602  -0.060815  -0.093781  0.003194  3.875756  0.003
C  C83  1  0.98049571  0.98047629  0.46095963  1  0.015313  3.9e-05  0.004493  0.029923  2.7e-05  4.002271  0.0
N  N84  1  0.90327749  0.40327723  0.30649521  1  -1.21456  0.00056  -0.231104  -0.212226  0.000285  3.568406  0.0
N  N85  1  0.09664638  0.09678225  0.69351949  1  -1.203791  0.000574  -0.230567  -0.21178  0.000296  3.568257  0.0
N  N86  1  0.09672426  0.59672224  0.69350507  1  -1.214647  0.00056  -0.231126  -0.212328  0.000285  3.568486  0.0
N  N87  1  0.90335222  0.90321833  0.30647976  1  -1.203789  0.000575  -0.230547  -0.211771  0.000296  3.568366  0.0
O  O88  1  0.66210067  0.41235036  0.01118437  1  -1.087593  0.097123  -0.311363  -0.518834  0.062411  2.311125  0.089
O  O89  1  0.56456957  0.46067555  0.10213612  1  -1.090898  0.108279  -0.311477  -0.511349  0.069716  2.302819  0.098
O  O90  1  0.76437645  0.28884855  0.30577107  1  -1.088556  0.000184  -0.268055  -0.419485  0.000105  2.064808  0.0
O  O91  1  0.15077313  0.08764712  0.98880389  1  -1.09463  0.096965  -0.309832  -0.517981  0.062349  2.313234  0.088
O  O92  1  0.96224159  0.03931786  0.89781320  1  -1.094324  0.108294  -0.311855  -0.510403  0.069758  2.302348  0.098
O  O93  1  0.95820155  0.21097735  0.69410953  1  -1.086574  0.000184  -0.267038  -0.417498  0.000105  2.065663  0.0
O  O94  1  0.84916328  0.09900602  0.01113796  1  -1.101964  0.09723  -0.309973  -0.518133  0.062624  2.31129  0.089
O  O95  1  0.03764938  0.14150630  0.10216756  1  -1.093962  0.108439  -0.311911  -0.510992  0.069738  2.301465  0.099
O  O96  1  0.04188455  0.51682214  0.30588587  1  -1.086972  0.000182  -0.267872  -0.418401  0.000103  2.060888  0.0
O  O97  1  0.33789148  0.40105915  0.98888108  1  -1.101201  0.097134  -0.311362  -0.519396  0.062481  2.310151  0.089
O  O98  1  0.43548001  0.35853210  0.89794840  1  -1.080071  0.108246  -0.311326  -0.511338  0.069569  2.302388  0.098
O  O99  1  0.23564822  0.98317867  0.69422546  1  -1.094026  0.000167  -0.268338  -0.41991  9.3e-05  2.061084  0.0
O  O100  1  0.33789908  0.58764983  0.98881591  1  -1.087598  0.097124  -0.311378  -0.518837  0.062411  2.311135  0.089
O  O101  1  0.43543018  0.53932464  0.89786417  1  -1.090902  0.10828  -0.311454  -0.511324  0.069717  2.302853  0.098
O  O102  1  0.23562330  0.71115165  0.69422922  1  -1.088579  0.000184  -0.268  -0.419398  0.000104  2.064896  0.0
O  O103  1  0.84922662  0.91235259  0.01119591  1  -1.094635  0.096961  -0.309795  -0.517894  0.062347  2.313299  0.088
O  O104  1  0.03776005  0.96068212  0.10218687  1  -1.094212  0.108295  -0.311851  -0.510356  0.069758  2.302335  0.098
O  O105  1  0.04179841  0.78902750  0.30589041  1  -1.086453  0.000184  -0.267005  -0.417429  0.000105  2.065848  0.0
O  O106  1  0.15083732  0.90099433  0.98886177  1  -1.101986  0.097229  -0.309985  -0.518119  0.062624  2.311323  0.089
O  O107  1  0.96235122  0.85849453  0.89783265  1  -1.093917  0.108439  -0.311908  -0.510979  0.069738  2.301442  0.099
O  O108  1  0.95811531  0.48317706  0.69411414  1  -1.086992  0.000182  -0.267821  -0.418337  0.000103  2.06083  0.0
O  O109  1  0.66210743  0.59893992  0.01111879  1  -1.101245  0.097132  -0.311376  -0.519375  0.062479  2.310123  0.089
O  O110  1  0.56452069  0.64146872  0.10205251  1  -1.080057  0.108248  -0.31129  -0.511256  0.06957  2.302333  0.098
O  O111  1  0.76434489  0.01681961  0.30577289  1  -1.09407  0.000167  -0.268229  -0.419791  9.3e-05  2.061207  0.0
