# generated using pymatgen
data_Gd4H22C24N6O35
_symmetry_space_group_name_H-M   'P 1'
_cell_length_a   8.53349129
_cell_length_b   13.44190196
_cell_length_c   20.13118017
_cell_angle_alpha   86.96735928
_cell_angle_beta   85.97069925
_cell_angle_gamma   81.81743892
_symmetry_Int_Tables_number   1
_chemical_formula_structural   Gd4H22C24N6O35
_chemical_formula_sum   'Gd8 H44 C48 N12 O70'
_cell_volume   2277.86283247
_cell_formula_units_Z   2
loop_
 _symmetry_equiv_pos_site_id
 _symmetry_equiv_pos_as_xyz
  1  'x, y, z'
loop_
 _atom_site_type_symbol
 _atom_site_label
 _atom_site_symmetry_multiplicity
 _atom_site_fract_x
 _atom_site_fract_y
 _atom_site_fract_z
 _atom_site_occupancy
 _atom_site_pbe_bader_charge
 _atom_site_pbe_bader_spin_density
 _atom_site_pbe_cm5_charge
 _atom_site_pbe_ddec_charge
 _atom_site_pbe_ddec_spin_density
 _atom_site_pbe_ddec_sum_bond_order
 _atom_site_pbe_magmom
Gd  Gd0  1  0.27986999  0.76996072  0.97255376  1  2.142288  0  1.495656  1.870935  0  2.358839  0
Gd  Gd1  1  0.72013853  0.23004222  0.02744454  1  2.142415  0  1.495652  1.870896  0  2.358821  0
Gd  Gd2  1  0.22472459  0.50093931  0.24639190  1  2.216181  0  1.507239  2.147753  0  2.142942  0
Gd  Gd3  1  0.77526875  0.49905830  0.75360548  1  2.216249  0  1.507266  2.147642  0  2.14312  0
Gd  Gd4  1  0.12800326  0.75780243  0.52897137  1  2.148904  0  1.47822  1.897104  0  2.305616  0
Gd  Gd5  1  0.87199844  0.24219440  0.47102977  1  2.148898  0  1.478227  1.897146  0  2.305521  0
Gd  Gd6  1  0.20504961  0.02670090  0.24670028  1  2.228477  0  1.441729  2.152105  0  2.043797  0
Gd  Gd7  1  0.79495320  0.97330121  0.75330069  1  2.228432  0  1.44174  2.152007  0  2.043938  0
H  H8  1  0.44775031  0.59397233  0.30346735  1  0.651353  0  0.312499  0.402929  0  0.912274  0
H  H9  1  0.55224975  0.40602692  0.69652532  1  0.651221  0  0.312483  0.402912  0  0.912339  0
H  H10  1  0.25048323  0.89651977  0.62191646  1  0.66649  0  0.297903  0.400824  0  0.938058  0
H  H11  1  0.74950478  0.10348520  0.37808832  1  0.666246  0  0.297991  0.40102  0  0.937814  0
H  H12  1  0.06265960  0.93421746  0.61531699  1  0.635216  0  0.311555  0.399376  0  0.928036  0
H  H13  1  0.93733021  0.06578012  0.38468099  1  0.635245  0  0.311554  0.399328  0  0.928108  0
H  H14  1  0.16820163  0.73386070  0.24837051  1  0.65637  0  0.303996  0.421851  0  0.894227  0
H  H15  1  0.83180026  0.26613544  0.75162767  1  0.656432  0  0.303971  0.421814  0  0.894278  0
H  H16  1  0.09775683  0.69166609  0.18719224  1  0.601462  0  0.321593  0.410843  0  0.892173  0
H  H17  1  0.90225629  0.30833243  0.81280258  1  0.601552  0  0.32157  0.410892  0  0.892128  0
H  H18  1  0.02988836  0.33480607  0.22893265  1  0.650931  0  0.325605  0.42322  0  0.874569  0
H  H19  1  0.97011407  0.66518785  0.77106358  1  0.6509  0  0.325571  0.423145  0  0.874672  0
H  H20  1  0.11221182  0.35733641  0.15675176  1  0.660877  0  0.2986  0.399774  0  0.940063  0
H  H21  1  0.88779343  0.64266051  0.84324580  1  0.660923  0  0.298574  0.399692  0  0.940153  0
H  H22  1  0.56571414  0.55369005  0.24330817  1  0.616594  0  0.340117  0.433232  0  0.842223  0
H  H23  1  0.43428947  0.44630389  0.75668753  1  0.616702  0  0.340114  0.433265  0  0.842203  0
H  H24  1  0.45028773  0.32660215  0.27412989  1  0.651267  0  0.337926  0.429988  0  0.852992  0
H  H25  1  0.54971079  0.67339312  0.72587337  1  0.651239  0  0.337911  0.429986  0  0.853065  0
H  H26  1  0.36664443  0.34362661  0.34956898  1  0.641237  0  0.298638  0.400855  0  0.943853  0
H  H27  1  0.63335269  0.65637471  0.65043217  1  0.640772  0  0.298636  0.400821  0  0.943892  0
H  H28  1  0.40239030  0.12496465  0.13920701  1  0.652  0  0.313649  0.419589  0  0.898794  0
H  H29  1  0.59761458  0.87503374  0.86079251  1  0.652022  0  0.313658  0.419597  0  0.898785  0
H  H30  1  0.25789096  0.20487089  0.15223286  1  0.645751  0  0.308648  0.400491  0  0.931143  0
H  H31  1  0.74211491  0.79512825  0.84776662  1  0.645748  0  0.308627  0.400502  0  0.931123  0
H  H32  1  0.89884295  0.15593089  0.19113310  1  0.647895  0  0.310329  0.411562  0  0.907379  0
H  H33  1  0.10116477  0.84407058  0.80886329  1  0.64799  0  0.310344  0.411551  0  0.907387  0
H  H34  1  0.91433278  0.17645083  0.26728041  1  0.633872  0  0.329916  0.415777  0  0.88074  0
H  H35  1  0.08567042  0.82354985  0.73271711  1  0.633822  0  0.329903  0.415781  0  0.880723  0
H  H36  1  0.25638992  0.23145812  0.29920536  1  0.651637  0  0.310936  0.414408  0  0.904556  0
H  H37  1  0.74360821  0.76854399  0.70079475  1  0.646673  0  0.310982  0.414459  0  0.904499  0
H  H38  1  0.19578686  0.16540259  0.36050433  1  0.661186  0  0.310023  0.415354  0  0.91245  0
H  H39  1  0.80421514  0.83459804  0.63949522  1  0.661179  0  0.310034  0.415311  0  0.912493  0
H  H40  1  0.41238110  0.92105353  0.12550918  1  0.645818  0  0.311224  0.405192  0  0.916005  0
H  H41  1  0.58762021  0.07894471  0.87449690  1  0.64589  0  0.311247  0.405205  0  0.916015  0
H  H42  1  0.53793079  0.94409847  0.17702460  1  0.672725  0  0.30852  0.409259  0  0.912788  0
H  H43  1  0.46207083  0.05590355  0.82298038  1  0.672488  0  0.308526  0.409248  0  0.912797  0
H  H44  1  0.32782323  0.81044156  0.30530891  1  0.605923  0  0.334469  0.41129  0  0.871001  0
H  H45  1  0.67216454  0.18955436  0.69469662  1  0.605562  0  0.334495  0.411266  0  0.87094  0
H  H46  1  0.36410173  0.83644973  0.22892529  1  0.645135  0  0.311291  0.406874  0  0.912961  0
H  H47  1  0.63590211  0.16354778  0.77108025  1  0.645056  0  0.311379  0.407008  0  0.912768  0
H  H48  1  0.86207379  0.96438888  0.24512129  1  0.665931  0  0.30283  0.411169  0  0.916194  0
H  H49  1  0.13792481  0.03561626  0.75487773  1  0.665948  0  0.302877  0.411205  0  0.916129  0
H  H50  1  0.92932053  0.92766115  0.31566072  1  0.612701  0  0.331558  0.426761  0  0.861469  0
H  H51  1  0.07067930  0.07233871  0.68433890  1  0.612712  0  0.331594  0.426771  0  0.861452  0
C  C52  1  0.25064428  0.59251862  0.08962765  1  1.656303  0  0.245042  0.616214  0  4.185145  0
C  C53  1  0.74936056  0.40748508  0.91036925  1  1.656326  0  0.244956  0.616261  0  4.185126  0
C  C54  1  0.38551807  0.53908706  0.04582309  1  0.524454  0  0.15929  0.103812  0  3.84269  0
C  C55  1  0.61448448  0.46091136  0.95417352  1  0.525139  0  0.159318  0.103749  0  3.842588  0
C  C56  1  0.49271615  0.45274786  0.06189152  1  0.596533  0  0.157994  0.097741  0  3.835057  0
C  C57  1  0.50728335  0.54725357  0.93810459  1  0.596244  0  0.158027  0.097879  0  3.834949  0
C  C58  1  0.50696388  0.39132204  0.12769046  1  1.671163  0  0.245659  0.632827  0  4.168595  0
C  C59  1  0.49303235  0.60867338  0.87230392  1  1.671503  0  0.24553  0.632502  0  4.168914  0
C  C60  1  0.12882018  0.93527871  0.09027187  1  1.615737  0  0.230817  0.60058  0  4.181433  0
C  C61  1  0.87118146  0.06472341  0.90972864  1  1.615982  0  0.230809  0.600518  0  4.181455  0
C  C62  1  0.98081541  0.91288685  0.06030152  1  0.512056  0  0.129715  0.05184  0  3.935793  0
C  C63  1  0.01918790  0.08711834  0.93969588  1  0.511975  0  0.129665  0.051827  0  3.935757  0
C  C64  1  0.82421081  0.95144737  0.08131004  1  0.550532  0  0.144711  0.072888  0  3.931854  0
C  C65  1  0.17579474  0.04855335  0.91868592  1  0.550887  0  0.144719  0.072852  0  3.931956  0
C  C66  1  0.72853555  0.84975468  0.01032189  1  0.575081  0  0.152465  0.117625  0  3.881657  0
C  C67  1  0.27146768  0.15024065  0.98967975  1  0.575174  0  0.152478  0.117693  0  3.881648  0
C  C68  1  0.88352935  0.81121622  0.98806658  1  0.541026  0  0.132734  0.056842  0  3.927725  0
C  C69  1  0.11647816  0.18878593  0.01193376  1  0.540625  0  0.132764  0.056857  0  3.927602  0
C  C70  1  0.92812679  0.72959183  0.93888265  1  1.642092  0  0.232236  0.586586  0  4.190716  0
C  C71  1  0.07188108  0.27040884  0.06111623  1  1.64175  0  0.232115  0.586498  0  4.190882  0
C  C72  1  0.78353431  0.02860499  0.13361993  1  1.657935  0  0.241487  0.595459  0  4.2203  0
C  C73  1  0.21646231  0.97139867  0.86637720  1  1.657876  0  0.24135  0.595414  0  4.220375  0
C  C74  1  0.58105688  0.81458624  0.98954704  1  1.626276  0  0.203975  0.564608  0  4.250086  0
C  C75  1  0.41895615  0.18540240  0.01045301  1  1.626481  0  0.20402  0.564777  0  4.249566  0
C  C76  1  0.20609500  0.59790798  0.40586261  1  1.657365  0  0.250451  0.643813  0  4.129514  0
C  C77  1  0.79390248  0.40209184  0.59413857  1  1.65738  0  0.250469  0.64387  0  4.129459  0
C  C78  1  0.09385054  0.54300202  0.45182849  1  0.593857  0  0.158191  0.106164  0  3.83629  0
C  C79  1  0.90614847  0.45699632  0.54817169  1  0.593867  0  0.158228  0.106034  0  3.836494  0
C  C80  1  0.99577002  0.53232570  0.56299215  1  0.544812  0  0.15748  0.101418  0  3.85496  0
C  C81  1  0.00423151  0.46767189  0.43700848  1  0.544762  0  0.157577  0.10146  0  3.854667  0
C  C82  1  0.00871618  0.57591176  0.62994114  1  1.662857  0  0.243708  0.62576  0  4.177755  0
C  C83  1  0.99128471  0.42408359  0.37005808  1  1.662893  0  0.243828  0.625921  0  4.177394  0
C  C84  1  0.50225003  0.01961071  0.34647801  1  1.667533  0  0.227723  0.606779  0  4.222553  0
C  C85  1  0.49772719  0.98040987  0.65353460  1  1.668018  0  0.227795  0.606431  0  4.223287  0
C  C86  1  0.49332213  0.94504088  0.40556643  1  0.543411  0  0.136938  0.07666  0  3.890129  0
C  C87  1  0.50667437  0.05496788  0.59443951  1  0.542015  0  0.136896  0.076728  0  3.890238  0
C  C88  1  0.35404578  0.90772604  0.43220383  1  0.4973  0  0.129063  0.044756  0  3.893344  0
C  C89  1  0.64595035  0.09227454  0.56779687  1  0.497379  0  0.12905  0.044659  0  3.893462  0
C  C90  1  0.50679011  0.79900952  0.50375145  1  0.581443  0  0.132064  0.056967  0  3.949511  0
C  C91  1  0.49321161  0.20098736  0.49624720  1  0.580976  0  0.132039  0.05698  0  3.949527  0
C  C92  1  0.64300558  0.83947850  0.47870174  1  0.543201  0  0.147868  0.11388  0  3.89351  0
C  C93  1  0.35699191  0.16052137  0.52129696  1  0.54366  0  0.147853  0.113882  0  3.89356  0
C  C94  1  0.80518511  0.80188070  0.50243199  1  1.66199  0  0.204702  0.573753  0  4.250241  0
C  C95  1  0.19481438  0.19812069  0.49756611  1  1.661718  0  0.20477  0.573794  0  4.250186  0
C  C96  1  0.50518371  0.71409253  0.55567015  1  1.611621  0  0.226404  0.588189  0  4.210351  0
C  C97  1  0.49481888  0.28590058  0.44432908  1  1.611585  0  0.226354  0.588045  0  4.21031  0
C  C98  1  0.18191043  0.93681721  0.41466333  1  1.622113  0  0.2403  0.61638  0  4.165681  0
C  C99  1  0.81808586  0.06318257  0.58533938  1  1.622073  0  0.24025  0.616445  0  4.165558  0
N  N100  1  0.08448678  0.57320496  0.51439199  1  -1.218263  0  -0.338728  -0.306627  0  3.500883  0
N  N101  1  0.91551275  0.42679112  0.48560874  1  -1.218192  0  -0.338772  -0.306664  0  3.500897  0
N  N102  1  0.36668836  0.83633653  0.48137020  1  -1.205144  0  -0.35829  -0.301937  0  3.59666  0
N  N103  1  0.63331119  0.16365959  0.51862854  1  -1.20512  0  -0.358244  -0.301843  0  3.596594  0
N  N104  1  0.00556118  0.84444278  0.01368609  1  -1.204666  0  -0.368755  -0.317127  0  3.607545  0
N  N105  1  0.99444212  0.15556241  0.98631181  1  -1.204743  0  -0.368749  -0.317022  0  3.607303  0
N  N106  1  0.70001568  0.91874159  0.05680876  1  -1.171644  0  -0.267681  -0.218702  0  3.25652  0
N  N107  1  0.29998620  0.08125452  0.94319091  1  -1.171544  0  -0.267676  -0.218773  0  3.256647  0
N  N108  1  0.63478959  0.91235374  0.43062761  1  -1.163934  0  -0.281336  -0.243802  0  3.237945  0
N  N109  1  0.36520529  0.08765203  0.56937646  1  -1.163461  0  -0.281311  -0.243843  0  3.23804  0
N  N110  1  0.39791108  0.58327120  0.98496695  1  -1.202894  0  -0.338864  -0.290689  0  3.507687  0
N  N111  1  0.60208960  0.41673024  0.01502913  1  -1.203451  0  -0.338851  -0.290621  0  3.50753  0
O  O112  1  0.20962931  0.68513816  0.07551727  1  -1.171466  0  -0.362107  -0.606027  0  2.265867  0
O  O113  1  0.79038473  0.31486633  0.92448034  1  -1.171385  0  -0.362121  -0.606105  0  2.265757  0
O  O114  1  0.11494869  0.67750360  0.23449445  1  -1.235782  0  -0.630548  -0.845498  0  1.969769  0
O  O115  1  0.88505756  0.32249411  0.76550108  1  -1.235894  0  -0.630487  -0.84551  0  1.969688  0
O  O116  1  0.18429759  0.54288139  0.13552873  1  -1.184993  0  -0.393662  -0.635193  0  2.330326  0
O  O117  1  0.81569804  0.45712152  0.86446795  1  -1.185179  0  -0.39361  -0.635168  0  2.330275  0
O  O118  1  0.08507448  0.38375827  0.20273466  1  -1.288707  0  -0.656689  -0.872292  0  2.099207  0
O  O119  1  0.91492121  0.61623937  0.79726166  1  -1.288758  0  -0.656624  -0.872143  0  2.099482  0
O  O120  1  0.46387798  0.59370090  0.25448891  1  -1.24097  0  -0.60604  -0.825374  0  1.977476  0
O  O121  1  0.53612149  0.40629081  0.74550349  1  -1.240887  0  -0.606014  -0.825391  0  1.977498  0
O  O122  1  0.45143891  0.43126841  0.18140487  1  -1.208395  0  -0.391331  -0.675553  0  2.333783  0
O  O123  1  0.54854177  0.56872312  0.81859203  1  -1.208716  0  -0.391213  -0.675355  0  2.334158  0
O  O124  1  0.34973046  0.34841018  0.29879966  1  -1.273544  0  -0.622697  -0.866051  0  2.103612  0
O  O125  1  0.65026918  0.65159039  0.70120194  1  -1.273085  0  -0.622684  -0.865987  0  2.103602  0
O  O126  1  0.58255602  0.30405458  0.12360574  1  -1.158592  0  -0.361862  -0.580492  0  2.24912  0
O  O127  1  0.41744267  0.69594537  0.87638894  1  -1.158452  0  -0.361892  -0.580438  0  2.248927  0
O  O128  1  0.31775631  0.14497509  0.17395194  1  -1.268862  0  -0.65035  -0.857284  0  2.066117  0
O  O129  1  0.68224623  0.85502329  0.82604715  1  -1.268887  0  -0.650333  -0.857316  0  2.066069  0
O  O130  1  0.07355181  0.69344228  0.93246980  1  -1.163768  0  -0.378452  -0.600417  0  2.23074  0
O  O131  1  0.92645942  0.30655921  0.06752649  1  -1.163709  0  -0.37829  -0.600275  0  2.230936  0
O  O132  1  0.97531777  0.16422117  0.22476689  1  -1.257119  0  -0.599561  -0.816654  0  2.018798  0
O  O133  1  0.02468776  0.83577951  0.77523106  1  -1.257113  0  -0.599559  -0.816632  0  2.018801  0
O  O134  1  0.81745662  0.70354292  0.90764944  1  -1.177586  0  -0.289414  -0.52422  0  2.207501  0
O  O135  1  0.18255464  0.29645321  0.09235145  1  -1.177299  0  -0.289431  -0.524306  0  2.207453  0
O  O136  1  0.20650060  0.17060448  0.31118115  1  -1.282693  0  -0.647943  -0.855866  0  2.105566  0
O  O137  1  0.79348745  0.82940060  0.68881817  1  -1.277718  0  -0.647989  -0.855841  0  2.105624  0
O  O138  1  0.26017101  0.90163193  0.05995854  1  -1.169755  0  -0.332523  -0.590912  0  2.218142  0
O  O139  1  0.73982951  0.09836488  0.94004363  1  -1.169764  0  -0.332416  -0.590788  0  2.218121  0
O  O140  1  0.42977807  0.92726077  0.17303647  1  -1.286026  0  -0.59148  -0.831668  0  2.136091  0
O  O141  1  0.57022389  0.07273974  0.82696953  1  -1.285884  0  -0.591504  -0.831688  0  2.136116  0
O  O142  1  0.10963506  0.98220105  0.14371931  1  -1.190195  0  -0.367444  -0.626897  0  2.287745  0
O  O143  1  0.89035954  0.01780102  0.85628189  1  -1.190386  0  -0.367556  -0.626998  0  2.287933  0
O  O144  1  0.14612182  0.87545449  0.61305727  1  -1.280332  0  -0.630243  -0.83896  0  2.072326  0
O  O145  1  0.85387233  0.12454462  0.38694054  1  -1.280096  0  -0.630335  -0.839129  0  2.072003  0
O  O146  1  0.53334414  0.74160314  0.02365612  1  -1.147165  0  -0.365744  -0.583835  0  2.185686  0
O  O147  1  0.46666465  0.25838846  0.97634546  1  -1.147328  0  -0.365784  -0.583949  0  2.18561  0
O  O148  1  0.50303983  0.86399305  0.94387865  1  -1.174721  0  -0.355174  -0.597778  0  2.262851  0
O  O149  1  0.49697448  0.13600010  0.05612174  1  -1.174861  0  -0.355142  -0.597809  0  2.26253  0
O  O150  1  0.81127952  0.11790643  0.11780186  1  -1.188256  0  -0.367852  -0.62933  0  2.324455  0
O  O151  1  0.18872177  0.88209718  0.88219912  1  -1.188172  0  -0.36781  -0.62932  0  2.324416  0
O  O152  1  0.72268405  0.99866919  0.18841398  1  -1.164231  0  -0.284733  -0.510814  0  2.167924  0
O  O153  1  0.27731175  0.00133294  0.81158371  1  -1.164323  0  -0.284658  -0.510804  0  2.167883  0
O  O154  1  0.27094955  0.55665674  0.35370866  1  -1.207581  0  -0.377057  -0.664926  0  2.330748  0
O  O155  1  0.72904473  0.44334691  0.64628853  1  -1.207645  0  -0.377022  -0.66484  0  2.330808  0
O  O156  1  0.23341156  0.68144476  0.42503586  1  -1.171825  0  -0.358318  -0.605946  0  2.222831  0
O  O157  1  0.76658914  0.31855131  0.57496583  1  -1.171889  0  -0.358378  -0.606014  0  2.222673  0
O  O158  1  0.04293881  0.66425939  0.62838969  1  -1.155278  0  -0.34879  -0.584775  0  2.229523  0
O  O159  1  0.95706576  0.33573519  0.37161193  1  -1.155385  0  -0.348874  -0.584872  0  2.229358  0
O  O160  1  0.99016480  0.52013647  0.68185160  1  -1.190961  0  -0.412054  -0.659553  0  2.272118  0
O  O161  1  0.00983439  0.47986114  0.31814711  1  -1.190854  0  -0.412135  -0.659659  0  2.272003  0
O  O162  1  0.44388506  0.99403271  0.29433296  1  -1.186657  0  -0.42486  -0.68909  0  2.368166  0
O  O163  1  0.55612070  0.00598663  0.70567343  1  -1.186867  0  -0.424801  -0.688829  0  2.368252  0
O  O164  1  0.57007665  0.09494435  0.35206175  1  -1.167599  0  -0.296132  -0.520665  0  2.151122  0
O  O165  1  0.42988099  0.90508426  0.64795815  1  -1.166985  0  -0.29627  -0.520557  0  2.151662  0
O  O166  1  0.14593692  0.99132435  0.36300678  1  -1.197745  0  -0.375181  -0.653721  0  2.388812  0
O  O167  1  0.85406073  0.00867470  0.63699540  1  -1.19783  0  -0.375213  -0.653791  0  2.388854  0
O  O168  1  0.27680233  0.82792531  0.26363090  1  -1.217644  0  -0.565733  -0.780994  0  2.056488  0
O  O169  1  0.72319512  0.17207445  0.73637326  1  -1.21727  0  -0.565848  -0.781091  0  2.056356  0
O  O170  1  0.08046807  0.90145198  0.45428514  1  -1.164499  0  -0.363356  -0.590757  0  2.280997  0
O  O171  1  0.91952795  0.09854412  0.54571370  1  -1.16442  0  -0.36326  -0.590713  0  2.280857  0
O  O172  1  0.95934526  0.94922422  0.27024895  1  -1.254121  0  -0.629301  -0.864914  0  2.06134  0
O  O173  1  0.04065515  0.05078316  0.72975145  1  -1.254111  0  -0.629389  -0.864925  0  2.061259  0
O  O174  1  0.37096180  0.68678279  0.57289752  1  -1.168146  0  -0.390312  -0.623913  0  2.220069  0
O  O175  1  0.62903614  0.31322005  0.42710357  1  -1.168129  0  -0.390309  -0.623888  0  2.21995  0
O  O176  1  0.63713772  0.67782081  0.57777129  1  -1.158801  0  -0.295382  -0.513492  0  2.206219  0
O  O177  1  0.36286545  0.32217978  0.42223021  1  -1.158732  0  -0.295328  -0.513372  0  2.206128  0
O  O178  1  0.85125786  0.83979346  0.55323353  1  -1.184969  0  -0.353643  -0.600189  0  2.266043  0
O  O179  1  0.14874351  0.16020493  0.44676460  1  -1.184771  0  -0.353684  -0.600197  0  2.265996  0
O  O180  1  0.89295711  0.73819251  0.46760314  1  -1.159366  0  -0.356129  -0.587088  0  2.206095  0
O  O181  1  0.10704342  0.26180431  0.53239804  1  -1.159333  0  -0.35616  -0.587112  0  2.205986  0
