# generated using pymatgen
data_CuH26(C9N4)2
_symmetry_space_group_name_H-M   'P 1'
_cell_length_a   7.24077939
_cell_length_b   11.56270843
_cell_length_c   12.75490000
_cell_angle_alpha   110.42700760
_cell_angle_beta   90.00000000
_cell_angle_gamma   90.00000000
_symmetry_Int_Tables_number   1
_chemical_formula_structural   CuH26(C9N4)2
_chemical_formula_sum   'Cu2 H52 C36 N16'
_cell_volume   1000.72795723
_cell_formula_units_Z   2
loop_
 _symmetry_equiv_pos_site_id
 _symmetry_equiv_pos_as_xyz
  1  'x, y, z'
loop_
 _atom_site_type_symbol
 _atom_site_label
 _atom_site_symmetry_multiplicity
 _atom_site_fract_x
 _atom_site_fract_y
 _atom_site_fract_z
 _atom_site_occupancy
 _atom_site_hle17_bader_spin_density
 _atom_site_hle17_ddec_charge
 _atom_site_hle17_ddec_spin_density
 _atom_site_hle17_ddec_sum_bond_order
 _atom_site_hle17_magmom
 _atom_site_hse06_10hf_bader_spin_density
 _atom_site_hse06_10hf_ddec_charge
 _atom_site_hse06_10hf_ddec_spin_density
 _atom_site_hse06_10hf_ddec_sum_bond_order
 _atom_site_hse06_10hf_magmom
 _atom_site_hse06_bader_spin_density
 _atom_site_hse06_ddec_charge
 _atom_site_hse06_ddec_spin_density
 _atom_site_hse06_ddec_sum_bond_order
 _atom_site_hse06_magmom
 _atom_site_pbe_bader_charge
 _atom_site_pbe_bader_spin_density
 _atom_site_pbe_cm5_charge
 _atom_site_pbe_ddec_charge
 _atom_site_pbe_ddec_spin_density
 _atom_site_pbe_ddec_sum_bond_order
 _atom_site_pbe_magmom
Cu  Cu0  1  0.74690716  0.82873266  0.42191377  1  0  0.750991  0  1.88704  0  0  0.706655  0  2.312123  0  0  0.721745  0  2.272801  0  0.940859  0  0.735337  0.698955  0  2.337823  0
Cu  Cu1  1  0.24690298  0.17126574  0.57808768  1  0  0.750937  0  1.886985  0  0  0.70662  0  2.312054  0  0  0.721761  0  2.272733  0  0.940863  0  0.735332  0.698918  0  2.33776  0
H  H2  1  0.82586551  0.84343972  0.23919819  1  0  0.282469  0  0.900797  0  0  0.277304  0  0.95511  0  0  0.282017  0  0.952107  0  0.40844  0  0.29668  0.274007  0  0.957323  0
H  H3  1  0.32586133  0.15656238  0.76080601  1  0  0.282475  0  0.900901  0  0  0.277311  0  0.955214  0  0  0.282026  0  0.952211  0  0.408388  0  0.296696  0.274014  0  0.957424  0
H  H4  1  0.47154040  0.89424070  0.55822300  1  0  0.28392  0  0.942819  0  0  0.274527  0  1.002902  0  0  0.279049  0  1.001155  0  0.46139  0  0.282783  0.271376  0  1.004188  0
H  H5  1  0.97154182  0.10575309  0.44177464  1  0  0.283929  0  0.942843  0  0  0.274525  0  1.002925  0  0  0.27905  0  1.001174  0  0.461383  0  0.282811  0.271373  0  1.004213  0
H  H6  1  0.67459865  0.94189927  0.61818649  1  0  0.288107  0  0.946003  0  0  0.273329  0  1.015688  0  0  0.278851  0  1.01194  0  0.47363  0  0.285762  0.269442  0  1.018451  0
H  H7  1  0.17460137  0.05809268  0.38181292  1  0  0.288039  0  0.946194  0  0  0.273231  0  1.015885  0  0  0.278755  0  1.012138  0  0.473546  0  0.285718  0.269347  0  1.01864  0
H  H8  1  0.02489097  0.82851117  0.29798619  1  0  0.282704  0  0.957171  0  0  0.270457  0  1.02134  0  0  0.275434  0  1.018805  0  0.475737  0  0.284259  0.266969  0  1.023197  0
H  H9  1  0.52488548  0.17148908  0.70201741  1  0  0.282711  0  0.957103  0  0  0.270496  0  1.021236  0  0  0.275475  0  1.018699  0  0.475792  0  0.284268  0.267009  0  1.02309  0
H  H10  1  0.97571126  0.59881129  0.34063771  1  0  0.097803  0  0.965725  0  0  0.114653  0  1.036476  0  0  0.117012  0  1.034058  0  0.032815  0  0.085119  0.112847  0  1.038278  0
H  H11  1  0.47571951  0.40118711  0.65936531  1  0  0.097722  0  0.965842  0  0  0.11462  0  1.036545  0  0  0.116976  0  1.034132  0  0.032521  0  0.085129  0.112811  0  1.03835  0
H  H12  1  0.16805649  0.62626150  0.26641342  1  0  0.106025  0  0.961817  0  0  0.127256  0  1.021968  0  0  0.127871  0  1.023468  0  0.049243  0  0.089259  0.126773  0  1.020941  0
H  H13  1  0.66805792  0.37373690  0.73359117  1  0  0.106056  0  0.961801  0  0  0.12731  0  1.021931  0  0  0.127927  0  1.023429  0  0.049181  0  0.089271  0.12682  0  1.020914  0
H  H14  1  0.02988352  0.49276842  0.20420694  1  0  0.111594  0  0.95831  0  0  0.133747  0  1.018678  0  0  0.134639  0  1.02027  0  0.074769  0  0.091907  0.133089  0  1.017569  0
H  H15  1  0.52989047  0.50723091  0.79579559  1  0  0.111582  0  0.95833  0  0  0.13377  0  1.018666  0  0  0.134661  0  1.020266  0  0.07477  0  0.091922  0.133114  0  1.01755  0
H  H16  1  0.76061425  0.62600587  0.19826144  1  0  0.042907  0  0.941621  0  0  0.056445  0  1.00643  0  0  0.056337  0  1.007013  0  0.073634  0  0.106254  0.056413  0  1.006148  0
H  H17  1  0.26061145  0.37399715  0.80173991  1  0  0.042879  0  0.941625  0  0  0.056494  0  1.006405  0  0  0.056377  0  1.006998  0  0.073607  0  0.106247  0.056455  0  1.006129  0
H  H18  1  0.11433438  0.81940325  0.12932274  1  0  0.082238  0  1.005551  0  0  0.088968  0  1.077884  0  0  0.091197  0  1.077661  0  0.081973  0  0.093983  0.087381  0  1.078064  0
H  H19  1  0.61433166  0.18059608  0.87068135  1  0  0.082272  0  1.005577  0  0  0.088966  0  1.077922  0  0  0.091191  0  1.077709  0  0.082018  0  0.093996  0.087372  0  1.078106  0
H  H20  1  0.20225723  0.79151743  0.93587047  1  0  0.08719  0  0.985095  0  0  0.098648  0  1.045858  0  0  0.100518  0  1.046928  0  0.054066  0  0.095037  0.097304  0  1.045185  0
H  H21  1  0.70226694  0.20849020  0.06413548  1  0  0.08722  0  0.98506  0  0  0.09867  0  1.045832  0  0  0.10054  0  1.046902  0  0.053896  0  0.09503  0.097311  0  1.045174  0
H  H22  1  0.21361513  0.67442212  0.74301804  1  0  0.108651  0  0.961765  0  0  0.128448  0  1.024536  0  0  0.129642  0  1.025376  0  0.041789  0  0.090133  0.127558  0  1.023974  0
H  H23  1  0.71360550  0.32559197  0.25699073  1  0  0.108661  0  0.961747  0  0  0.12843  0  1.024541  0  0  0.129618  0  1.02539  0  0.041777  0  0.090145  0.127532  0  1.023985  0
H  H24  1  0.00304801  0.59613032  0.69225637  1  0  0.100493  0  0.954422  0  0  0.121799  0  1.01666  0  0  0.123  0  1.01605  0  0.033847  0  0.08811  0.12091  0  1.017077  0
H  H25  1  0.50303425  0.40387639  0.30774144  1  0  0.100525  0  0.954526  0  0  0.121867  0  1.016723  0  0  0.123075  0  1.016106  0  0.033743  0  0.088106  0.120962  0  1.01715  0
H  H26  1  0.19852835  0.51152046  0.70522339  1  0  0.101795  0  0.967524  0  0  0.12584  0  1.028905  0  0  0.126432  0  1.029243  0  0.038311  0  0.089701  0.125258  0  1.028838  0
H  H27  1  0.69851320  0.48849270  0.29478665  1  0  0.10182  0  0.967406  0  0  0.125908  0  1.028733  0  0  0.126494  0  1.029089  0  0.03836  0  0.089756  0.125316  0  1.028676  0
H  H28  1  0.92715433  0.44037269  0.81989932  1  0  0.086418  0  0.987643  0  0  0.096638  0  1.052616  0  0  0.099017  0  1.052003  0  0.076618  0  0.092794  0.094914  0  1.053117  0
H  H29  1  0.42715291  0.55963217  0.18010026  1  0  0.086401  0  0.987672  0  0  0.096649  0  1.052601  0  0  0.099041  0  1.051979  0  0.076516  0  0.092773  0.094914  0  1.053114  0
H  H30  1  0.82848954  0.47043097  0.01295701  1  0  0.089416  0  0.983484  0  0  0.099336  0  1.047451  0  0  0.100934  0  1.049093  0  0.079873  0  0.096188  0.098185  0  1.046333  0
H  H31  1  0.32849364  0.52956651  0.98704258  1  0  0.089431  0  0.98355  0  0  0.09934  0  1.047519  0  0  0.100936  0  1.049155  0  0.07985  0  0.096177  0.098176  0  1.046421  0
H  H32  1  0.48550022  0.63506488  0.45975687  1  0  0.105189  0  0.969037  0  0  0.122505  0  1.038203  0  0  0.124216  0  1.037543  0  0.045385  0  0.086689  0.12119  0  1.038761  0
H  H33  1  0.98549474  0.36492337  0.54024059  1  0  0.105274  0  0.969046  0  0  0.122513  0  1.038273  0  0  0.124224  0  1.037612  0  0.045426  0  0.086706  0.121192  0  1.038832  0
H  H34  1  0.32030944  0.70624956  0.56611121  1  0  0.108202  0  0.950687  0  0  0.129905  0  1.008944  0  0  0.130761  0  1.010181  0  0.036435  0  0.089264  0.129272  0  1.008078  0
H  H35  1  0.82030396  0.29373684  0.43388409  1  0  0.108125  0  0.950793  0  0  0.129838  0  1.009031  0  0  0.130696  0  1.010266  0  0.036865  0  0.089238  0.129203  0  1.008161  0
H  H36  1  0.46758640  0.58915240  0.57938291  1  0  0.10646  0  0.948588  0  0  0.131028  0  1.003649  0  0  0.131985  0  1.004327  0  0.056945  0  0.091011  0.130288  0  1.003215  0
H  H37  1  0.96757954  0.41083861  0.42061543  1  0  0.106346  0  0.948704  0  0  0.130926  0  1.00375  0  0  0.131872  0  1.004441  0  0.057109  0  0.090931  0.130168  0  1.003334  0
H  H38  1  0.74280401  0.72315031  0.59545630  1  0  0.039365  0  0.920542  0  0  0.053619  0  0.981128  0  0  0.054254  0  0.979738  0  0.080604  0  0.105558  0.053062  0  0.982212  0
H  H39  1  0.24280121  0.27684348  0.40454369  1  0  0.03934  0  0.920463  0  0  0.053589  0  0.981092  0  0  0.054224  0  0.979708  0  0.08026  0  0.105538  0.053029  0  0.982175  0
H  H40  1  0.40681532  0.96771044  0.74920141  1  0  0.079165  0  0.993058  0  0  0.089493  0  1.060548  0  0  0.091763  0  1.06013  0  0.051602  0  0.092963  0.087869  0  1.060903  0
H  H41  1  0.90680984  0.03228796  0.25079064  1  0  0.079185  0  0.993076  0  0  0.089504  0  1.060561  0  0  0.091769  0  1.060157  0  0.051717  0  0.092965  0.087881  0  1.060917  0
H  H42  1  0.37516956  0.03876290  0.95536848  1  0  0.089955  0  0.977958  0  0  0.102402  0  1.038937  0  0  0.104251  0  1.039839  0  0.070567  0  0.095999  0.101076  0  1.038379  0
H  H43  1  0.87516822  0.96124380  0.04462462  1  0  0.08997  0  0.977899  0  0  0.102369  0  1.038947  0  0  0.104217  0  1.039851  0  0.070645  0  0.096029  0.101043  0  1.038391  0
H  H44  1  0.56302226  0.86377358  0.13284990  1  0  0.101984  0  0.95181  0  0  0.124215  0  1.011654  0  0  0.125424  0  1.011561  0  0.004674  0  0.086568  0.123261  0  1.011806  0
H  H45  1  0.06302913  0.13622759  0.86714459  1  0  0.10191  0  0.951848  0  0  0.124142  0  1.011692  0  0  0.12535  0  1.0116  0  0.004559  0  0.086531  0.123189  0  1.01184  0
H  H46  1  0.35956212  0.94416494  0.12173048  1  0  0.111315  0  0.963722  0  0  0.131204  0  1.029385  0  0  0.131879  0  1.030707  0  0.060437  0  0.090309  0.130662  0  1.028518  0
H  H47  1  0.85956769  0.05583715  0.87826273  1  0  0.111343  0  0.963684  0  0  0.131195  0  1.029379  0  0  0.131874  0  1.030695  0  0.060293  0  0.090302  0.130656  0  1.028508  0
H  H48  1  0.57409704  0.02053413  0.14106864  1  0  0.108445  0  0.947731  0  0  0.130255  0  1.009039  0  0  0.1313  0  1.009317  0  0.059293  0  0.089662  0.129494  0  1.008827  0
H  H49  1  0.07410666  0.97947073  0.85892937  1  0  0.108406  0  0.947846  0  0  0.130239  0  1.009122  0  0  0.131284  0  1.009399  0  0.05934  0  0.089621  0.129473  0  1.008916  0
H  H50  1  0.69610462  0.72839689  0.96159503  1  0  0.086804  0  0.984548  0  0  0.095096  0  1.051325  0  0  0.096987  0  1.052511  0  0.050528  0  0.093944  0.093722  0  1.050601  0
H  H51  1  0.19611149  0.27160889  0.03840484  1  0  0.086663  0  0.984602  0  0  0.094968  0  1.051382  0  0  0.09686  0  1.052566  0  0.05031  0  0.093906  0.093602  0  1.050645  0
H  H52  1  0.73865805  0.66301806  0.75768444  1  0  0.080485  0  0.97853  0  0  0.095174  0  1.037047  0  0  0.097043  0  1.037131  0  0.067601  0  0.097201  0.093808  0  1.037083  0
H  H53  1  0.23866906  0.33697942  0.24231594  1  0  0.080444  0  0.978514  0  0  0.095142  0  1.037043  0  0  0.097009  0  1.03713  0  0.06739  0  0.097209  0.09378  0  1.037069  0
C  C54  1  0.02623336  0.59050074  0.25710216  1  0  -0.337543  0  3.664553  0  0  -0.416878  0  3.903193  0  0  -0.420059  0  3.912864  0  -0.114054  0  -0.244313  -0.414402  0  3.896534  0
C  C55  1  0.52623755  0.40949767  0.74290087  1  0  -0.337453  0  3.66458  0  0  -0.416835  0  3.903241  0  0  -0.420016  0  3.912914  0  -0.113659  0  -0.244325  -0.414357  0  3.896593  0
C  C56  1  0.90234209  0.66200751  0.20406205  1  0  0.198948  0  3.621563  0  0  0.180885  0  3.862441  0  0  0.185338  0  3.877108  0  0.318669  0  0.001284  0.177903  0  3.852582  0
C  C57  1  0.40233928  0.33798997  0.79593989  1  0  0.198949  0  3.621521  0  0  0.180687  0  3.862695  0  0  0.185134  0  3.877396  0  0.318544  0  0.00126  0.177709  0  3.852828  0
C  C58  1  0.96306069  0.64762900  0.08599722  1  0  0.019737  0  3.716576  0  0  0.039512  0  3.950215  0  0  0.038016  0  3.974348  0  -0.082427  0  -0.017655  0.040495  0  3.933819  0
C  C59  1  0.46306065  0.35237217  0.91400432  1  0  0.019864  0  3.716447  0  0  0.039687  0  3.95011  0  0  0.038189  0  3.974241  0  -0.082538  0  -0.017641  0.040651  0  3.933711  0
C  C60  1  0.06943728  0.73639459  0.06213326  1  0  -0.122125  0  3.77384  0  0  -0.14236  0  4.022594  0  0  -0.144749  0  4.04446  0  -0.14718  0  -0.103442  -0.140632  0  4.007705  0
C  C61  1  0.56944284  0.26361027  0.93786632  1  0  -0.12224  0  3.773976  0  0  -0.14244  0  4.022717  0  0  -0.144826  0  4.044585  0  -0.147184  0  -0.103544  -0.140734  0  4.007836  0
C  C62  1  0.12052570  0.72049425  0.95234670  1  0  -0.127539  0  3.747513  0  0  -0.143364  0  3.987291  0  0  -0.146194  0  4.008869  0  0.043735  0  -0.096358  -0.141394  0  3.972652  0
C  C63  1  0.62052712  0.27950784  0.04765435  1  0  -0.12759  0  3.74744  0  0  -0.143387  0  3.987236  0  0  -0.146217  0  4.008811  0  0.04464  0  -0.096408  -0.141445  0  3.972608  0
C  C64  1  0.06958091  0.61476424  0.86312701  1  0  0.129577  0  3.768429  0  0  0.155738  0  4.003573  0  0  0.156175  0  4.027864  0  -0.079058  0  -0.01506  0.15538  0  3.98706  0
C  C65  1  0.56957957  0.38523786  0.13687326  1  0  0.129594  0  3.768474  0  0  0.155684  0  4.00371  0  0  0.15612  0  4.028004  0  -0.080192  0  -0.015085  0.155309  0  3.98718  0
C  C66  1  0.12421177  0.59871162  0.74511973  1  0  -0.332122  0  3.731329  0  0  -0.412684  0  3.963612  0  0  -0.414524  0  3.973876  0  -0.07604  0  -0.238438  -0.411071  0  3.956509  0
C  C67  1  0.62420214  0.40129786  0.25488679  1  0  -0.332179  0  3.731237  0  0  -0.412764  0  3.963527  0  0  -0.414609  0  3.973787  0  -0.075646  0  -0.238507  -0.411145  0  3.956437  0
C  C68  1  0.96554937  0.52482104  0.88764780  1  0  -0.13193  0  3.746721  0  0  -0.149199  0  3.991543  0  0  -0.152155  0  4.012363  0  -0.025904  0  -0.097487  -0.147107  0  3.977428  0
C  C69  1  0.46555347  0.47518197  0.11235746  1  0  -0.131851  0  3.746751  0  0  -0.149105  0  3.991554  0  0  -0.152072  0  4.012369  0  -0.025968  0  -0.097473  -0.147043  0  3.977461  0
C  C70  1  0.91185764  0.54112007  0.99676786  1  0  -0.111503  0  3.756681  0  0  -0.12912  0  4.002496  0  0  -0.130829  0  4.023782  0  -0.066953  0  -0.094845  -0.127851  0  3.987988  0
C  C71  1  0.41185345  0.45888110  0.00323447  1  0  -0.111615  0  3.756566  0  0  -0.129238  0  4.002414  0  0  -0.13094  0  4.023695  0  -0.066858  0  -0.09488  -0.128008  0  3.987947  0
C  C72  1  0.46073769  0.66786689  0.55034825  1  0  -0.339845  0  3.666038  0  0  -0.416067  0  3.89856  0  0  -0.419308  0  3.908657  0  -0.099906  0  -0.243682  -0.413552  0  3.891629  0
C  C73  1  0.96073359  0.33212229  0.44964950  1  0  -0.339719  0  3.666167  0  0  -0.415857  0  3.898693  0  0  -0.419072  0  3.908783  0  -0.100369  0  -0.243576  -0.413327  0  3.891766  0
C  C74  1  0.60428163  0.76494950  0.61202033  1  0  0.205966  0  3.623454  0  0  0.187529  0  3.867126  0  0  0.192312  0  3.881426  0  0.303761  0  0.002798  0.184362  0  3.8574  0
C  C75  1  0.10428021  0.23504429  0.38797810  1  0  0.206091  0  3.623371  0  0  0.187553  0  3.867156  0  0  0.192313  0  3.881514  0  0.304021  0  0.002802  0.184387  0  3.857424  0
C  C76  1  0.57743508  0.81090719  0.73817376  1  0  0.02236  0  3.726256  0  0  0.041602  0  3.960602  0  0  0.039825  0  3.986266  0  -0.055689  0  -0.017946  0.042766  0  3.943174  0
C  C77  1  0.07743918  0.18909213  0.26182564  1  0  0.022088  0  3.726065  0  0  0.041389  0  3.960414  0  0  0.039617  0  3.986077  0  -0.055543  0  -0.017997  0.042558  0  3.942987  0
C  C78  1  0.47386473  0.91624314  0.79574990  1  0  -0.118075  0  3.773818  0  0  -0.139287  0  4.024855  0  0  -0.141869  0  4.046745  0  -0.09434  0  -0.102059  -0.137486  0  4.010005  0
C  C79  1  0.97386339  0.08375711  0.20424351  1  0  -0.117977  0  3.773895  0  0  -0.139177  0  4.024916  0  0  -0.141758  0  4.046799  0  -0.094468  0  -0.102  -0.137361  0  4.010068  0
C  C80  1  0.45385998  0.95541857  0.91174173  1  0  -0.131215  0  3.744088  0  0  -0.14832  0  3.987743  0  0  -0.150971  0  4.009003  0  0.022638  0  -0.097233  -0.146483  0  3.973346  0
C  C81  1  0.95385588  0.04458906  0.08825794  1  0  -0.131283  0  3.74413  0  0  -0.148355  0  3.987823  0  0  -0.151006  0  4.009083  0  -0.044503  0  -0.09732  -0.146514  0  3.973434  0
C  C82  1  0.53220100  0.88911593  0.97402311  1  0  0.130723  0  3.77477  0  0  0.157288  0  4.008183  0  0  0.158032  0  4.031263  0  -0.067365  0  -0.012963  0.156708  0  3.992477  0
C  C83  1  0.03220233  0.11088708  0.02597275  1  0  0.130804  0  3.774643  0  0  0.157344  0  4.008087  0  0  0.158085  0  4.03118  0  -0.00028  0  -0.012892  0.156769  0  3.992381  0
C  C84  1  0.50621208  0.93126397  0.09867013  1  0  -0.332864  0  3.723746  0  0  -0.414042  0  3.957901  0  0  -0.415921  0  3.967423  0  -0.056424  0  -0.241593  -0.412405  0  3.951274  0
C  C85  1  0.00621894  0.06873720  0.90132671  1  0  -0.332777  0  3.723889  0  0  -0.413948  0  3.958056  0  0  -0.415825  0  3.967578  0  -0.056252  0  -0.24151  -0.412313  0  3.951429  0
C  C86  1  0.63335999  0.78262546  0.91600955  1  0  -0.131054  0  3.752624  0  0  -0.147732  0  3.99645  0  0  -0.150429  0  4.017942  0  -0.072875  0  -0.096114  -0.145853  0  3.981887  0
C  C87  1  0.13337100  0.21737663  0.08399072  1  0  -0.130929  0  3.752748  0  0  -0.147602  0  3.996583  0  0  -0.150299  0  4.018081  0  -0.072679  0  -0.09612  -0.145698  0  3.981988  0
C  C88  1  0.65683123  0.74519520  0.80033860  1  0  -0.112082  0  3.775972  0  0  -0.131946  0  4.021449  0  0  -0.134542  0  4.044364  0  -0.056499  0  -0.094648  -0.130144  0  4.005902  0
C  C89  1  0.15682980  0.25480413  0.19965296  1  0  -0.111974  0  3.775944  0  0  -0.131866  0  4.021441  0  0  -0.13446  0  4.044355  0  -0.056335  0  -0.094594  -0.130051  0  4.005871  0
N  N90  1  0.89251856  0.79274856  0.27931324  1  0  -0.620478  0  3.174624  0  0  -0.585338  0  3.43418  0  0  -0.599406  0  3.430478  0  -1.091609  0  -0.635344  -0.576081  0  3.436764  0
N  N91  1  0.39251438  0.20725077  0.72068850  1  0  -0.620519  0  3.174755  0  0  -0.58538  0  3.434369  0  0  -0.599432  0  3.430629  0  -1.091546  0  -0.635366  -0.576131  0  3.436974  0
N  N92  1  0.60519314  0.86590729  0.56540685  1  0  -0.62985  0  3.165004  0  0  -0.592349  0  3.42263  0  0  -0.607669  0  3.420134  0  -1.13211  0  -0.636767  -0.5823  0  3.42449  0
N  N93  1  0.10519310  0.13408558  0.43458893  1  0  -0.629836  0  3.165149  0  0  -0.592255  0  3.422827  0  0  -0.607582  0  3.420353  0  -1.132113  0  -0.636719  -0.58221  0  3.42469  0
N  N94  1  0.97806874  0.82209806  0.51130183  1  0  -0.461769  0  2.656112  0  0  -0.471055  0  2.961948  0  0  -0.481422  0  2.964498  0  -0.188528  0  -0.276114  -0.464589  0  2.960439  0
N  N95  1  0.47807284  0.17789757  0.48869953  1  0  -0.461556  0  2.656442  0  0  -0.470846  0  2.962273  0  0  -0.481224  0  2.964841  0  -0.1884  0  -0.275975  -0.464382  0  2.960759  0
N  N96  1  0.52150325  0.76102817  0.32411649  1  0  -0.480034  0  2.670097  0  0  -0.489913  0  2.990207  0  0  -0.500155  0  2.991463  0  -0.207193  0  -0.284471  -0.483576  0  2.989774  0
N  N97  1  0.02149907  0.23896839  0.67588203  1  0  -0.479935  0  2.670031  0  0  -0.489837  0  2.990178  0  0  -0.500094  0  2.991446  0  -0.207236  0  -0.284397  -0.483505  0  2.989748  0
N  N98  1  0.09812065  0.89649715  0.54243660  1  0  0.395147  0  4.195353  0  0  0.440412  0  4.487193  0  0  0.452942  0  4.515901  0  -0.320576  0  0.08289  0.432256  0  4.468004  0
N  N99  1  0.59811517  0.10350587  0.45756475  1  0  0.395004  0  4.195667  0  0  0.440284  0  4.487489  0  0  0.452812  0  4.516203  0  -0.32071  0  0.082786  0.43213  0  4.468296  0
N  N100  1  0.22230204  0.96677371  0.57494836  1  0  -0.467725  0  2.570835  0  0  -0.478392  0  2.850452  0  0  -0.486784  0  2.855536  0  -0.170463  0  -0.241756  -0.4732  0  2.847389  0
N  N101  1  0.72229793  0.03322561  0.42505025  1  0  -0.467737  0  2.570656  0  0  -0.47843  0  2.850289  0  0  -0.48682  0  2.855363  0  -0.170438  0  -0.241779  -0.473245  0  2.847232  0
N  N102  1  0.39624326  0.82646145  0.31983570  1  0  0.38199  0  4.205385  0  0  0.420261  0  4.50502  0  0  0.432831  0  4.532543  0  -0.332353  0  0.082179  0.411959  0  4.486713  0
N  N103  1  0.89623501  0.17353418  0.68016174  1  0  0.381953  0  4.205551  0  0  0.420217  0  4.505181  0  0  0.432788  0  4.532706  0  -0.332148  0  0.082075  0.411916  0  4.48687  0
N  N104  1  0.27041702  0.88789034  0.31279676  1  0  -0.416776  0  2.520043  0  0  -0.414119  0  2.765312  0  0  -0.422037  0  2.775196  0  -0.132207  0  -0.203265  -0.408686  0  2.758832  0
N  N105  1  0.77041016  0.11210806  0.68720312  1  0  -0.416846  0  2.520255  0  0  -0.414166  0  2.765487  0  0  -0.422096  0  2.775388  0  -0.132378  0  -0.203246  -0.408725  0  2.758992  0
