# generated using pymatgen
data_CdH10C12S2(N3Cl)2
_symmetry_space_group_name_H-M   'P 1'
_cell_length_a   3.76909954
_cell_length_b   12.95904529
_cell_length_c   16.05672340
_cell_angle_alpha   93.96828128
_cell_angle_beta   96.73836566
_cell_angle_gamma   98.34972157
_symmetry_Int_Tables_number   1
_chemical_formula_structural   CdH10C12S2(N3Cl)2
_chemical_formula_sum   'Cd2 H20 C24 S4 N12 Cl4'
_cell_volume   767.62605895
_cell_formula_units_Z   2
loop_
 _symmetry_equiv_pos_site_id
 _symmetry_equiv_pos_as_xyz
  1  'x, y, z'
loop_
 _atom_site_type_symbol
 _atom_site_label
 _atom_site_symmetry_multiplicity
 _atom_site_fract_x
 _atom_site_fract_y
 _atom_site_fract_z
 _atom_site_occupancy
 _atom_site_hle17_bader_spin_density
 _atom_site_hle17_ddec_charge
 _atom_site_hle17_ddec_spin_density
 _atom_site_hle17_ddec_sum_bond_order
 _atom_site_hle17_magmom
 _atom_site_hse06_10hf_bader_spin_density
 _atom_site_hse06_10hf_ddec_charge
 _atom_site_hse06_10hf_ddec_spin_density
 _atom_site_hse06_10hf_ddec_sum_bond_order
 _atom_site_hse06_10hf_magmom
 _atom_site_hse06_bader_spin_density
 _atom_site_hse06_ddec_charge
 _atom_site_hse06_ddec_spin_density
 _atom_site_hse06_ddec_sum_bond_order
 _atom_site_hse06_magmom
 _atom_site_pbe_bader_spin_density
 _atom_site_pbe_cm5_charge
 _atom_site_pbe_ddec_charge
 _atom_site_pbe_ddec_spin_density
 _atom_site_pbe_ddec_sum_bond_order
 _atom_site_pbe_magmom
Cd  Cd0  1  0.84398118  0.74990840  0.74991397  1  0  0.984253  0  1.915462  0  0  0.82785  0  2.365424  0  0  0.873561  0  2.325281  0  0  0.588516  0.795361  0  2.393133  0
Cd  Cd1  1  0.15602050  0.25009042  0.25008559  1  0  0.984237  0  1.91544  0  0  0.827834  0  2.365417  0  0  0.873544  0  2.325274  0  0  0.588524  0.795343  0  2.39312  0
H  H2  1  0.42865866  0.58174967  0.57330225  1  0  0.113051  0  0.983823  0  0  0.121078  0  1.050176  0  0  0.124507  0  1.048638  0  0  0.094157  0.118637  0  1.051381  0
H  H3  1  0.77185547  0.91782572  0.92609961  1  0  0.11436  0  0.983912  0  0  0.122857  0  1.049524  0  0  0.126251  0  1.048058  0  0  0.095257  0.120446  0  1.050675  0
H  H4  1  0.57133078  0.41824915  0.42669573  1  0  0.113006  0  0.983854  0  0  0.12108  0  1.050156  0  0  0.12451  0  1.048616  0  0  0.094143  0.118638  0  1.051362  0
H  H5  1  0.22815183  0.08217779  0.07390340  1  0  0.114345  0  0.983868  0  0  0.122854  0  1.049485  0  0  0.126246  0  1.04802  0  0  0.095244  0.120446  0  1.050632  0
H  H6  1  0.16161310  0.80979705  0.27184241  1  0  0.308865  0  0.914269  0  0  0.298438  0  0.973452  0  0  0.30384  0  0.970201  0  0  0.300503  0.294612  0  0.975748  0
H  H7  1  0.58020941  0.69040097  0.22788140  1  0  0.309134  0  0.914426  0  0  0.298698  0  0.973622  0  0  0.304117  0  0.970349  0  0  0.300765  0.294866  0  0.975926  0
H  H8  1  0.83838279  0.19020412  0.72815559  1  0  0.308884  0  0.914302  0  0  0.298453  0  0.973484  0  0  0.303854  0  0.970234  0  0  0.300516  0.294627  0  0.975785  0
H  H9  1  0.41978863  0.30959707  0.77211755  1  0  0.30909  0  0.914473  0  0  0.29864  0  0.973704  0  0  0.30406  0  0.970432  0  0  0.300744  0.294811  0  0.976001  0
H  H10  1  0.44580829  0.90665867  0.33390288  1  0  0.314002  0  0.901457  0  0  0.296531  0  0.971776  0  0  0.302002  0  0.967626  0  0  0.294669  0.292666  0  0.974681  0
H  H11  1  0.70556663  0.59344988  0.16588030  1  0  0.314121  0  0.901845  0  0  0.296417  0  0.972148  0  0  0.3019  0  0.967973  0  0  0.294728  0.292553  0  0.975053  0
H  H12  1  0.55419943  0.09334172  0.66609664  1  0  0.314025  0  0.901463  0  0  0.296512  0  0.971823  0  0  0.301984  0  0.967674  0  0  0.294706  0.292651  0  0.974727  0
H  H13  1  0.29443320  0.40654895  0.83411739  1  0  0.314144  0  0.901832  0  0  0.296443  0  0.972125  0  0  0.301928  0  0.967947  0  0  0.294737  0.292578  0  0.975027  0
H  H14  1  0.09158407  0.51661093  0.43103093  1  0  0.087347  0  0.973537  0  0  0.098862  0  1.0361  0  0  0.100847  0  1.035058  0  0  0.097718  0.097397  0  1.036923  0
H  H15  1  0.64324884  0.98328407  0.06840581  1  0  0.088403  0  0.971951  0  0  0.100116  0  1.034362  0  0  0.102155  0  1.033158  0  0  0.098066  0.098612  0  1.035279  0
H  H16  1  0.90839965  0.48338946  0.56896863  1  0  0.087339  0  0.973566  0  0  0.098868  0  1.036109  0  0  0.100853  0  1.035068  0  0  0.097742  0.097403  0  1.036931  0
H  H17  1  0.35675418  0.01671630  0.93159704  1  0  0.088426  0  0.972001  0  0  0.10006  0  1.034486  0  0  0.102094  0  1.033292  0  0  0.098077  0.098563  0  1.035408  0
H  H18  1  0.05506436  0.62756545  0.31551661  1  0  0.103686  0  0.985105  0  0  0.111249  0  1.052908  0  0  0.115223  0  1.051242  0  0  0.092562  0.108426  0  1.054232  0
H  H19  1  0.61215347  0.87256588  0.18408525  1  0  0.102902  0  0.985199  0  0  0.110193  0  1.053273  0  0  0.114151  0  1.05167  0  0  0.092275  0.107318  0  1.05463  0
H  H20  1  0.94492611  0.37243416  0.68448205  1  0  0.103628  0  0.985052  0  0  0.111199  0  1.052855  0  0  0.115175  0  1.05119  0  0  0.092498  0.108373  0  1.054178  0
H  H21  1  0.38784789  0.12743371  0.81591631  1  0  0.10291  0  0.985178  0  0  0.110195  0  1.053263  0  0  0.114153  0  1.05166  0  0  0.09226  0.107323  0  1.054621  0
C  C22  1  0.59905101  0.73503896  0.53183210  1  0  0.21256  0  3.802134  0  0  0.207115  0  4.04752  0  0  0.215597  0  4.068115  0  0  0.105692  0.201537  0  4.033471  0
C  C23  1  0.83266306  0.76478990  0.96786220  1  0  0.21189  0  3.801227  0  0  0.206607  0  4.04651  0  0  0.214997  0  4.067157  0  0  0.104116  0.201095  0  4.032418  0
C  C24  1  0.40093924  0.26495908  0.46816707  1  0  0.212429  0  3.802331  0  0  0.20707  0  4.047561  0  0  0.215545  0  4.068155  0  0  0.105688  0.201491  0  4.033505  0
C  C25  1  0.16734476  0.23521204  0.03213938  1  0  0.211828  0  3.801075  0  0  0.206591  0  4.046394  0  0  0.214976  0  4.067041  0  0  0.104085  0.201081  0  4.032297  0
C  C26  1  0.42017330  0.63087501  0.52122987  1  0  -0.186691  0  3.736553  0  0  -0.210509  0  3.997252  0  0  -0.218979  0  4.018309  0  0  -0.113502  -0.204997  0  3.983068  0
C  C27  1  0.76737634  0.86890763  0.97831648  1  0  -0.190084  0  3.736653  0  0  -0.214526  0  3.997679  0  0  -0.222975  0  4.018815  0  0  -0.11447  -0.209018  0  3.983429  0
C  C28  1  0.57982142  0.36912537  0.47877002  1  0  -0.18659  0  3.736399  0  0  -0.210476  0  3.997075  0  0  -0.21894  0  4.018126  0  0  -0.113465  -0.204962  0  3.982888  0
C  C29  1  0.23263095  0.13109587  0.02168653  1  0  -0.190049  0  3.736543  0  0  -0.214447  0  3.997403  0  0  -0.222896  0  4.018541  0  0  -0.114447  -0.208937  0  3.983149  0
C  C30  1  0.23307176  0.59667377  0.44277577  1  0  -0.003674  0  3.769434  0  0  -0.021133  0  4.024496  0  0  -0.016602  0  4.043882  0  0  -0.082594  -0.023747  0  4.011043  0
C  C31  1  0.69357847  0.90327711  0.05678038  1  0  -0.003369  0  3.768565  0  0  -0.021054  0  4.023618  0  0  -0.016554  0  4.043117  0  0  -0.083083  -0.02365  0  4.010077  0
C  C32  1  0.76691654  0.40332663  0.55722302  1  0  -0.003675  0  3.769393  0  0  -0.02115  0  4.024513  0  0  -0.016619  0  4.043897  0  0  -0.082688  -0.02377  0  4.011065  0
C  C33  1  0.30642996  0.09672483  0.94322182  1  0  -0.003381  0  3.768444  0  0  -0.020999  0  4.023518  0  0  -0.016497  0  4.043014  0  0  -0.083057  -0.023608  0  4.009992  0
C  C34  1  0.21200390  0.66076328  0.37508743  1  0  -0.213047  0  3.728513  0  0  -0.234654  0  3.987604  0  0  -0.243362  0  4.007858  0  0  -0.115821  -0.228973  0  3.974063  0
C  C35  1  0.67680999  0.83931762  0.12455603  1  0  -0.212414  0  3.73019  0  0  -0.232976  0  3.989089  0  0  -0.241731  0  4.009401  0  0  -0.114945  -0.227223  0  3.975508  0
C  C36  1  0.78798095  0.33923555  0.62491132  1  0  -0.213133  0  3.728494  0  0  -0.234745  0  3.987622  0  0  -0.243462  0  4.007875  0  0  -0.115783  -0.229061  0  3.974077  0
C  C37  1  0.32319294  0.16068120  0.87544477  1  0  -0.212356  0  3.730184  0  0  -0.232932  0  3.989048  0  0  -0.241684  0  4.009356  0  0  -0.114886  -0.227182  0  3.975475  0
C  C38  1  0.38257809  0.76411968  0.38293082  1  0  0.258361  0  3.833477  0  0  0.247824  0  4.089631  0  0  0.258074  0  4.10839  0  0  0.09748  0.24084  0  4.076878  0
C  C39  1  0.73647879  0.73596889  0.11682636  1  0  0.259009  0  3.833778  0  0  0.247162  0  4.091591  0  0  0.257468  0  4.110239  0  0  0.09776  0.240183  0  4.078854  0
C  C40  1  0.61741122  0.23587914  0.61706972  1  0  0.258583  0  3.833336  0  0  0.247999  0  4.089498  0  0  0.25826  0  4.108241  0  0  0.097498  0.241013  0  4.076748  0
C  C41  1  0.26353079  0.26403148  0.88317503  1  0  0.258895  0  3.833763  0  0  0.247103  0  4.091559  0  0  0.25741  0  4.110204  0  0  0.097684  0.240125  0  4.078822  0
C  C42  1  0.58578757  0.80137868  0.46301036  1  0  0.071047  0  3.761165  0  0  0.074688  0  4.004061  0  0  0.074803  0  4.024105  0  0  0.101044  0.074443  0  3.990554  0
C  C43  1  0.82309450  0.69865540  0.03684762  1  0  0.071092  0  3.762732  0  0  0.074628  0  4.006326  0  0  0.074873  0  4.026166  0  0  0.101074  0.074277  0  3.992964  0
C  C44  1  0.41420352  0.19862092  0.53698893  1  0  0.070947  0  3.761203  0  0  0.07464  0  4.003988  0  0  0.074759  0  4.024024  0  0  0.101004  0.074395  0  3.990481  0
C  C45  1  0.17691728  0.30134655  0.96315257  1  0  0.071147  0  3.762632  0  0  0.074561  0  4.006349  0  0  0.074806  0  4.02619  0  0  0.101048  0.074212  0  3.992986  0
S  S46  1  0.95153212  0.90515437  0.58034150  1  0  0.459577  0  3.05488  0  0  0.427315  0  3.461557  0  0  0.439535  0  3.466621  0  0  0.365408  0.418044  0  3.458704  0
S  S47  1  0.96862619  0.59477410  0.91962176  1  0  0.458047  0  3.053256  0  0  0.42514  0  3.460128  0  0  0.437371  0  3.465184  0  0  0.363062  0.415861  0  3.457281  0
S  S48  1  0.04847444  0.09484132  0.41965636  1  0  0.459606  0  3.054893  0  0  0.427335  0  3.461585  0  0  0.439558  0  3.466648  0  0  0.36541  0.418064  0  3.458724  0
S  S49  1  0.03137759  0.40522864  0.08037808  1  0  0.458079  0  3.053238  0  0  0.425194  0  3.460105  0  0  0.437421  0  3.465158  0  0  0.363093  0.415913  0  3.457263  0
N  N50  1  0.79899874  0.78663127  0.60209698  1  0  -0.446763  0  3.060067  0  0  -0.383128  0  3.346464  0  0  -0.401077  0  3.360557  0  0  -0.329193  -0.3707  0  3.336711  0
N  N51  1  0.91119644  0.71314827  0.89767795  1  0  -0.445704  0  3.058172  0  0  -0.38193  0  3.344308  0  0  -0.399841  0  3.358478  0  0  -0.32894  -0.369558  0  3.334555  0
N  N52  1  0.20100305  0.21336521  0.39790108  1  0  -0.446624  0  3.06007  0  0  -0.383012  0  3.346442  0  0  -0.400985  0  3.360602  0  0  -0.329116  -0.370585  0  3.336681  0
N  N53  1  0.08880495  0.28685368  0.10232253  1  0  -0.445685  0  3.058062  0  0  -0.381958  0  3.344227  0  0  -0.399861  0  3.358388  0  0  -0.328937  -0.369588  0  3.334475  0
N  N54  1  0.77439742  0.89800730  0.48288210  1  0  -0.371702  0  2.973087  0  0  -0.347305  0  3.278355  0  0  -0.354367  0  3.289302  0  0  -0.309183  -0.341968  0  3.270942  0
N  N55  1  0.89648523  0.60212794  0.01714363  1  0  -0.370557  0  2.973538  0  0  -0.345501  0  3.278141  0  0  -0.35263  0  3.289219  0  0  -0.306693  -0.340122  0  3.270645  0
N  N56  1  0.22560303  0.10199153  0.51711621  1  0  -0.371742  0  2.97311  0  0  -0.347367  0  3.278348  0  0  -0.354427  0  3.28929  0  0  -0.3092  -0.342032  0  3.270937  0
N  N57  1  0.10352197  0.39787401  0.98285733  1  0  -0.370607  0  2.973499  0  0  -0.345509  0  3.278111  0  0  -0.352637  0  3.289187  0  0  -0.306698  -0.340129  0  3.270615  0
N  N58  1  0.37529370  0.82845616  0.31792239  1  0  -0.641389  0  3.104121  0  0  -0.606823  0  3.334015  0  0  -0.624465  0  3.333794  0  0  -0.588262  -0.594241  0  3.333795  0
N  N59  1  0.72929165  0.67165870  0.18184036  1  0  -0.641433  0  3.104077  0  0  -0.60607  0  3.334876  0  0  -0.623801  0  3.334714  0  0  -0.58815  -0.593447  0  3.334613  0
N  N60  1  0.62470259  0.17154345  0.68207675  1  0  -0.641444  0  3.104196  0  0  -0.606804  0  3.334122  0  0  -0.624448  0  3.333898  0  0  -0.58827  -0.594225  0  3.33391  0
N  N61  1  0.27071263  0.32834012  0.81815912  1  0  -0.641408  0  3.104073  0  0  -0.606048  0  3.334835  0  0  -0.623781  0  3.334673  0  0  -0.588137  -0.593425  0  3.334569  0
Cl  Cl62  1  0.26242050  0.60465066  0.73234833  1  0  -0.557403  0  0.980604  0  0  -0.493443  0  1.258139  0  0  -0.512309  0  1.238621  0  0  -0.304655  -0.479611  0  1.271777  0
Cl  Cl63  1  0.42464005  0.89522828  0.76745778  1  0  -0.557469  0  0.979191  0  0  -0.493727  0  1.256878  0  0  -0.512588  0  1.237345  0  0  -0.305353  -0.47992  0  1.270576  0
Cl  Cl64  1  0.73757982  0.39534815  0.26765254  1  0  -0.557401  0  0.980576  0  0  -0.493463  0  1.258153  0  0  -0.512322  0  1.238623  0  0  -0.304662  -0.479632  0  1.271791  0
Cl  Cl65  1  0.57535924  0.10476976  0.23254242  1  0  -0.55746  0  0.979184  0  0  -0.493712  0  1.256877  0  0  -0.512568  0  1.237341  0  0  -0.305362  -0.479912  0  1.270569  0
