# generated using pymatgen
data_UH14(C3O2)3
_symmetry_space_group_name_H-M   'P 1'
_cell_length_a   4.39311485
_cell_length_b   10.89121447
_cell_length_c   11.24307656
_cell_angle_alpha   94.94996608
_cell_angle_beta   90.00101524
_cell_angle_gamma   89.99869669
_symmetry_Int_Tables_number   1
_chemical_formula_structural   UH14(C3O2)3
_chemical_formula_sum   'U2 H28 C18 O12'
_cell_volume   535.93395618
_cell_formula_units_Z   2
loop_
 _symmetry_equiv_pos_site_id
 _symmetry_equiv_pos_as_xyz
  1  'x, y, z'
loop_
 _atom_site_type_symbol
 _atom_site_label
 _atom_site_symmetry_multiplicity
 _atom_site_fract_x
 _atom_site_fract_y
 _atom_site_fract_z
 _atom_site_occupancy
 _atom_site_hle17_bader_spin_density
 _atom_site_hle17_ddec_charge
 _atom_site_hle17_ddec_spin_density
 _atom_site_hle17_ddec_sum_bond_order
 _atom_site_hle17_magmom
 _atom_site_hse06_10hf_bader_spin_density
 _atom_site_hse06_10hf_ddec_charge
 _atom_site_hse06_10hf_ddec_spin_density
 _atom_site_hse06_10hf_ddec_sum_bond_order
 _atom_site_hse06_10hf_magmom
 _atom_site_hse06_bader_spin_density
 _atom_site_hse06_ddec_charge
 _atom_site_hse06_ddec_spin_density
 _atom_site_hse06_ddec_sum_bond_order
 _atom_site_hse06_magmom
 _atom_site_pbe_bader_spin_density
 _atom_site_pbe_cm5_charge
 _atom_site_pbe_ddec_charge
 _atom_site_pbe_ddec_spin_density
 _atom_site_pbe_ddec_sum_bond_order
 _atom_site_pbe_magmom
U  U0  1  0.08060051  0.75001331  0.49998749  1  0  2.457913  0  4.059971  0  0  2.516058  0  4.701059  0  0  2.625964  0  4.664879  0  0  2.205177  2.43836  0  4.727198  0
U  U1  1  0.91939985  0.24999748  0.50000571  1  0  2.457955  0  4.059902  0  0  2.516073  0  4.701038  0  0  2.626081  0  4.664723  0  0  2.20514  2.438503  0  4.72699  0
H  H2  1  0.38716869  0.93152127  0.81630514  1  0  0.12145  0  0.935756  0  0  0.13875  0  0.992962  0  0  0.140992  0  0.992452  0  0  0.112245  0.137098  0  0.993464  0
H  H3  1  0.38716677  0.56847406  0.18368614  1  0  0.121449  0  0.935768  0  0  0.138717  0  0.992997  0  0  0.140952  0  0.992501  0  0  0.112248  0.137066  0  0.993495  0
H  H4  1  0.61282939  0.06847659  0.18369228  1  0  0.121476  0  0.935776  0  0  0.138777  0  0.99297  0  0  0.141021  0  0.992462  0  0  0.112253  0.137127  0  0.99347  0
H  H5  1  0.61283358  0.43152657  0.81631151  1  0  0.121475  0  0.935791  0  0  0.138726  0  0.993017  0  0  0.140963  0  0.992521  0  0  0.112254  0.137076  0  0.993515  0
H  H6  1  0.41116759  0.03474174  0.70736685  1  0  0.129514  0  0.911761  0  0  0.14509  0  0.966997  0  0  0.147264  0  0.965763  0  0  0.123154  0.14369  0  0.967875  0
H  H7  1  0.41118018  0.46525858  0.29263173  1  0  0.129454  0  0.911681  0  0  0.145007  0  0.966953  0  0  0.147194  0  0.96569  0  0  0.123122  0.143606  0  0.96784  0
H  H8  1  0.58883732  0.96525520  0.29263137  1  0  0.129536  0  0.911803  0  0  0.145099  0  0.967045  0  0  0.14728  0  0.965799  0  0  0.123149  0.143701  0  0.967918  0
H  H9  1  0.58881335  0.53474298  0.70736422  1  0  0.129457  0  0.911694  0  0  0.145009  0  0.96695  0  0  0.147197  0  0.965686  0  0  0.123103  0.143604  0  0.967843  0
H  H10  1  0.92310939  0.10950561  0.79093730  1  0  0.075722  0  0.950424  0  0  0.09434  0  1.011902  0  0  0.095212  0  1.012178  0  0  0.096746  0.093697  0  1.011885  0
H  H11  1  0.92311783  0.39048474  0.20906751  1  0  0.075607  0  0.950548  0  0  0.094268  0  1.012011  0  0  0.095126  0  1.012307  0  0  0.096711  0.093629  0  1.011995  0
H  H12  1  0.07688641  0.89049133  0.20906091  1  0  0.075679  0  0.950474  0  0  0.094358  0  1.011905  0  0  0.095207  0  1.012216  0  0  0.096723  0.093714  0  1.011892  0
H  H13  1  0.07688253  0.60951771  0.79093564  1  0  0.075664  0  0.950503  0  0  0.094295  0  1.012023  0  0  0.095144  0  1.012334  0  0  0.096742  0.093678  0  1.011972  0
H  H14  1  0.89316570  0.00678368  0.90327191  1  0  0.051701  0  0.953975  0  0  0.070075  0  1.022381  0  0  0.071113  0  1.02186  0  0  0.084515  0.069235  0  1.022886  0
H  H15  1  0.89317918  0.49320417  0.09672803  1  0  0.051769  0  0.953858  0  0  0.0701  0  1.022342  0  0  0.071136  0  1.021825  0  0  0.084504  0.069255  0  1.022855  0
H  H16  1  0.10683238  0.99321417  0.09672817  1  0  0.051748  0  0.953917  0  0  0.070086  0  1.022398  0  0  0.071129  0  1.021871  0  0  0.084504  0.069242  0  1.022909  0
H  H17  1  0.10682118  0.50679829  0.90327156  1  0  0.051798  0  0.95386  0  0  0.070121  0  1.022351  0  0  0.071152  0  1.021842  0  0  0.08451  0.069275  0  1.022868  0
H  H18  1  0.42889167  0.20977470  0.86259293  1  0  0.06042  0  0.934636  0  0  0.082248  0  0.992347  0  0  0.082368  0  0.993624  0  0  0.089521  0.082131  0  0.991469  0
H  H19  1  0.42890704  0.29022452  0.13741102  1  0  0.060471  0  0.934668  0  0  0.082325  0  0.992342  0  0  0.082445  0  0.993617  0  0  0.08954  0.082196  0  0.991485  0
H  H20  1  0.57110414  0.79022315  0.13740804  1  0  0.060417  0  0.93464  0  0  0.082252  0  0.99233  0  0  0.082373  0  0.993604  0  0  0.089509  0.082136  0  0.991453  0
H  H21  1  0.57109787  0.70977517  0.86259100  1  0  0.060443  0  0.934627  0  0  0.082284  0  0.992329  0  0  0.082402  0  0.993601  0  0  0.089531  0.082167  0  0.991452  0
H  H22  1  0.41352983  0.11146075  0.97803525  1  0  0.054628  0  0.951651  0  0  0.075799  0  1.014153  0  0  0.075647  0  1.016032  0  0  0.085597  0.075806  0  1.012964  0
H  H23  1  0.41352758  0.38853584  0.02196658  1  0  0.054611  0  0.951628  0  0  0.075795  0  1.014114  0  0  0.075661  0  1.015967  0  0  0.085626  0.075802  0  1.012917  0
H  H24  1  0.58647052  0.88853801  0.02196757  1  0  0.054618  0  0.951633  0  0  0.075788  0  1.014116  0  0  0.075636  0  1.015995  0  0  0.085636  0.075793  0  1.012927  0
H  H25  1  0.58647505  0.61146293  0.97803358  1  0  0.054574  0  0.951645  0  0  0.075781  0  1.014108  0  0  0.075628  0  1.015983  0  0  0.085603  0.075788  0  1.012916  0
H  H26  1  0.91705711  0.30016376  0.94268708  1  0  0.058427  0  0.948152  0  0  0.07833  0  1.012703  0  0  0.079199  0  1.012874  0  0  0.085547  0.077571  0  1.012751  0
H  H27  1  0.91706481  0.19982572  0.05731495  1  0  0.058403  0  0.948171  0  0  0.07832  0  1.012703  0  0  0.079184  0  1.012878  0  0  0.085531  0.077554  0  1.012765  0
H  H28  1  0.08294098  0.69983594  0.05731138  1  0  0.058465  0  0.94814  0  0  0.078375  0  1.012692  0  0  0.079244  0  1.012861  0  0  0.085566  0.07761  0  1.01275  0
H  H29  1  0.08294010  0.80017398  0.94268351  1  0  0.058495  0  0.948143  0  0  0.07841  0  1.012685  0  0  0.079266  0  1.01287  0  0  0.085554  0.077643  0  1.012744  0
C  C30  1  0.70991062  0.88487751  0.68262538  1  0  0.747525  0  3.732602  0  0  0.712186  0  4.035598  0  0  0.751497  0  4.022812  0  0  0.239672  0.685102  0  4.04317  0
C  C31  1  0.70991673  0.61512699  0.31737160  1  0  0.747872  0  3.732121  0  0  0.712226  0  4.035599  0  0  0.75152  0  4.022846  0  0  0.239675  0.685162  0  4.043145  0
C  C32  1  0.29009656  0.11512125  0.31737656  1  0  0.747461  0  3.732665  0  0  0.712131  0  4.035648  0  0  0.751429  0  4.022898  0  0  0.23967  0.685059  0  4.043218  0
C  C33  1  0.29008363  0.38487362  0.68262961  1  0  0.747907  0  3.732062  0  0  0.71226  0  4.035507  0  0  0.751556  0  4.022761  0  0  0.239697  0.685204  0  4.043048  0
C  C34  1  0.55270243  0.98036197  0.76411324  1  0  -0.274258  0  3.669681  0  0  -0.308937  0  3.908626  0  0  -0.314942  0  3.915101  0  0  -0.15366  -0.304852  0  3.90419  0
C  C35  1  0.55271020  0.51963651  0.23588479  1  0  -0.274385  0  3.669461  0  0  -0.308898  0  3.90854  0  0  -0.314892  0  3.915018  0  0  -0.153675  -0.304813  0  3.904096  0
C  C36  1  0.44729565  0.01963495  0.23588764  1  0  -0.274346  0  3.669788  0  0  -0.30897  0  3.908709  0  0  -0.314969  0  3.915188  0  0  -0.153681  -0.304884  0  3.904264  0
C  C37  1  0.44728561  0.48036503  0.76411650  1  0  -0.274474  0  3.669657  0  0  -0.308903  0  3.908617  0  0  -0.314899  0  3.915098  0  0  -0.153667  -0.304829  0  3.904175  0
C  C38  1  0.75908482  0.06289803  0.84534777  1  0  -0.083018  0  3.692132  0  0  -0.129694  0  3.955814  0  0  -0.12968  0  3.969447  0  0  -0.165569  -0.129502  0  3.946301  0
C  C39  1  0.75909271  0.43709283  0.15465151  1  0  -0.082812  0  3.692057  0  0  -0.129577  0  3.955907  0  0  -0.129542  0  3.96951  0  0  -0.165443  -0.129386  0  3.946388  0
C  C40  1  0.24091326  0.93709890  0.15465134  1  0  -0.082955  0  3.69207  0  0  -0.129764  0  3.955906  0  0  -0.129735  0  3.96953  0  0  -0.165513  -0.129572  0  3.946391  0
C  C41  1  0.24090538  0.56290779  0.84534793  1  0  -0.082905  0  3.692121  0  0  -0.12969  0  3.956015  0  0  -0.12965  0  3.969617  0  0  -0.165503  -0.12951  0  3.94649  0
C  C42  1  0.57346613  0.15859021  0.92156505  1  0  -0.103087  0  3.681559  0  0  -0.142134  0  3.944189  0  0  -0.143201  0  3.959847  0  0  -0.164767  -0.141191  0  3.933206  0
C  C43  1  0.57346911  0.34140409  0.07843502  1  0  -0.103254  0  3.681861  0  0  -0.142305  0  3.944538  0  0  -0.143376  0  3.960185  0  0  -0.164894  -0.141352  0  3.933552  0
C  C44  1  0.42653423  0.84140949  0.07843519  1  0  -0.103109  0  3.681626  0  0  -0.142077  0  3.944216  0  0  -0.143144  0  3.959875  0  0  -0.164805  -0.141132  0  3.93323  0
C  C45  1  0.42653353  0.65859376  0.92156506  1  0  -0.103091  0  3.681672  0  0  -0.142116  0  3.94434  0  0  -0.143171  0  3.959976  0  0  -0.164825  -0.141176  0  3.933359  0
C  C46  1  0.76578902  0.24999862  0.00000041  1  0  -0.111387  0  3.702234  0  0  -0.15568  0  3.968021  0  0  -0.156765  0  3.982795  0  0  -0.169255  -0.154666  0  3.957691  0
C  C47  1  0.23421134  0.75000016  0.99999797  1  0  -0.111541  0  3.70224  0  0  -0.155893  0  3.968089  0  0  -0.15697  0  3.982855  0  0  -0.169289  -0.154874  0  3.957763  0
O  O48  1  0.07635643  0.88825015  0.42351976  1  0  -0.671628  0  1.613579  0  0  -0.68038  0  1.913176  0  0  -0.701341  0  1.899822  0  0  -0.743286  -0.667929  0  1.923043  0
O  O49  1  0.07639273  0.61177372  0.57645763  1  0  -0.671404  0  1.61349  0  0  -0.680082  0  1.912945  0  0  -0.701072  0  1.899652  0  0  -0.743085  -0.667633  0  1.922818  0
O  O50  1  0.92362572  0.11174584  0.57648372  1  0  -0.671672  0  1.61306  0  0  -0.680444  0  1.912664  0  0  -0.701429  0  1.899285  0  0  -0.743098  -0.668014  0  1.922503  0
O  O51  1  0.92360763  0.38822964  0.42354826  1  0  -0.671388  0  1.61392  0  0  -0.680068  0  1.913432  0  0  -0.701081  0  1.900128  0  0  -0.743236  -0.667649  0  1.92328  0
O  O52  1  0.98961749  0.85950659  0.69493367  1  0  -0.609171  0  1.998521  0  0  -0.589245  0  2.257955  0  0  -0.623294  0  2.254657  0  0  -0.331769  -0.564624  0  2.25896  0
O  O53  1  0.98962160  0.64048999  0.30505833  1  0  -0.609247  0  1.998461  0  0  -0.589198  0  2.258019  0  0  -0.623242  0  2.254738  0  0  -0.331737  -0.56458  0  2.259009  0
O  O54  1  0.01037832  0.14049311  0.30506657  1  0  -0.609153  0  1.998446  0  0  -0.589227  0  2.257868  0  0  -0.623283  0  2.254581  0  0  -0.331788  -0.56462  0  2.258864  0
O  O55  1  0.01038103  0.35950878  0.69494271  1  0  -0.609226  0  1.998422  0  0  -0.589223  0  2.258046  0  0  -0.623277  0  2.254759  0  0  -0.331761  -0.564619  0  2.259029  0
O  O56  1  0.56989575  0.82475680  0.59406664  1  0  -0.731584  0  2.075379  0  0  -0.726714  0  2.365825  0  0  -0.765528  0  2.362093  0  0  -0.375997  -0.698173  0  2.366616  0
O  O57  1  0.56987063  0.67526372  0.40591654  1  0  -0.731715  0  2.074978  0  0  -0.726784  0  2.36567  0  0  -0.76558  0  2.361927  0  0  -0.375996  -0.698251  0  2.366459  0
O  O58  1  0.43011371  0.17524566  0.40593473  1  0  -0.731577  0  2.075479  0  0  -0.726695  0  2.365916  0  0  -0.765535  0  2.362208  0  0  -0.375991  -0.698185  0  2.366704  0
O  O59  1  0.43012290  0.32473967  0.59408224  1  0  -0.731716  0  2.074907  0  0  -0.726765  0  2.36558  0  0  -0.765584  0  2.361838  0  0  -0.375983  -0.698263  0  2.366365  0
