# generated using pymatgen
data_PrCdH7C5SN2O11
_symmetry_space_group_name_H-M   'P 1'
_cell_length_a   8.73690471
_cell_length_b   10.61441007
_cell_length_c   13.90319848
_cell_angle_alpha   89.99999221
_cell_angle_beta   101.62991265
_cell_angle_gamma   89.99991423
_symmetry_Int_Tables_number   1
_chemical_formula_structural   PrCdH7C5SN2O11
_chemical_formula_sum   'Pr4 Cd4 H28 C20 S4 N8 O44'
_cell_volume   1262.87214286
_cell_formula_units_Z   4
loop_
 _symmetry_equiv_pos_site_id
 _symmetry_equiv_pos_as_xyz
  1  'x, y, z'
loop_
 _atom_site_type_symbol
 _atom_site_label
 _atom_site_symmetry_multiplicity
 _atom_site_fract_x
 _atom_site_fract_y
 _atom_site_fract_z
 _atom_site_occupancy
 _atom_site_hle17_bader_spin_density
 _atom_site_hle17_ddec_charge
 _atom_site_hle17_ddec_spin_density
 _atom_site_hle17_ddec_sum_bond_order
 _atom_site_hle17_magmom
 _atom_site_hse06_10hf_bader_spin_density
 _atom_site_hse06_10hf_ddec_charge
 _atom_site_hse06_10hf_ddec_spin_density
 _atom_site_hse06_10hf_ddec_sum_bond_order
 _atom_site_hse06_10hf_magmom
 _atom_site_hse06_bader_spin_density
 _atom_site_hse06_ddec_charge
 _atom_site_hse06_ddec_spin_density
 _atom_site_hse06_ddec_sum_bond_order
 _atom_site_hse06_magmom
 _atom_site_pbe_bader_spin_density
 _atom_site_pbe_cm5_charge
 _atom_site_pbe_ddec_charge
 _atom_site_pbe_ddec_spin_density
 _atom_site_pbe_ddec_sum_bond_order
 _atom_site_pbe_magmom
Pr  Pr0  1  0.93498128  0.89150727  0.11127138  1  0  2.388412  0  1.593796  0  0  2.278497  0  1.961605  0  0  2.313417  0  1.919702  0  0  1.516989  2.252936  0  1.991233  0
Pr  Pr1  1  0.06502056  0.39150637  0.38873135  1  0  2.388369  0  1.593758  0  0  2.278448  0  1.961558  0  0  2.313367  0  1.919659  0  0  1.516969  2.252887  0  1.991187  0
Pr  Pr2  1  0.06501843  0.10849201  0.88872880  1  0  2.388374  0  1.593789  0  0  2.278456  0  1.961594  0  0  2.313378  0  1.919693  0  0  1.516967  2.252891  0  1.991218  0
Pr  Pr3  1  0.93498034  0.60849385  0.61127114  1  0  2.388376  0  1.593766  0  0  2.278456  0  1.961567  0  0  2.313375  0  1.919667  0  0  1.516959  2.252894  0  1.991194  0
Cd  Cd4  1  0.61693152  0.48698098  0.13437675  1  0  1.20705  0  1.645725  0  0  1.011048  0  2.093734  0  0  1.065833  0  2.041342  0  0  0.816132  0.971366  0  2.129934  0
Cd  Cd5  1  0.38306776  0.98698063  0.36562135  1  0  1.207066  0  1.645749  0  0  1.011042  0  2.093765  0  0  1.065832  0  2.041374  0  0  0.81612  0.971355  0  2.129966  0
Cd  Cd6  1  0.38306701  0.51301925  0.86562186  1  0  1.207073  0  1.645745  0  0  1.011061  0  2.093784  0  0  1.06586  0  2.041367  0  0  0.816127  0.971373  0  2.129983  0
Cd  Cd7  1  0.61693195  0.01301960  0.63437812  1  0  1.207093  0  1.645698  0  0  1.011077  0  2.093721  0  0  1.065865  0  2.041326  0  0  0.81613  0.971387  0  2.129918  0
H  H8  1  0.62399633  0.26426769  0.33590897  1  0  0.094271  0  0.954511  0  0  0.101982  0  1.019584  0  0  0.10461  0  1.016268  0  0  0.132319  0.10003  0  1.022064  0
H  H9  1  0.37600338  0.76426738  0.16408993  1  0  0.094257  0  0.954483  0  0  0.101972  0  1.019557  0  0  0.104598  0  1.016243  0  0  0.132319  0.10003  0  1.022025  0
H  H10  1  0.37600453  0.73573254  0.66408921  1  0  0.094272  0  0.95448  0  0  0.101967  0  1.019575  0  0  0.104593  0  1.016261  0  0  0.132318  0.100024  0  1.022042  0
H  H11  1  0.62399749  0.23573190  0.83590969  1  0  0.094291  0  0.954485  0  0  0.101991  0  1.019569  0  0  0.104619  0  1.016253  0  0  0.13232  0.100037  0  1.022048  0
H  H12  1  0.01470171  0.89670264  0.34325870  1  0  0.444294  0  0.847605  0  0  0.414152  0  0.908517  0  0  0.424739  0  0.893065  0  0  0.305134  0.406689  0  0.919426  0
H  H13  1  0.98530010  0.39670254  0.15674187  1  0  0.444287  0  0.847616  0  0  0.414147  0  0.908525  0  0  0.424731  0  0.893076  0  0  0.30513  0.406682  0  0.919436  0
H  H14  1  0.98529917  0.10329758  0.65674163  1  0  0.444275  0  0.847638  0  0  0.414134  0  0.908549  0  0  0.424719  0  0.8931  0  0  0.305116  0.40667  0  0.919459  0
H  H15  1  0.01470195  0.60329769  0.84325861  1  0  0.44431  0  0.847585  0  0  0.414173  0  0.908488  0  0  0.424758  0  0.893039  0  0  0.305134  0.406709  0  0.919398  0
H  H16  1  0.82952306  0.90587646  0.31942755  1  0  0.426443  0  0.83894  0  0  0.402787  0  0.90223  0  0  0.410293  0  0.891425  0  0  0.319485  0.397484  0  0.909901  0
H  H17  1  0.17047873  0.40587736  0.18057302  1  0  0.426437  0  0.839056  0  0  0.402778  0  0.902269  0  0  0.410284  0  0.891464  0  0  0.319485  0.397474  0  0.909939  0
H  H18  1  0.17047782  0.09412376  0.68057278  1  0  0.42642  0  0.838982  0  0  0.402762  0  0.902268  0  0  0.410268  0  0.891463  0  0  0.319466  0.397457  0  0.90994  0
H  H19  1  0.82952215  0.59412381  0.81942731  1  0  0.426426  0  0.83897  0  0  0.40277  0  0.902256  0  0  0.410276  0  0.891451  0  0  0.319474  0.397465  0  0.909928  0
H  H20  1  0.01888531  0.62146456  0.17460732  1  0  0.449198  0  0.820384  0  0  0.426965  0  0.874306  0  0  0.436746  0  0.85972  0  0  0.318597  0.419805  0  0.885035  0
H  H21  1  0.98111469  0.12146443  0.32539306  1  0  0.449074  0  0.820576  0  0  0.426867  0  0.874431  0  0  0.436648  0  0.859843  0  0  0.318565  0.41971  0  0.885152  0
H  H22  1  0.98111324  0.37853566  0.82539272  1  0  0.449316  0  0.820309  0  0  0.42708  0  0.874167  0  0  0.436861  0  0.859581  0  0  0.318618  0.419919  0  0.884897  0
H  H23  1  0.01888618  0.87853580  0.67460655  1  0  0.449227  0  0.820398  0  0  0.426993  0  0.874278  0  0  0.436774  0  0.859691  0  0  0.318599  0.419831  0  0.885008  0
H  H24  1  0.05875540  0.68374684  0.27764089  1  0  0.448066  0  0.854785  0  0  0.415131  0  0.921136  0  0  0.425789  0  0.905604  0  0  0.303482  0.407584  0  0.932137  0
H  H25  1  0.94124682  0.18374772  0.22236047  1  0  0.448058  0  0.854819  0  0  0.415195  0  0.92106  0  0  0.425854  0  0.905521  0  0  0.303491  0.407648  0  0.932062  0
H  H26  1  0.94124314  0.31625339  0.72235987  1  0  0.44809  0  0.854751  0  0  0.415155  0  0.9211  0  0  0.425813  0  0.905569  0  0  0.303488  0.40761  0  0.932099  0
H  H27  1  0.05875639  0.81625345  0.77763943  1  0  0.448081  0  0.854777  0  0  0.415191  0  0.921061  0  0  0.425854  0  0.905519  0  0  0.303491  0.407646  0  0.93206  0
H  H28  1  0.55362560  0.88517178  0.06908281  1  0  0.451824  0  0.8324  0  0  0.424315  0  0.889755  0  0  0.433322  0  0.876655  0  0  0.307608  0.417928  0  0.899053  0
H  H29  1  0.44637389  0.38517229  0.43091676  1  0  0.451815  0  0.832414  0  0  0.424308  0  0.889766  0  0  0.433314  0  0.876666  0  0  0.307611  0.41792  0  0.899063  0
H  H30  1  0.44637410  0.11482750  0.93091666  1  0  0.45183  0  0.832394  0  0  0.424324  0  0.889746  0  0  0.43333  0  0.876647  0  0  0.307621  0.417936  0  0.899043  0
H  H31  1  0.55362582  0.61482699  0.56908343  1  0  0.451844  0  0.832374  0  0  0.424332  0  0.889733  0  0  0.433337  0  0.876637  0  0  0.307624  0.417945  0  0.899031  0
H  H32  1  0.62097845  0.02341872  0.08263719  1  0  0.435664  0  0.854957  0  0  0.40558  0  0.918316  0  0  0.415494  0  0.903712  0  0  0.304572  0.39855  0  0.928672  0
H  H33  1  0.37902174  0.52341836  0.41736250  1  0  0.435645  0  0.855  0  0  0.40555  0  0.918366  0  0  0.415464  0  0.903764  0  0  0.30456  0.398519  0  0.928724  0
H  H34  1  0.37902126  0.97658151  0.91736299  1  0  0.435571  0  0.855085  0  0  0.405508  0  0.918423  0  0  0.415423  0  0.903818  0  0  0.304543  0.398477  0  0.928779  0
H  H35  1  0.62098030  0.47658187  0.58263726  1  0  0.435672  0  0.854967  0  0  0.40559  0  0.918305  0  0  0.415504  0  0.903702  0  0  0.304572  0.39856  0  0.928662  0
C  C36  1  0.52866828  0.24738221  0.27389929  1  0  0.268005  0  3.677992  0  0  0.211705  0  3.95459  0  0  0.225604  0  3.967726  0  0  0.145992  0.202403  0  3.945337  0
C  C37  1  0.47133147  0.74738084  0.22610105  1  0  0.2681  0  3.677877  0  0  0.211804  0  3.954459  0  0  0.225701  0  3.967598  0  0  0.146003  0.202491  0  3.945206  0
C  C38  1  0.47133142  0.75261801  0.72610018  1  0  0.268129  0  3.677886  0  0  0.211846  0  3.954476  0  0  0.225743  0  3.967613  0  0  0.146038  0.202533  0  3.94522  0
C  C39  1  0.52866824  0.25261750  0.77389914  1  0  0.267981  0  3.678018  0  0  0.2117  0  3.9546  0  0  0.225597  0  3.96774  0  0  0.145969  0.202396  0  3.945347  0
C  C40  1  0.33094684  0.15900626  0.17765566  1  0  -0.000987  0  3.748701  0  0  -0.005773  0  3.999999  0  0  -0.008719  0  4.021021  0  0  0.078363  -0.004034  0  3.986019  0
C  C41  1  0.66905307  0.65900462  0.32234255  1  0  -0.00096  0  3.74872  0  0  -0.00578  0  4.000149  0  0  -0.008718  0  4.021167  0  0  0.078397  -0.004039  0  3.986163  0
C  C42  1  0.66905052  0.84099397  0.82234208  1  0  -0.001023  0  3.748796  0  0  -0.005788  0  4.000088  0  0  -0.008736  0  4.02112  0  0  0.078393  -0.004051  0  3.986105  0
C  C43  1  0.33094780  0.34099466  0.67765778  1  0  -0.001029  0  3.748777  0  0  -0.005813  0  4.000171  0  0  -0.008759  0  4.021197  0  0  0.078396  -0.004067  0  3.986177  0
C  C44  1  0.37350393  0.26748330  0.13109787  1  0  -0.01961  0  3.761017  0  0  -0.02598  0  4.017807  0  0  -0.027448  0  4.037696  0  0  0.074437  -0.025194  0  4.004523  0
C  C45  1  0.62649460  0.76748265  0.36889943  1  0  -0.01956  0  3.76104  0  0  -0.025947  0  4.017893  0  0  -0.02742  0  4.037783  0  0  0.074391  -0.02516  0  4.004605  0
C  C46  1  0.62649343  0.73251693  0.86890059  1  0  -0.019621  0  3.761076  0  0  -0.025996  0  4.017859  0  0  -0.027466  0  4.037753  0  0  0.074429  -0.025212  0  4.004573  0
C  C47  1  0.37350628  0.23251664  0.63110090  1  0  -0.019575  0  3.761109  0  0  -0.025972  0  4.017969  0  0  -0.027441  0  4.037861  0  0  0.074384  -0.025188  0  4.00468  0
C  C48  1  0.21442476  0.06018879  0.14876843  1  0  0.68819  0  3.892592  0  0  0.638896  0  4.187011  0  0  0.675353  0  4.174272  0  0  0.219441  0.614099  0  4.19522  0
C  C49  1  0.78557535  0.56018606  0.35123125  1  0  0.688281  0  3.892423  0  0  0.638898  0  4.187013  0  0  0.675353  0  4.174269  0  0  0.219481  0.614102  0  4.195221  0
C  C50  1  0.78557494  0.93981238  0.85123176  1  0  0.688331  0  3.892382  0  0  0.638995  0  4.186865  0  0  0.675451  0  4.174131  0  0  0.219481  0.614198  0  4.195073  0
C  C51  1  0.21442436  0.43981323  0.64876822  1  0  0.688312  0  3.892393  0  0  0.638913  0  4.186998  0  0  0.67537  0  4.174258  0  0  0.219462  0.614115  0  4.195204  0
C  C52  1  0.31505828  0.32831386  0.03471716  1  0  0.687051  0  3.913192  0  0  0.635026  0  4.210106  0  0  0.671431  0  4.198138  0  0  0.223673  0.610153  0  4.217656  0
C  C53  1  0.68494131  0.82831406  0.46528171  1  0  0.686992  0  3.913209  0  0  0.634983  0  4.210117  0  0  0.671388  0  4.198149  0  0  0.223654  0.610108  0  4.217664  0
C  C54  1  0.68493791  0.67168637  0.96528116  1  0  0.687078  0  3.913154  0  0  0.635076  0  4.210032  0  0  0.671482  0  4.198064  0  0  0.223648  0.610205  0  4.217581  0
C  C55  1  0.31505607  0.17168617  0.53471819  1  0  0.687005  0  3.913249  0  0  0.634976  0  4.210196  0  0  0.671382  0  4.198228  0  0  0.223646  0.610104  0  4.217745  0
S  S56  1  0.78602329  0.21947473  0.04302296  1  0  1.64835  0  5.753314  0  0  1.520511  0  6.300964  0  0  1.577262  0  6.26213  0  0  0.597667  1.481183  0  6.326901  0
S  S57  1  0.21397770  0.71947363  0.45697825  1  0  1.648519  0  5.752963  0  0  1.52067  0  6.30062  0  0  1.577426  0  6.261784  0  0  0.597736  1.48134  0  6.326558  0
S  S58  1  0.21397643  0.78052550  0.95697795  1  0  1.648471  0  5.753139  0  0  1.520641  0  6.300765  0  0  1.577397  0  6.26193  0  0  0.597757  1.481314  0  6.326703  0
S  S59  1  0.78602318  0.28052565  0.54302208  1  0  1.648372  0  5.753277  0  0  1.520538  0  6.300931  0  0  1.577293  0  6.262097  0  0  0.597687  1.481211  0  6.326867  0
N  N60  1  0.49837533  0.32079565  0.19365533  1  0  -0.424069  0  3.235349  0  0  -0.356495  0  3.520783  0  0  -0.37808  0  3.538011  0  0  -0.359982  -0.340983  0  3.508316  0
N  N61  1  0.50162311  0.82079610  0.30634340  1  0  -0.424155  0  3.235404  0  0  -0.35657  0  3.520859  0  0  -0.378155  0  3.538087  0  0  -0.359964  -0.341059  0  3.508395  0
N  N62  1  0.50162203  0.67920458  0.80634313  1  0  -0.424169  0  3.235458  0  0  -0.356601  0  3.520904  0  0  -0.378188  0  3.538131  0  0  -0.36002  -0.341091  0  3.50844  0
N  N63  1  0.49837543  0.17920412  0.69365664  1  0  -0.424102  0  3.235471  0  0  -0.356517  0  3.520914  0  0  -0.378103  0  3.538144  0  0  -0.359952  -0.341007  0  3.508445  0
N  N64  1  0.42894185  0.14983281  0.26831572  1  0  -0.432715  0  3.201844  0  0  -0.359846  0  3.485479  0  0  -0.381744  0  3.501911  0  0  -0.354018  -0.34415  0  3.47357  0
N  N65  1  0.57105692  0.64983037  0.23168378  1  0  -0.432811  0  3.201849  0  0  -0.35991  0  3.485478  0  0  -0.381811  0  3.501909  0  0  -0.354049  -0.344218  0  3.473577  0
N  N66  1  0.57105785  0.85016836  0.73168302  1  0  -0.432777  0  3.201924  0  0  -0.359912  0  3.485551  0  0  -0.381809  0  3.501985  0  0  -0.354055  -0.344219  0  3.473648  0
N  N67  1  0.42894279  0.35016797  0.76831641  1  0  -0.432746  0  3.201955  0  0  -0.359855  0  3.48558  0  0  -0.381755  0  3.502016  0  0  -0.354055  -0.344163  0  3.473669  0
O  O68  1  0.18785790  0.98289293  0.21453416  1  0  -0.697789  0  2.024392  0  0  -0.634219  0  2.279917  0  0  -0.660611  0  2.266868  0  0  -0.361749  -0.615997  0  2.288563  0
O  O69  1  0.81213790  0.48289018  0.28546566  1  0  -0.697749  0  2.024308  0  0  -0.634165  0  2.279901  0  0  -0.660552  0  2.266846  0  0  -0.361762  -0.615945  0  2.288549  0
O  O70  1  0.81213946  0.01710824  0.78546502  1  0  -0.69784  0  2.024242  0  0  -0.634268  0  2.279802  0  0  -0.660661  0  2.266755  0  0  -0.361786  -0.616045  0  2.288444  0
O  O71  1  0.18785948  0.51711005  0.71453423  1  0  -0.697782  0  2.024271  0  0  -0.634196  0  2.279868  0  0  -0.660586  0  2.266816  0  0  -0.36176  -0.615972  0  2.288513  0
O  O72  1  0.13839483  0.04803272  0.06053961  1  0  -0.818465  0  2.213407  0  0  -0.772388  0  2.478753  0  0  -0.795782  0  2.466061  0  0  -0.440794  -0.755934  0  2.486767  0
O  O73  1  0.86160413  0.54803177  0.43945921  1  0  -0.81853  0  2.213417  0  0  -0.772385  0  2.478739  0  0  -0.795781  0  2.466051  0  0  -0.440776  -0.755934  0  2.486763  0
O  O74  1  0.86160488  0.95196656  0.93946058  1  0  -0.8185  0  2.213373  0  0  -0.772411  0  2.478743  0  0  -0.795799  0  2.46604  0  0  -0.440794  -0.755958  0  2.486749  0
O  O75  1  0.13839675  0.45196940  0.56054112  1  0  -0.818511  0  2.213518  0  0  -0.772349  0  2.47882  0  0  -0.795742  0  2.466125  0  0  -0.440753  -0.755902  0  2.486846  0
O  O76  1  0.20393624  0.28244601  0.97240207  1  0  -0.726843  0  2.069875  0  0  -0.678787  0  2.326123  0  0  -0.70183  0  2.311806  0  0  -0.417099  -0.662675  0  2.33548  0
O  O77  1  0.79606219  0.78244803  0.52759709  1  0  -0.726827  0  2.06986  0  0  -0.678784  0  2.326107  0  0  -0.701824  0  2.311789  0  0  -0.417129  -0.662673  0  2.335466  0
O  O78  1  0.79606231  0.71755422  0.02759869  1  0  -0.726865  0  2.069783  0  0  -0.678817  0  2.326018  0  0  -0.701861  0  2.3117  0  0  -0.417119  -0.662708  0  2.33538  0
O  O79  1  0.20393636  0.21755219  0.47240439  1  0  -0.726816  0  2.069914  0  0  -0.678768  0  2.326176  0  0  -0.701809  0  2.311859  0  0  -0.417116  -0.66266  0  2.335538  0
O  O80  1  0.38314565  0.43123239  0.01890448  1  0  -0.655413  0  2.100915  0  0  -0.571262  0  2.365683  0  0  -0.60284  0  2.350453  0  0  -0.322856  -0.549179  0  2.375578  0
O  O81  1  0.61685024  0.93123362  0.48109464  1  0  -0.655385  0  2.1009  0  0  -0.571218  0  2.365644  0  0  -0.602799  0  2.350419  0  0  -0.322813  -0.549135  0  2.375538  0
O  O82  1  0.61685056  0.56876972  0.98109527  1  0  -0.655387  0  2.100928  0  0  -0.57125  0  2.365701  0  0  -0.602827  0  2.350467  0  0  -0.322818  -0.549168  0  2.375598  0
O  O83  1  0.38314712  0.06876567  0.51890454  1  0  -0.65539  0  2.100901  0  0  -0.571217  0  2.365647  0  0  -0.602798  0  2.350422  0  0  -0.322792  -0.549133  0  2.37554  0
O  O84  1  0.61897191  0.18488695  0.01603121  1  0  -0.742994  0  1.9391  0  0  -0.682993  0  2.180505  0  0  -0.706025  0  2.164942  0  0  -0.341823  -0.666743  0  2.190809  0
O  O85  1  0.38103033  0.68488376  0.48397160  1  0  -0.743096  0  1.939035  0  0  -0.683058  0  2.180424  0  0  -0.706068  0  2.164838  0  0  -0.341868  -0.666807  0  2.190724  0
O  O86  1  0.38102780  0.81511422  0.98396898  1  0  -0.743012  0  1.939094  0  0  -0.683006  0  2.180485  0  0  -0.706036  0  2.164916  0  0  -0.341828  -0.666756  0  2.19079  0
O  O87  1  0.61897174  0.31511364  0.51603104  1  0  -0.743005  0  1.93913  0  0  -0.682988  0  2.18051  0  0  -0.706019  0  2.164946  0  0  -0.341819  -0.66674  0  2.190814  0
O  O88  1  0.80789299  0.34530083  0.09256030  1  0  -0.747911  0  1.985668  0  0  -0.670874  0  2.242667  0  0  -0.69586  0  2.22162  0  0  -0.349107  -0.653356  0  2.256953  0
O  O89  1  0.19210891  0.84530071  0.40743957  1  0  -0.74792  0  1.985638  0  0  -0.670866  0  2.242629  0  0  -0.695874  0  2.221596  0  0  -0.349076  -0.653355  0  2.25692  0
O  O90  1  0.19210672  0.65469940  0.90743917  1  0  -0.747915  0  1.985654  0  0  -0.670878  0  2.242652  0  0  -0.695869  0  2.221605  0  0  -0.349096  -0.65336  0  2.256938  0
O  O91  1  0.80789314  0.15469858  0.59256090  1  0  -0.747912  0  1.985645  0  0  -0.67088  0  2.242653  0  0  -0.695869  0  2.221606  0  0  -0.349109  -0.653363  0  2.256938  0
O  O92  1  0.86765840  0.12392721  0.11625563  1  0  -0.850446  0  2.070492  0  0  -0.783233  0  2.326046  0  0  -0.805519  0  2.308064  0  0  -0.411909  -0.767465  0  2.338111  0
O  O93  1  0.13234159  0.62392622  0.38374403  1  0  -0.850445  0  2.070379  0  0  -0.783219  0  2.325958  0  0  -0.80551  0  2.307979  0  0  -0.41191  -0.767439  0  2.338012  0
O  O94  1  0.13234130  0.87607302  0.88374384  1  0  -0.850492  0  2.070426  0  0  -0.783258  0  2.325975  0  0  -0.805554  0  2.307995  0  0  -0.411937  -0.767495  0  2.338039  0
O  O95  1  0.86766045  0.37607306  0.61625501  1  0  -0.85042  0  2.070418  0  0  -0.783195  0  2.326002  0  0  -0.805484  0  2.308024  0  0  -0.411914  -0.767429  0  2.338066  0
O  O96  1  0.85911663  0.22207767  0.95574848  1  0  -0.807148  0  2.006696  0  0  -0.761518  0  2.280292  0  0  -0.781732  0  2.260027  0  0  -0.41481  -0.747162  0  2.293983  0
O  O97  1  0.14088193  0.72207673  0.54425142  1  0  -0.807238  0  2.006642  0  0  -0.761618  0  2.280237  0  0  -0.78183  0  2.25997  0  0  -0.414855  -0.747263  0  2.293931  0
O  O98  1  0.14088309  0.77792256  0.04425243  1  0  -0.807206  0  2.006644  0  0  -0.761596  0  2.280261  0  0  -0.781809  0  2.259993  0  0  -0.414872  -0.74724  0  2.293955  0
O  O99  1  0.85911661  0.27792067  0.45574790  1  0  -0.807188  0  2.006722  0  0  -0.761567  0  2.28032  0  0  -0.781781  0  2.260056  0  0  -0.414821  -0.74721  0  2.294012  0
O  O100  1  0.92285297  0.93466180  0.29743605  1  0  -0.870391  0  1.822504  0  0  -0.819541  0  1.995479  0  0  -0.836803  0  1.96609  0  0  -0.594454  -0.807288  0  2.016242  0
O  O101  1  0.07714875  0.43466187  0.20256379  1  0  -0.870399  0  1.82262  0  0  -0.81953  0  1.995517  0  0  -0.836793  0  1.966132  0  0  -0.594446  -0.807274  0  2.016283  0
O  O102  1  0.07714790  0.06533842  0.70256356  1  0  -0.870375  0  1.822575  0  0  -0.819507  0  1.995543  0  0  -0.836769  0  1.966157  0  0  -0.594424  -0.807253  0  2.016309  0
O  O103  1  0.92285212  0.56533930  0.79743582  1  0  -0.870399  0  1.822508  0  0  -0.819541  0  1.99548  0  0  -0.836803  0  1.966095  0  0  -0.594441  -0.807286  0  2.016246  0
O  O104  1  0.00631326  0.70083497  0.20804949  1  0  -0.936773  0  1.866861  0  0  -0.899284  0  2.072034  0  0  -0.915652  0  2.038799  0  0  -0.664467  -0.887488  0  2.095507  0
O  O105  1  0.99368775  0.20083483  0.29195101  1  0  -0.936631  0  1.867041  0  0  -0.899192  0  2.072062  0  0  -0.915564  0  2.038851  0  0  -0.66443  -0.887392  0  2.095531  0
O  O106  1  0.99368528  0.29916620  0.79195055  1  0  -0.936897  0  1.866768  0  0  -0.899404  0  2.071894  0  0  -0.915774  0  2.038664  0  0  -0.664477  -0.887608  0  2.095362  0
O  O107  1  0.00631429  0.79916540  0.70804875  1  0  -0.936801  0  1.8669  0  0  -0.899337  0  2.071933  0  0  -0.915712  0  2.038711  0  0  -0.664468  -0.88754  0  2.095402  0
O  O108  1  0.64341233  0.93518864  0.10307057  1  0  -0.905262  0  1.807239  0  0  -0.864431  0  1.98124  0  0  -0.881272  0  1.952748  0  0  -0.630825  -0.852574  0  2.001255  0
O  O109  1  0.35658822  0.43518832  0.39692912  1  0  -0.905222  0  1.807297  0  0  -0.864395  0  1.981297  0  0  -0.881236  0  1.952807  0  0  -0.630819  -0.852537  0  2.001313  0
O  O110  1  0.35658737  0.06481159  0.89692889  1  0  -0.905181  0  1.807359  0  0  -0.864378  0  1.981317  0  0  -0.881219  0  1.952825  0  0  -0.630817  -0.852521  0  2.001332  0
O  O111  1  0.64341149  0.56481097  0.60307107  1  0  -0.905266  0  1.807225  0  0  -0.864439  0  1.981218  0  0  -0.88128  0  1.952729  0  0  -0.630834  -0.852583  0  2.001234  0
