# generated using pymatgen
data_ZnH14C26N3O4
_symmetry_space_group_name_H-M   'P 1'
_cell_length_a   14.69250977
_cell_length_b   15.73596951
_cell_length_c   19.32540875
_cell_angle_alpha   90.14480601
_cell_angle_beta   105.66774939
_cell_angle_gamma   98.36103740
_symmetry_Int_Tables_number   1
_chemical_formula_structural   ZnH14C26N3O4
_chemical_formula_sum   'Zn2 H28 C52 N6 O8'
_cell_volume   4252.21298553
_cell_formula_units_Z   2
loop_
 _symmetry_equiv_pos_site_id
 _symmetry_equiv_pos_as_xyz
  1  'x, y, z'
loop_
 _atom_site_type_symbol
 _atom_site_label
 _atom_site_symmetry_multiplicity
 _atom_site_fract_x
 _atom_site_fract_y
 _atom_site_fract_z
 _atom_site_occupancy
 _atom_site_pbe_bader_charge
 _atom_site_pbe_bader_spin_density
 _atom_site_pbe_cm5_charge
 _atom_site_pbe_ddec_charge
 _atom_site_pbe_ddec_spin_density
 _atom_site_pbe_ddec_sum_bond_order
 _atom_site_pbe_magmom
Zn  Zn0  1  0.59381353  0.48271106  0.52055682  1  1.286517  0  0.664536  0.815496  0  2.432912  0
Zn  Zn1  1  0.40575555  0.51605960  0.48167995  1  1.286684  0  0.664628  0.816168  0  2.437829  0
H  H2  1  0.64529427  0.47918988  0.30945037  1  0.07644  0  0.102514  0.106919  0  1.003978  0
H  H3  1  0.35879063  0.53392893  0.69331598  1  0.094733  0  0.101873  0.105576  0  1.003092  0
H  H4  1  0.97691613  0.67019615  0.37419676  1  0.08669  0  0.113089  0.116009  0  0.980024  0
H  H5  1  0.02226907  0.32804400  0.62610014  1  0.082598  0  0.11322  0.116268  0  0.977939  0
H  H6  1  0.76566680  0.53747324  0.47848865  1  0.12047  0  0.126505  0.098051  0  1.006593  0
H  H7  1  0.23511111  0.46471658  0.52593442  1  0.098224  0  0.127343  0.099868  0  1.002388  0
H  H8  1  0.69357514  0.35160436  0.61200084  1  0.127292  0  0.13024  0.107674  0  0.966784  0
H  H9  1  0.30577344  0.64583333  0.38837597  1  0.10807  0  0.128857  0.105611  0  0.974752  0
H  H10  1  0.14271692  0.69157100  0.35827850  1  0.072994  0  0.115027  0.121872  0  0.981503  0
H  H11  1  0.85663698  0.30624697  0.64182597  1  0.095787  0  0.116725  0.124238  0  0.980068  0
H  H12  1  0.85905162  0.59536841  0.42971443  1  0.097887  0  0.114579  0.115793  0  0.994067  0
H  H13  1  0.14049190  0.40377926  0.57132376  1  0.072925  0  0.114534  0.115928  0  0.994071  0
H  H14  1  0.65285925  0.49657602  0.18184055  1  0.107217  0  0.103779  0.101604  0  1.018074  0
H  H15  1  0.36534014  0.55117116  0.82383365  1  0.090355  0  0.104263  0.102366  0  1.01607  0
H  H16  1  0.36702570  0.55944186  0.12413486  1  0.074576  0  0.105338  0.103371  0  1.014285  0
H  H17  1  0.65603769  0.50066491  0.88234756  1  0.079247  0  0.104831  0.102619  0  1.013036  0
H  H18  1  0.75331987  0.04913063  0.48242906  1  0.046108  0  0.098729  0.098681  0  1.000404  0
H  H19  1  0.23878564  0.94711696  0.40087255  1  0.047501  0  0.097767  0.096143  0  1.0021  0
H  H20  1  0.54004781  0.21948148  0.47915063  1  0.102685  0  0.101774  0.105398  0  1.032229  0
H  H21  1  0.45747200  0.77834080  0.46752340  1  0.071217  0  0.10078  0.103297  0  1.037442  0
H  H22  1  0.24629172  0.25032679  0.43553135  1  0.088988  0  0.101476  0.105794  0  1.004357  0
H  H23  1  0.75191980  0.74766423  0.52013213  1  0.093634  0  0.100699  0.104884  0  1.007401  0
H  H24  1  0.79834839  0.90473893  0.50574796  1  0.033786  0  0.098143  0.096825  0  1.001071  0
H  H25  1  0.19634822  0.09212458  0.40770534  1  0.044902  0  0.098598  0.097588  0  1.00109  0
H  H26  1  0.63233241  0.14510330  0.46318170  1  0.08155  0  0.101591  0.102795  0  1.013172  0
H  H27  1  0.35995974  0.85115438  0.42172616  1  0.029311  0  0.09834  0.097019  0  1.022415  0
H  H28  1  0.36084648  0.54159589  0.25198800  1  0.107008  0  0.105268  0.110016  0  0.999263  0
H  H29  1  0.64851546  0.48468811  0.75153632  1  0.097194  0  0.105594  0.11127  0  0.997916  0
C  C30  1  0.57183447  0.66225575  0.50479166  1  1.582243  0  0.211137  0.58991  0  4.173406  0
C  C31  1  0.42838075  0.33610348  0.47962724  1  1.570347  0  0.213111  0.594802  0  4.167759  0
C  C32  1  0.60104750  0.75546821  0.49406194  1  0.003548  0  -0.02021  -0.027998  0  3.984024  0
C  C33  1  0.39694567  0.24223609  0.45966196  1  0.00578  0  -0.020167  -0.029987  0  3.98385  0
C  C34  1  0.72331939  0.87691989  0.49658955  1  0.019612  0  -0.095023  -0.14034  0  4.009403  0
C  C35  1  0.27185639  0.12009619  0.42297136  1  -0.064838  0  -0.094525  -0.141136  0  4.014465  0
C  C36  1  0.69828904  0.79028232  0.50458539  1  -0.097726  0  -0.091037  -0.100431  0  4.015788  0
C  C37  1  0.29881983  0.20723739  0.43846761  1  -0.069497  0  -0.090203  -0.096987  0  4.011552  0
C  C38  1  0.53108703  0.80803117  0.47402498  1  -0.027844  0  -0.082247  -0.133569  0  3.941601  0
C  C39  1  0.46554804  0.18942707  0.46236396  1  -0.058012  0  -0.08143  -0.132444  0  3.942719  0
C  C40  1  0.55424146  0.89681253  0.46562318  1  0.002284  0  -0.002977  0.033554  0  3.950974  0
C  C41  1  0.44035858  0.10017113  0.44662213  1  -0.036672  0  -0.002888  0.033103  0  3.951717  0
C  C42  1  0.65300131  0.93209038  0.47847460  1  -0.00562  0  -0.007976  0.08022  0  4.017994  0
C  C43  1  0.34110149  0.06467088  0.42797540  1  0.038916  0  -0.008145  0.08016  0  4.021753  0
C  C44  1  0.48238072  0.95325345  0.44872632  1  -0.08738  0  -0.004137  0.034455  0  3.960971  0
C  C45  1  0.51131473  0.04349591  0.45292458  1  0.044369  0  -0.003657  0.03282  0  3.961164  0
C  C46  1  0.61038328  0.07606140  0.46416572  1  -0.082755  0  -0.092915  -0.129221  0  4.025686  0
C  C47  1  0.38258030  0.92042365  0.42863330  1  -0.026564  0  -0.093585  -0.129828  0  4.031531  0
C  C48  1  0.67818143  0.02258342  0.47484824  1  -0.039664  0  -0.094536  -0.140351  0  4.033518  0
C  C49  1  0.31469571  0.97384708  0.41699361  1  -0.028336  0  -0.094665  -0.137692  0  4.035697  0
C  C50  1  0.16017411  0.64079997  0.39566659  1  -0.07471  0  -0.077379  -0.174519  0  3.970441  0
C  C51  1  0.83942632  0.35780998  0.60524026  1  0.032003  0  -0.078618  -0.178554  0  3.972723  0
C  C52  1  0.50017669  0.50283563  0.36478364  1  1.565463  0  0.212582  0.585573  0  4.17698  0
C  C53  1  0.50048479  0.50214749  0.63688522  1  1.5849  0  0.21474  0.590725  0  4.172403  0
C  C54  1  0.24961350  0.61655604  0.41171655  1  0.529657  0  0.049105  0.082764  0  3.947843  0
C  C55  1  0.75004850  0.38209729  0.58950288  1  0.424238  0  0.050539  0.085952  0  3.946406  0
C  C56  1  0.20950814  0.51379358  0.48914701  1  0.571248  0  0.071916  0.073592  0  3.874414  0
C  C57  1  0.79076214  0.48698648  0.51386876  1  0.554407  0  0.072289  0.076283  0  3.868531  0
C  C58  1  0.11576185  0.53303143  0.47613677  1  0.012395  0  0.00397  -0.015476  0  3.948756  0
C  C59  1  0.88419905  0.46713758  0.52608076  1  -0.012948  0  0.003126  -0.014162  0  3.943923  0
C  C60  1  0.09048082  0.59908232  0.42734477  1  -0.036662  0  0.009121  0.107627  0  4.019832  0
C  C61  1  0.90928580  0.40028050  0.57408334  1  -0.046144  0  0.008982  0.107661  0  4.021996  0
C  C62  1  0.04646048  0.48855228  0.50941906  1  0.043081  0  0.00547  0.041547  0  3.959803  0
C  C63  1  0.95345980  0.51161442  0.49272722  1  -0.044974  0  0.0056  0.040943  0  3.958695  0
C  C64  1  0.93058667  0.57783381  0.44330483  1  -0.006214  0  -0.072829  -0.106376  0  3.979104  0
C  C65  1  0.06916725  0.42173673  0.55820689  1  -0.002545  0  -0.073872  -0.107276  0  3.982645  0
C  C66  1  0.99622171  0.62010056  0.41189354  1  -0.054316  0  -0.080403  -0.12695  0  3.986182  0
C  C67  1  0.00336832  0.37896671  0.58918520  1  -0.066109  0  -0.080027  -0.127433  0  3.986387  0
C  C68  1  0.58508003  0.49686342  0.26819957  1  -0.081351  0  -0.084011  -0.091681  0  3.980786  0
C  C69  1  0.42319230  0.52642024  0.73536714  1  -0.056094  0  -0.082791  -0.089545  0  3.976253  0
C  C70  1  0.58912954  0.50626777  0.19757540  1  -0.029494  0  -0.083893  -0.109204  0  3.972443  0
C  C71  1  0.42681503  0.53588923  0.80762247  1  0.031837  0  -0.083414  -0.10981  0  3.969279  0
C  C72  1  0.51057514  0.52953250  0.14531808  1  -0.00208  0  -0.006639  0.016071  0  4.000256  0
C  C73  1  0.51117718  0.52725519  0.86108841  1  -0.040598  0  -0.006633  0.018022  0  3.996972  0
C  C74  1  0.42765781  0.54166175  0.16491342  1  -0.015856  0  -0.081897  -0.105851  0  3.966232  0
C  C75  1  0.59098066  0.50750424  0.84070862  1  -0.037041  0  -0.081033  -0.105829  0  3.963314  0
C  C76  1  0.42420616  0.53205980  0.23567119  1  -0.033282  0  -0.081547  -0.088628  0  3.971689  0
C  C77  1  0.58691527  0.49856576  0.76830218  1  -0.028026  0  -0.081684  -0.088588  0  3.971913  0
C  C78  1  0.50303525  0.51028063  0.28796023  1  0.001656  0  -0.010465  -0.014638  0  3.943799  0
C  C79  1  0.50333974  0.50852721  0.71503422  1  -0.036293  0  -0.010358  -0.01598  0  3.941378  0
C  C80  1  0.51593577  0.54010162  0.93729181  1  0.951058  0  0.239952  0.249088  0  3.988114  0
C  C81  1  0.51555337  0.54138571  0.07111261  1  0.960621  0  0.238736  0.247716  0  3.98923  0
N  N82  1  0.43947397  0.56541953  0.02230517  1  -0.56551  0  -0.158239  -0.151745  0  3.225286  0
N  N83  1  0.59930331  0.53503529  0.98751854  1  -0.571978  0  -0.159868  -0.154019  0  3.223848  0
N  N84  1  0.43975608  0.56496820  0.95433503  1  -0.547119  0  -0.159083  -0.153298  0  3.225575  0
N  N85  1  0.59917935  0.53589968  0.05557244  1  -0.544202  0  -0.15984  -0.154335  0  3.223314  0
N  N86  1  0.27330793  0.55345966  0.45804162  1  -1.246136  0  -0.319099  -0.185752  0  3.535043  0
N  N87  1  0.72681420  0.44646568  0.54445198  1  -1.261812  0  -0.320029  -0.189604  0  3.536103  0
O  O88  1  0.63674109  0.61425418  0.51946906  1  -1.184243  0  -0.319405  -0.544821  0  2.299515  0
O  O89  1  0.36409653  0.38472691  0.46867012  1  -1.157276  0  -0.322396  -0.547759  0  2.299449  0
O  O90  1  0.48311442  0.63758868  0.49796912  1  -1.177738  0  -0.321738  -0.557891  0  2.348041  0
O  O91  1  0.51791205  0.36045642  0.50596183  1  -1.181731  0  -0.321749  -0.559999  0  2.347475  0
O  O92  1  0.57465414  0.48401864  0.40969896  1  -1.168643  0  -0.318301  -0.551145  0  2.323383  0
O  O93  1  0.42102485  0.50741112  0.59114668  1  -1.175255  0  -0.318518  -0.553497  0  2.325813  0
O  O94  1  0.42384223  0.51682340  0.37911302  1  -1.163352  0  -0.317726  -0.547542  0  2.3184  0
O  O95  1  0.57820601  0.49286801  0.62247180  1  -1.157609  0  -0.317212  -0.545837  0  2.320779  0
