# generated using pymatgen
data_MnH24C22(NO)6
_symmetry_space_group_name_H-M   'P 1'
_cell_length_a   8.48268007
_cell_length_b   11.82164888
_cell_length_c   12.19614342
_cell_angle_alpha   111.59523536
_cell_angle_beta   89.67716584
_cell_angle_gamma   91.36490536
_symmetry_Int_Tables_number   1
_chemical_formula_structural   MnH24C22(NO)6
_chemical_formula_sum   'Mn2 H48 C44 N12 O12'
_cell_volume   1136.84384788
_cell_formula_units_Z   2
loop_
 _symmetry_equiv_pos_site_id
 _symmetry_equiv_pos_as_xyz
  1  'x, y, z'
loop_
 _atom_site_type_symbol
 _atom_site_label
 _atom_site_symmetry_multiplicity
 _atom_site_fract_x
 _atom_site_fract_y
 _atom_site_fract_z
 _atom_site_occupancy
 _atom_site_pbe_bader_charge
 _atom_site_pbe_bader_spin_density
 _atom_site_pbe_cm5_charge
 _atom_site_pbe_ddec_charge
 _atom_site_pbe_ddec_spin_density
 _atom_site_pbe_ddec_sum_bond_order
 _atom_site_pbe_magmom
Mn  Mn0  1  0.00000000  0.00000090  0.00000278  1  1.487972  -4.559063  0.581099  0.905564  -4.773591  2.36078  -4.487
Mn  Mn1  1  0.49999922  0.49999851  0.00000142  1  1.516408  3.149689  0.686744  0.881723  3.23996  2.899245  3.124
H  H2  1  0.94471214  0.80039321  0.07107744  1  0.6349  -0.001635  0.287138  0.377158  -0.001069  0.967674  -0.002
H  H3  1  0.44299036  0.70758699  0.93479298  1  0.63725  0.00139  0.284345  0.371333  0.001007  0.978921  0.002
H  H4  1  0.05529150  0.19960342  0.92891974  1  0.63487  -0.001636  0.287126  0.377154  -0.001069  0.967681  -0.002
H  H5  1  0.55701445  0.29240964  0.06520585  1  0.637559  0.00139  0.28436  0.371378  0.001007  0.978846  0.002
H  H6  1  0.93686081  0.39683340  0.92211943  1  0.074481  -0.001056  0.106675  0.124422  -0.000879  1.022118  0.0
H  H7  1  0.42661651  0.10671256  0.08924083  1  0.076008  -0.000232  0.107191  0.129778  0.000315  1.011784  0.0
H  H8  1  0.06313935  0.60316684  0.07787742  1  0.074437  -0.001056  0.10668  0.124448  -0.000879  1.022063  0.0
H  H9  1  0.57338123  0.89328311  0.91075439  1  0.076064  -0.000232  0.107175  0.129772  0.000315  1.011832  0.0
H  H10  1  0.00726320  0.30989616  0.78194928  1  0.085692  -0.0006  0.109193  0.130238  -0.000391  0.999411  0.0
H  H11  1  0.50892879  0.20093188  0.22429947  1  0.096814  -0.000893  0.106289  0.12702  -0.000528  0.999679  0.0
H  H12  1  0.99273582  0.69010589  0.21804659  1  0.085737  -0.0006  0.109192  0.130255  -0.000391  0.999371  0.0
H  H13  1  0.49106664  0.79906650  0.77569508  1  0.096742  -0.000893  0.10627  0.127009  -0.000528  0.999624  0.0
H  H14  1  0.88493754  0.51553374  0.80953846  1  0.047789  3.7e-05  0.113894  0.097055  -3.4e-05  0.975819  0.0
H  H15  1  0.37124438  0.99931859  0.21347352  1  0.091284  -0.000605  0.111637  0.093923  -0.000241  0.979476  0.0
H  H16  1  0.11506387  0.48447197  0.19046281  1  0.047842  3.7e-05  0.113882  0.097039  -3.4e-05  0.97578  0.0
H  H17  1  0.62875811  0.00067985  0.78652432  1  0.091208  -0.000605  0.111642  0.093928  -0.000241  0.979462  0.0
H  H18  1  0.05988221  0.58706095  0.88680219  1  0.080361  -4.3e-05  0.11591  0.095339  -2.9e-05  0.999861  0.0
H  H19  1  0.53912458  0.92358341  0.13432976  1  0.120683  -0.000279  0.115087  0.096912  -2.6e-05  0.994577  0.0
H  H20  1  0.94012383  0.41293933  0.11319876  1  0.08044  -4.3e-05  0.115915  0.095301  -3e-05  0.99988  0.0
H  H21  1  0.46087787  0.07641230  0.86566628  1  0.120753  -0.000279  0.115081  0.096913  -2.6e-05  0.994503  0.0
H  H22  1  0.22670310  0.65169311  0.75430753  1  0.173511  -1.6e-05  0.121972  0.125975  4.6e-05  1.033617  0.0
H  H23  1  0.71529543  0.87067994  0.26681605  1  0.148  3.7e-05  0.122617  0.126147  0.000101  1.015215  0.0
H  H24  1  0.77329710  0.34830986  0.24569030  1  0.173563  -1.6e-05  0.121937  0.125954  4.6e-05  1.033496  0.0
H  H25  1  0.28470828  0.12932214  0.73318474  1  0.147975  3.7e-05  0.122591  0.126142  0.000101  1.015207  0.0
H  H26  1  0.30038354  0.55301559  0.51706767  1  0.09821  -0.000107  0.107883  0.137112  -5.5e-05  1.018285  0.0
H  H27  1  0.79297188  0.97517607  0.50312449  1  0.091404  -0.000258  0.105629  0.134225  -0.000167  1.016404  0.0
H  H28  1  0.69961428  0.44698643  0.48293311  1  0.098243  -0.000107  0.107906  0.137125  -5.5e-05  1.018241  0.0
H  H29  1  0.20703896  0.02482972  0.49687761  1  0.091517  -0.000258  0.105629  0.134226  -0.000167  1.016456  0.0
H  H30  1  0.97709143  0.18635892  0.46266952  1  0.100387  -0.000586  0.105025  0.111969  -0.000373  1.032772  0.0
H  H31  1  0.46945806  0.33064251  0.55566711  1  0.100704  -0.000208  0.104046  0.110907  1.1e-05  1.03577  0.0
H  H32  1  0.02290760  0.81364494  0.53733110  1  0.100455  -0.000586  0.105025  0.111899  -0.000373  1.032781  0.0
H  H33  1  0.53052905  0.66935575  0.44434136  1  0.10119  -0.000209  0.103993  0.110846  1.1e-05  1.035841  0.0
H  H34  1  0.94067262  0.03645988  0.25780190  1  0.11607  -0.001206  0.112019  0.07856  -0.000576  1.036178  -0.001
H  H35  1  0.42899372  0.47767109  0.75846269  1  0.084524  -0.000693  0.113828  0.084584  -0.000638  1.047349  0.0
H  H36  1  0.05931929  0.96354119  0.74219855  1  0.115959  -0.001206  0.112006  0.078521  -0.000576  1.036338  -0.001
H  H37  1  0.57098745  0.52232439  0.24154643  1  0.084555  -0.000693  0.113778  0.084471  -0.000638  1.047353  0.0
H  H38  1  0.26758366  0.40267761  0.31789204  1  0.082849  -0.000887  0.108464  0.117181  -0.000636  1.001369  0.0
H  H39  1  0.76367247  0.12834697  0.70348469  1  0.080772  -0.000395  0.108168  0.116561  2.2e-05  1.001844  0.0
H  H40  1  0.73242241  0.59732450  0.68210957  1  0.08289  -0.000886  0.108457  0.117217  -0.000636  1.001404  0.0
H  H41  1  0.23632768  0.87165236  0.29651183  1  0.080785  -0.000395  0.108219  0.116564  2.2e-05  1.001902  0.0
H  H42  1  0.21117667  0.24827615  0.12004431  1  0.083033  -0.000656  0.114748  0.07808  -0.000437  1.038746  0.0
H  H43  1  0.70286810  0.27775081  0.89990003  1  0.095585  -0.001103  0.11663  0.082794  -0.000717  1.044691  0.0
H  H44  1  0.78882463  0.75172227  0.87995599  1  0.083055  -0.000656  0.11476  0.078111  -0.000437  1.03869  0.0
H  H45  1  0.29713670  0.72224492  0.10009765  1  0.095599  -0.001103  0.116631  0.082818  -0.000717  1.044639  0.0
H  H46  1  0.12259159  0.81496520  0.02119435  1  0.614534  -0.000841  0.284812  0.362233  -0.001353  0.99174  -0.001
H  H47  1  0.61699009  0.69602923  0.98717205  1  0.637857  0.000285  0.286346  0.360699  0.000695  0.993417  0.001
H  H48  1  0.87741325  0.18503325  0.97880595  1  0.614557  -0.000841  0.284858  0.362324  -0.001353  0.991607  -0.001
H  H49  1  0.38301353  0.30396649  0.01282563  1  0.637867  0.000285  0.28635  0.360664  0.000695  0.993461  0.001
C  C50  1  0.18647981  0.38618451  0.91277676  1  1.530838  -0.003228  0.222456  0.626132  -0.002903  4.103894  0.0
C  C51  1  0.67684030  0.11183686  0.08921267  1  1.566149  -0.009406  0.220857  0.637189  -0.009383  4.119502  -0.008
C  C52  1  0.81352031  0.61381299  0.08722157  1  1.530838  -0.003228  0.222538  0.626253  -0.002903  4.103746  0.0
C  C53  1  0.32316112  0.88816885  0.91078696  1  1.566118  -0.009404  0.220781  0.637162  -0.00938  4.119593  -0.008
C  C54  1  0.02953681  0.39449648  0.85791593  1  -0.038922  -0.002996  -0.166187  -0.343292  -0.00312  3.941903  -0.002
C  C55  1  0.52176728  0.11252287  0.15220185  1  -0.058943  -0.001957  -0.168406  -0.343837  -0.001374  3.936228  -0.001
C  C56  1  0.97046335  0.60550376  0.14208174  1  -0.038943  -0.002995  -0.166225  -0.343403  -0.00312  3.941876  -0.002
C  C57  1  0.47823284  0.88747464  0.84779565  1  -0.058995  -0.001958  -0.1684  -0.343874  -0.001374  3.936237  -0.001
C  C58  1  0.01091864  0.50304335  0.82101284  1  0.324705  1.5e-05  -0.050244  -0.06727  -9.2e-05  3.895569  0.0
C  C59  1  0.49752416  0.00991885  0.19799849  1  0.248898  -0.000392  -0.050453  -0.067026  -0.000253  3.897848  0.0
C  C60  1  0.98908389  0.49695782  0.17898598  1  0.324599  1.5e-05  -0.050198  -0.067141  -9.2e-05  3.895335  0.0
C  C61  1  0.50247830  0.99007776  0.80200033  1  0.248917  -0.000392  -0.050445  -0.067015  -0.000253  3.8978  0.0
C  C62  1  0.19061673  0.56625155  0.68582231  1  0.350819  0.000217  0.015105  -0.071982  0.000188  3.922697  0.0
C  C63  1  0.68112304  0.95625514  0.33401647  1  0.280525  0.002701  0.015513  -0.071737  0.00209  3.930999  0.002
C  C64  1  0.80938584  0.43375234  0.31417912  1  0.350863  0.000217  0.015176  -0.071922  0.000188  3.922567  0.0
C  C65  1  0.31887593  0.04374599  0.66598562  1  0.280527  0.002702  0.015535  -0.071742  0.002091  3.930837  0.002
C  C66  1  0.22597929  0.51368625  0.56698872  1  -0.104925  -0.001021  -0.111417  -0.245795  -0.000825  3.987524  -0.001
C  C67  1  0.71873181  0.01161504  0.45256238  1  0.029346  -0.009424  -0.11531  -0.250962  -0.007386  3.998736  -0.006
C  C68  1  0.77401859  0.48631852  0.43300812  1  -0.104946  -0.001021  -0.111492  -0.245863  -0.000824  3.987675  -0.001
C  C69  1  0.28126719  0.98838700  0.54743840  1  0.029235  -0.009425  -0.115313  -0.250983  -0.007387  3.998645  -0.006
C  C70  1  0.14070896  0.40093435  0.52667714  1  0.477484  0.000298  0.087959  0.122665  0.000175  4.085294  0.0
C  C71  1  0.63463792  0.12204486  0.49210225  1  0.417159  0.00187  0.0855  0.12359  0.001299  4.090659  0.004
C  C72  1  0.85928886  0.59906678  0.47332167  1  0.477627  0.000297  0.087983  0.122703  0.000174  4.085286  0.0
C  C73  1  0.36536225  0.87795629  0.50789739  1  0.417111  0.001871  0.085536  0.123701  0.001299  4.090406  0.004
C  C74  1  0.12513223  0.30868960  0.40865400  1  -0.017195  -0.005452  0.018628  0.108183  -0.004209  3.999272  -0.003
C  C75  1  0.61953544  0.21410479  0.60973591  1  0.038284  -0.051081  0.006144  0.087653  -0.041215  4.009011  -0.033
C  C76  1  0.87486802  0.69131701  0.59134677  1  -0.016932  -0.005449  0.01863  0.108158  -0.004207  3.999322  -0.003
C  C77  1  0.38046353  0.78589633  0.39026618  1  0.038576  -0.051085  0.00616  0.087681  -0.041219  4.00889  -0.033
C  C78  1  0.03352675  0.20215271  0.38904387  1  -0.035597  0.000205  -0.085024  -0.173656  0.00033  3.943443  0.0
C  C79  1  0.52616395  0.31689641  0.62949840  1  -0.054287  0.005064  -0.088798  -0.174544  0.003194  3.967582  0.006
C  C80  1  0.96646287  0.79785198  0.61095460  1  -0.035641  0.000204  -0.08496  -0.173454  0.000329  3.943351  0.0
C  C81  1  0.47381724  0.68309818  0.37050384  1  -0.055352  0.005062  -0.088692  -0.174475  0.003194  3.967751  0.006
C  C82  1  0.01153686  0.11934722  0.27516261  1  0.47942  -0.006193  0.040513  0.089195  -0.004816  3.974766  -0.004
C  C83  1  0.50102932  0.39846172  0.74252287  1  0.443161  -0.025004  0.030401  0.069421  -0.019664  3.958314  -0.013
C  C84  1  0.98845397  0.88066021  0.72483847  1  0.479469  -0.006191  0.04049  0.089187  -0.004814  3.974718  -0.004
C  C85  1  0.49895779  0.60153654  0.25748723  1  0.443323  -0.025004  0.030426  0.069567  -0.019667  3.958338  -0.013
C  C86  1  0.19345642  0.32331439  0.30954606  1  -0.010074  6.1e-05  -0.085054  -0.17452  0.000173  3.935678  0.0
C  C87  1  0.68759527  0.20366651  0.71041321  1  0.040247  0.005401  -0.087351  -0.173267  0.003117  3.962612  0.006
C  C88  1  0.80655192  0.67668227  0.69045522  1  -0.010464  6e-05  -0.085075  -0.174637  0.000172  3.935705  0.0
C  C89  1  0.31241080  0.79633469  0.28958479  1  0.040236  0.005399  -0.087419  -0.173351  0.003115  3.96271  0.006
C  C90  1  0.16264320  0.23656548  0.19816889  1  0.468331  -0.006707  0.044369  0.088567  -0.005369  3.983191  -0.004
C  C91  1  0.65502857  0.28773614  0.82152691  1  0.358242  -0.032731  0.033282  0.064963  -0.025875  3.963892  -0.018
C  C92  1  0.83736755  0.76343484  0.80183371  1  0.468177  -0.006705  0.044419  0.088624  -0.005366  3.983216  -0.004
C  C93  1  0.34497630  0.71226505  0.17847437  1  0.358411  -0.032725  0.033274  0.064968  -0.025871  3.963839  -0.018
N  N94  1  0.07275393  0.13581400  0.17950647  1  -1.260088  -0.049509  -0.327944  -0.270293  -0.034928  3.505233  -0.018
N  N95  1  0.56136142  0.38465887  0.84002435  1  -1.223624  -0.029841  -0.364111  -0.24523  -0.029379  3.593497  -0.04
N  N96  1  0.92724266  0.86418529  0.82049414  1  -1.259883  -0.049514  -0.327962  -0.270304  -0.034926  3.505279  -0.018
N  N97  1  0.43863277  0.61533856  0.15998052  1  -1.223712  -0.029837  -0.364122  -0.24531  -0.029377  3.593528  -0.04
N  N98  1  0.05863248  0.38613336  0.61587158  1  -0.649824  -0.00194  -0.226896  -0.28831  -0.001485  3.116899  -0.001
N  N99  1  0.55144912  0.13277095  0.40214640  1  -0.650044  -0.015201  -0.231528  -0.297478  -0.011966  3.107402  -0.011
N  N100  1  0.94137005  0.61386871  0.38412921  1  -0.650032  -0.001939  -0.226906  -0.288371  -0.001485  3.116854  -0.001
N  N101  1  0.44854981  0.86722654  0.59785193  1  -0.650075  -0.015205  -0.231547  -0.297523  -0.011969  3.107206  -0.011
N  N102  1  0.09107611  0.48648701  0.71048810  1  -0.783417  -0.00102  -0.140036  0.196429  -0.000772  3.771005  -0.001
N  N103  1  0.58165548  0.03206967  0.30818077  1  -0.789829  -0.006826  -0.139042  0.197136  -0.005268  3.760583  -0.005
N  N104  1  0.90892760  0.51351507  0.28951268  1  -0.783444  -0.00102  -0.140099  0.19642  -0.000772  3.770813  -0.001
N  N105  1  0.41834105  0.96792597  0.69182017  1  -0.789783  -0.006828  -0.139065  0.197132  -0.005269  3.760402  -0.005
O  O106  1  0.27713765  0.48106290  0.94554840  1  -1.157233  0.017762  -0.303444  -0.51422  0.010519  2.397976  -0.003
O  O107  1  0.76052469  0.01793600  0.06164299  1  -1.216882  -0.058903  -0.309248  -0.544922  -0.042102  2.295071  -0.025
O  O108  1  0.72286248  0.51893641  0.05445386  1  -1.157171  0.017748  -0.303473  -0.51425  0.01052  2.398024  -0.003
O  O109  1  0.23948017  0.98206428  0.93835632  1  -1.216924  -0.058896  -0.309231  -0.544927  -0.042097  2.295269  -0.025
O  O110  1  0.21662728  0.28731043  0.92655919  1  -1.194099  0.001176  -0.30193  -0.554749  0.001269  2.210791  0.001
O  O111  1  0.71198032  0.20608589  0.06483141  1  -1.205836  -0.004014  -0.313095  -0.576174  -0.00263  2.218568  -0.003
O  O112  1  0.78337286  0.71268799  0.07343701  1  -1.194075  0.001175  -0.30197  -0.554825  0.001268  2.210649  0.001
O  O113  1  0.28801868  0.79391616  0.93516855  1  -1.205724  -0.004013  -0.313034  -0.576084  -0.002629  2.218425  -0.003
O  O114  1  0.03444560  0.85759762  0.07379418  1  -1.267752  -0.061506  -0.579845  -0.762799  -0.045845  2.135805  -0.028
O  O115  1  0.53260298  0.65228432  0.92984623  1  -1.289944  0.064818  -0.578824  -0.762935  0.051271  2.136019  0.04
O  O116  1  0.96556036  0.14239811  0.92620760  1  -1.267717  -0.061503  -0.579882  -0.762893  -0.045848  2.135707  -0.028
O  O117  1  0.46739827  0.34771137  0.07015308  1  -1.290247  0.064823  -0.578831  -0.762906  0.051271  2.135935  0.04
