# generated using pymatgen
data_ZnH8C13NO4
_symmetry_space_group_name_H-M   'P 1'
_cell_length_a   11.01900535
_cell_length_b   10.97161302
_cell_length_c   14.06172385
_cell_angle_alpha   92.42316166
_cell_angle_beta   89.81636341
_cell_angle_gamma   105.89509518
_symmetry_Int_Tables_number   1
_chemical_formula_structural   ZnH8C13NO4
_chemical_formula_sum   'Zn4 H32 C52 N4 O16'
_cell_volume   1633.48554155
_cell_formula_units_Z   4
loop_
 _symmetry_equiv_pos_site_id
 _symmetry_equiv_pos_as_xyz
  1  'x, y, z'
loop_
 _atom_site_type_symbol
 _atom_site_label
 _atom_site_symmetry_multiplicity
 _atom_site_fract_x
 _atom_site_fract_y
 _atom_site_fract_z
 _atom_site_occupancy
 _atom_site_pbe_bader_charge
 _atom_site_pbe_bader_spin_density
 _atom_site_pbe_cm5_charge
 _atom_site_pbe_ddec_charge
 _atom_site_pbe_ddec_spin_density
 _atom_site_pbe_ddec_sum_bond_order
 _atom_site_pbe_magmom
Zn  Zn0  1  0.26437338  0.34550132  0.88898696  1  1.277699  0  0.672706  0.827245  0  2.404856  0
Zn  Zn1  1  0.26266683  0.33405329  0.68387689  1  1.289972  0  0.667947  0.826928  0  2.407011  0
Zn  Zn2  1  0.73563296  0.65449847  0.11101105  1  1.277806  0  0.672709  0.827369  0  2.404702  0
Zn  Zn3  1  0.73733105  0.66594149  0.31612025  1  1.289913  0  0.667961  0.826962  0  2.406952  0
H  H4  1  0.65666242  0.36371661  0.93991632  1  0.114492  0  0.10375  0.10893  0  1.024472  0
H  H5  1  0.87962970  0.35074278  0.93962373  1  0.079189  0  0.104004  0.1064  0  1.013377  0
H  H6  1  0.64681877  0.32817033  0.63439359  1  0.089855  0  0.101224  0.104178  0  1.008917  0
H  H7  1  0.25951500  0.71245918  0.63341145  1  0.08864  0  0.100071  0.10638  0  1.006198  0
H  H8  1  0.27293955  0.74258947  0.93866820  1  0.085742  0  0.101987  0.105034  0  1.033006  0
H  H9  1  0.24718036  0.96277736  0.93482943  1  0.104712  0  0.108072  0.117172  0  0.991561  0
H  H10  1  0.23420964  0.93387868  0.62962992  1  0.105041  0  0.103982  0.111223  0  0.999373  0
H  H11  1  0.87092808  0.31604251  0.63436209  1  0.079428  0  0.100691  0.1024  0  1.011594  0
H  H12  1  0.06947027  0.30723095  0.53249349  1  0.13434  0  0.124729  0.100038  0  0.99358  0
H  H13  1  0.05886851  0.30454221  0.35593316  1  0.084092  0  0.112583  0.117185  0  1.013229  0
H  H14  1  0.46635410  0.37402368  0.35642881  1  0.123197  0  0.113374  0.127002  0  1.017492  0
H  H15  1  0.45608309  0.36648383  0.53237952  1  0.11367  0  0.122583  0.097008  0  1.001892  0
H  H16  1  0.06078520  0.32181231  0.21506796  1  0.089025  0  0.112883  0.117515  0  1.010207  0
H  H17  1  0.46155634  0.35069313  0.21631159  1  0.106138  0  0.112678  0.121044  0  1.022197  0
H  H18  1  0.07219620  0.32616016  0.03941072  1  0.136512  0  0.125673  0.101552  0  0.993545  0
H  H19  1  0.45497713  0.35628113  0.04101560  1  0.156154  0  0.126749  0.106093  0  0.990852  0
H  H20  1  0.34334410  0.63629540  0.06008495  1  0.114811  0  0.10376  0.10893  0  1.024484  0
H  H21  1  0.12037548  0.64926355  0.06037379  1  0.079262  0  0.104004  0.106378  0  1.013435  0
H  H22  1  0.35317859  0.67184134  0.36560909  1  0.089874  0  0.101237  0.104251  0  1.00898  0
H  H23  1  0.74047600  0.28752595  0.36659818  1  0.088629  0  0.100047  0.106355  0  1.006187  0
H  H24  1  0.72706604  0.25741875  0.06134076  1  0.085711  0  0.102024  0.105103  0  1.033001  0
H  H25  1  0.75282709  0.03723093  0.06517242  1  0.104349  0  0.108085  0.117145  0  0.991608  0
H  H26  1  0.76579581  0.06610980  0.37037057  1  0.105142  0  0.104025  0.111251  0  0.999431  0
H  H27  1  0.12906407  0.68394737  0.36564058  1  0.079602  0  0.100681  0.102419  0  1.011542  0
H  H28  1  0.93052140  0.69277207  0.46750464  1  0.134596  0  0.124765  0.100125  0  0.993558  0
H  H29  1  0.94112408  0.69546084  0.64406355  1  0.084227  0  0.112572  0.117142  0  1.013315  0
H  H30  1  0.53363804  0.62597747  0.64356784  1  0.123298  0  0.113374  0.127057  0  1.017447  0
H  H31  1  0.54390859  0.63351918  0.46761576  1  0.113469  0  0.122531  0.096905  0  1.001918  0
H  H32  1  0.93921428  0.67819287  0.78492384  1  0.088961  0  0.112911  0.117567  0  1.010085  0
H  H33  1  0.53844242  0.64930920  0.78368936  1  0.106178  0  0.112693  0.121041  0  1.022152  0
H  H34  1  0.92780650  0.67383950  0.96058089  1  0.13652  0  0.125699  0.101572  0  0.993565  0
H  H35  1  0.54502462  0.64371849  0.95898597  1  0.156158  0  0.126735  0.106064  0  0.990786  0
C  C36  1  0.50476275  0.35452988  0.78656198  1  1.55091  0  0.212777  0.582585  0  4.18886  0
C  C37  1  0.63821949  0.34619948  0.78699806  1  -0.035657  0  -0.016778  -0.029084  0  3.965292  0
C  C38  1  0.70343760  0.35186586  0.87318783  1  -0.042552  0  -0.085762  -0.100246  0  3.975336  0
C  C39  1  0.82756539  0.34489641  0.87309230  1  -0.085653  0  -0.083915  -0.094349  0  3.974244  0
C  C40  1  0.69874788  0.33295932  0.70085553  1  -0.022565  0  -0.088637  -0.099405  0  3.99299  0
C  C41  1  0.28632587  0.58442950  0.78837048  1  1.549914  0  0.207438  0.57481  0  4.200708  0
C  C42  1  0.26867868  0.71512331  0.78620438  1  -0.042252  0  -0.022511  -0.038502  0  3.980818  0
C  C43  1  0.25619958  0.76826646  0.69890189  1  -0.083892  0  -0.092826  -0.108685  0  4.000775  0
C  C44  1  0.26364721  0.78481740  0.87133516  1  -0.05678  0  -0.086869  -0.09849  0  3.977232  0
C  C45  1  0.23352061  0.09594859  0.78060259  1  1.567464  0  0.213305  0.590201  0  4.178516  0
C  C46  1  0.23907481  0.96068472  0.78206603  1  -0.046066  0  -0.013329  -0.021426  0  3.951569  0
C  C47  1  0.24908849  0.90667808  0.86931599  1  0.002976  0  -0.083068  -0.092594  0  3.967284  0
C  C48  1  0.24156600  0.89026538  0.69682402  1  -0.040092  0  -0.088796  -0.1047  0  3.990386  0
C  C49  1  0.02279114  0.32663116  0.78713162  1  1.580037  0  0.214627  0.591249  0  4.174128  0
C  C50  1  0.88819217  0.33178763  0.78700737  1  0.016474  0  -0.01631  -0.028934  0  3.964666  0
C  C51  1  0.82281474  0.32606654  0.70083225  1  -0.06418  0  -0.088278  -0.099621  0  3.993255  0
C  C52  1  0.15421248  0.32011582  0.48945072  1  0.423551  0  0.057443  0.100662  0  3.924729  0
C  C53  1  0.15007064  0.31932926  0.39080964  1  0.030235  0  -0.073515  -0.16441  0  3.933342  0
C  C54  1  0.26198276  0.33693487  0.33854731  1  -0.027093  0  0.021042  0.11151  0  3.956256  0
C  C55  1  0.37478733  0.35607989  0.39075355  1  -0.004173  0  -0.071656  -0.159246  0  3.911049  0
C  C56  1  0.37097083  0.35396213  0.48936434  1  0.440601  0  0.055822  0.096047  0  3.923028  0
C  C57  1  0.26131980  0.33580553  0.23326501  1  -0.005142  0  0.018472  0.101774  0  3.964659  0
C  C58  1  0.15089388  0.32813021  0.18092696  1  -0.015321  0  -0.071984  -0.159216  0  3.929467  0
C  C59  1  0.37202880  0.34397270  0.18136193  1  -0.023719  0  -0.072589  -0.155195  0  3.914228  0
C  C60  1  0.15567666  0.33111676  0.08244369  1  0.48845  0  0.059913  0.10511  0  3.913576  0
C  C61  1  0.36982462  0.34723656  0.08290037  1  0.495592  0  0.062139  0.113449  0  3.895188  0
C  C62  1  0.49523967  0.64548386  0.21343436  1  1.550739  0  0.21272  0.582293  0  4.188861  0
C  C63  1  0.36178954  0.65381545  0.21300543  1  -0.036531  0  -0.016858  -0.029098  0  3.965361  0
C  C64  1  0.29656870  0.64814520  0.12681340  1  -0.042443  0  -0.085712  -0.100106  0  3.975122  0
C  C65  1  0.17243818  0.65511079  0.12690667  1  -0.085878  0  -0.083888  -0.094394  0  3.974184  0
C  C66  1  0.30125956  0.66705273  0.29914715  1  -0.02193  0  -0.088536  -0.099424  0  3.993054  0
C  C67  1  0.71367148  0.41556713  0.21164664  1  1.549181  0  0.207432  0.574833  0  4.200714  0
C  C68  1  0.73132443  0.28487448  0.21380282  1  -0.051103  0  -0.022356  -0.038052  0  3.980603  0
C  C69  1  0.74379668  0.23172169  0.30110641  1  -0.074771  0  -0.092887  -0.108902  0  4.000657  0
C  C70  1  0.73634879  0.21518107  0.12867135  1  -0.056841  0  -0.086999  -0.09879  0  3.977401  0
C  C71  1  0.76649096  0.90406173  0.21939861  1  1.56721  0  0.21323  0.590295  0  4.178153  0
C  C72  1  0.76093107  0.03931317  0.21793335  1  -0.046453  0  -0.01333  -0.021581  0  3.951936  0
C  C73  1  0.75092354  0.09333038  0.13068515  1  0.003728  0  -0.083046  -0.092436  0  3.967238  0
C  C74  1  0.75844195  0.10972601  0.30317870  1  -0.040055  0  -0.088674  -0.104505  0  3.990452  0
C  C75  1  0.97719810  0.67335016  0.21285940  1  1.579872  0  0.214698  0.590994  0  4.174629  0
C  C76  1  0.11181440  0.66820936  0.21299198  1  0.016346  0  -0.016387  -0.028765  0  3.964506  0
C  C77  1  0.17718563  0.67393491  0.29916867  1  -0.064379  0  -0.088373  -0.099849  0  3.993325  0
C  C78  1  0.84577623  0.67988239  0.51054725  1  0.423465  0  0.057404  0.100457  0  3.924967  0
C  C79  1  0.84992012  0.68067372  0.60918707  1  0.03058  0  -0.073506  -0.164334  0  3.933551  0
C  C80  1  0.73800869  0.66306720  0.66144865  1  -0.027496  0  0.021078  0.111536  0  3.956505  0
C  C81  1  0.62520412  0.64391842  0.60924371  1  -0.004216  0  -0.071665  -0.159335  0  3.910985  0
C  C82  1  0.62901809  0.64604455  0.51063177  1  0.441217  0  0.055885  0.096197  0  3.922903  0
C  C83  1  0.73867626  0.66418919  0.76672929  1  -0.004174  0  0.018461  0.101758  0  3.964843  0
C  C84  1  0.84910469  0.67187118  0.81906614  1  -0.014985  0  -0.071944  -0.15922  0  3.929264  0
C  C85  1  0.62797297  0.65602692  0.81863395  1  -0.024746  0  -0.072614  -0.155168  0  3.914234  0
C  C86  1  0.84432374  0.66888094  0.91755141  1  0.488488  0  0.059851  0.105136  0  3.913721  0
C  C87  1  0.63017578  0.65275738  0.91709745  1  0.495353  0  0.06216  0.113484  0  3.895046  0
N  N88  1  0.26274187  0.33626565  0.53822508  1  -1.230221  0  -0.32134  -0.199706  0  3.524149  0
N  N89  1  0.26342095  0.34134997  0.03404648  1  -1.237435  0  -0.320495  -0.203559  0  3.520557  0
N  N90  1  0.73725047  0.66374021  0.46177456  1  -1.230926  0  -0.32134  -0.199641  0  3.524284  0
N  N91  1  0.73658336  0.65864129  0.96594984  1  -1.237467  0  -0.320518  -0.203749  0  3.520675  0
O  O92  1  0.45352453  0.36315220  0.86693363  1  -1.171031  0  -0.31232  -0.550636  0  2.362854  0
O  O93  1  0.45257952  0.35265450  0.70553118  1  -1.165875  0  -0.316136  -0.555287  0  2.353871  0
O  O94  1  0.28838507  0.53775529  0.86967171  1  -1.164763  0  -0.316305  -0.546193  0  2.317679  0
O  O95  1  0.29822976  0.52974014  0.70833953  1  -1.175931  0  -0.325071  -0.567838  0  2.339126  0
O  O96  1  0.23534663  0.15406608  0.86097068  1  -1.165132  0  -0.317274  -0.546747  0  2.335072  0
O  O97  1  0.23127950  0.14275987  0.69940767  1  -1.158115  0  -0.323183  -0.548338  0  2.308016  0
O  O98  1  0.07485269  0.32733892  0.86783471  1  -1.167992  0  -0.3123  -0.543979  0  2.342949  0
O  O99  1  0.07533920  0.32410770  0.70641473  1  -1.172505  0  -0.317432  -0.554341  0  2.340556  0
O  O100  1  0.54647217  0.63684536  0.13307072  1  -1.171068  0  -0.31232  -0.55055  0  2.363061  0
O  O101  1  0.54742838  0.64735568  0.29447073  1  -1.165844  0  -0.316096  -0.555118  0  2.353342  0
O  O102  1  0.71162232  0.46225299  0.13034650  1  -1.164397  0  -0.316383  -0.546367  0  2.317888  0
O  O103  1  0.70176164  0.47025064  0.29168096  1  -1.175748  0  -0.325059  -0.567899  0  2.338915  0
O  O104  1  0.76465788  0.84593364  0.13902805  1  -1.165081  0  -0.317347  -0.546866  0  2.334762  0
O  O105  1  0.76873968  0.85723288  0.30059153  1  -1.15804  0  -0.323141  -0.548404  0  2.307788  0
O  O106  1  0.92515643  0.67266098  0.13215407  1  -1.167788  0  -0.312396  -0.543994  0  2.343137  0
O  O107  1  0.92465216  0.67585960  0.29357014  1  -1.17229  0  -0.317343  -0.554064  0  2.340997  0
