# generated using pymatgen
data_FeH14(C3N2)6
_symmetry_space_group_name_H-M   'P 1'
_cell_length_a   7.16232907
_cell_length_b   8.04148344
_cell_length_c   9.58638918
_cell_angle_alpha   65.00491722
_cell_angle_beta   66.76109496
_cell_angle_gamma   72.71172551
_symmetry_Int_Tables_number   1
_chemical_formula_structural   FeH14(C3N2)6
_chemical_formula_sum   'Fe1 H14 C18 N12'
_cell_volume   454.14702645
_cell_formula_units_Z   1
loop_
 _symmetry_equiv_pos_site_id
 _symmetry_equiv_pos_as_xyz
  1  'x, y, z'
loop_
 _atom_site_type_symbol
 _atom_site_label
 _atom_site_symmetry_multiplicity
 _atom_site_fract_x
 _atom_site_fract_y
 _atom_site_fract_z
 _atom_site_occupancy
 _atom_site_hle17_bader_spin_density
 _atom_site_hle17_ddec_charge
 _atom_site_hle17_ddec_spin_density
 _atom_site_hle17_ddec_sum_bond_order
 _atom_site_hle17_magmom
 _atom_site_hse06_10hf_bader_spin_density
 _atom_site_hse06_10hf_ddec_charge
 _atom_site_hse06_10hf_ddec_spin_density
 _atom_site_hse06_10hf_ddec_sum_bond_order
 _atom_site_hse06_10hf_magmom
 _atom_site_hse06_bader_spin_density
 _atom_site_hse06_ddec_charge
 _atom_site_hse06_ddec_spin_density
 _atom_site_hse06_ddec_sum_bond_order
 _atom_site_hse06_magmom
 _atom_site_pbe_bader_spin_density
 _atom_site_pbe_cm5_charge
 _atom_site_pbe_ddec_charge
 _atom_site_pbe_ddec_spin_density
 _atom_site_pbe_ddec_sum_bond_order
 _atom_site_pbe_magmom
Fe  Fe0  1  0.00915663  0.00206101  0.47455723  1  0  0.73827  0  3.097305  0  0  0.709931  0  3.609965  0  0  0.758503  0  3.539905  0  0  0.808303  0.682631  0  3.653478  0
H  H1  1  0.85483429  0.33606872  0.65377878  1  0  0.116324  0  0.952711  0  0  0.1261  0  1.012031  0  0  0.128298  0  1.011286  0  0  0.110076  0.124531  0  1.012691  0
H  H2  1  0.15044492  0.65363733  0.34565084  1  0  0.118061  0  0.958361  0  0  0.125745  0  1.020426  0  0  0.128039  0  1.019322  0  0  0.110806  0.12405  0  1.02135  0
H  H3  1  0.73869343  0.49835920  0.85446076  1  0  0.091823  0  0.97185  0  0  0.096334  0  1.044223  0  0  0.098942  0  1.043505  0  0  0.099337  0.094405  0  1.044869  0
H  H4  1  0.27217143  0.50259538  0.13749521  1  0  0.092325  0  0.971492  0  0  0.096674  0  1.04449  0  0  0.099186  0  1.043622  0  0  0.099073  0.094754  0  1.045432  0
H  H5  1  0.62627452  0.32487827  0.14784063  1  0  0.081129  0  0.982293  0  0  0.093801  0  1.04598  0  0  0.095134  0  1.046608  0  0  0.100521  0.092809  0  1.045575  0
H  H6  1  0.38247295  0.68691862  0.84519830  1  0  0.084495  0  0.980087  0  0  0.094979  0  1.045575  0  0  0.096576  0  1.045945  0  0  0.100653  0.093899  0  1.045173  0
H  H7  1  0.63584726  0.98284920  0.25712976  1  0  0.104861  0  0.968902  0  0  0.115237  0  1.031263  0  0  0.116639  0  1.031638  0  0  0.106357  0.114472  0  1.030612  0
H  H8  1  0.36342634  0.02965528  0.74735368  1  0  0.108275  0  0.963983  0  0  0.118346  0  1.025456  0  0  0.119943  0  1.025453  0  0  0.108005  0.117164  0  1.025687  0
H  H9  1  0.59197245  0.60732197  0.22092424  1  0  0.103348  0  0.966226  0  0  0.118738  0  1.039421  0  0  0.118514  0  1.041144  0  0  0.102255  0.11892  0  1.038231  0
H  H10  1  0.39790712  0.40155526  0.80446000  1  0  0.106041  0  0.966082  0  0  0.120108  0  1.039309  0  0  0.1206  0  1.040589  0  0  0.102352  0.119528  0  1.038511  0
H  H11  1  0.79850341  0.63936075  0.26274952  1  0  0.110404  0  0.949659  0  0  0.130017  0  1.013694  0  0  0.129841  0  1.015253  0  0  0.109861  0.13  0  1.012874  0
H  H12  1  0.21460248  0.35935973  0.74508779  1  0  0.11462  0  0.949034  0  0  0.131281  0  1.015813  0  0  0.131819  0  1.016816  0  0  0.109496  0.130531  0  1.015561  0
H  H13  1  0.85240480  0.50241018  0.14286335  1  0  0.113914  0  0.966228  0  0  0.125887  0  1.045162  0  0  0.127084  0  1.044254  0  0  0.113348  0.125005  0  1.045883  0
H  H14  1  0.12967353  0.49708800  0.86967103  1  0  0.117358  0  0.961339  0  0  0.126964  0  1.041063  0  0  0.128603  0  1.040055  0  0  0.113145  0.125494  0  1.042067  0
C  C15  1  0.59332025  0.24817254  0.46100330  1  0  0.473707  0  3.939863  0  0  0.443928  0  4.228485  0  0  0.469998  0  4.236734  0  0  0.307868  0.425857  0  4.222671  0
C  C16  1  0.40717825  0.74672405  0.52722265  1  0  0.480896  0  3.938664  0  0  0.450802  0  4.226283  0  0  0.477096  0  4.23407  0  0  0.310964  0.432544  0  4.220757  0
C  C17  1  0.28240441  0.24475413  0.45693212  1  0  0.466559  0  3.944753  0  0  0.436658  0  4.234829  0  0  0.462598  0  4.242985  0  0  0.305436  0.418535  0  4.229415  0
C  C18  1  0.71822694  0.75028551  0.53137069  1  0  0.466912  0  3.947787  0  0  0.436094  0  4.237496  0  0  0.462511  0  4.244705  0  0  0.307724  0.417567  0  4.232565  0
C  C19  1  0.81637643  0.06730978  0.84488493  1  0  0.09969  0  3.836229  0  0  0.097846  0  4.097523  0  0  0.097628  0  4.121555  0  0  0.095491  0.097541  0  4.081118  0
C  C20  1  0.18044377  0.92789313  0.16171301  1  0  0.111953  0  3.789155  0  0  0.106193  0  4.049192  0  0  0.10753  0  4.071608  0  0  0.097739  0.104913  0  4.034737  0
C  C21  1  0.80965836  0.26073679  0.78363625  1  0  -0.117994  0  3.723639  0  0  -0.136473  0  3.970791  0  0  -0.136861  0  3.990087  0  0  -0.083658  -0.13557  0  3.957018  0
C  C22  1  0.19357156  0.73417706  0.21684280  1  0  -0.122957  0  3.719274  0  0  -0.142125  0  3.971529  0  0  -0.142291  0  3.988961  0  0  -0.084007  -0.141849  0  3.959844  0
C  C23  1  0.74199224  0.34892406  0.89595015  1  0  -0.083942  0  3.76109  0  0  -0.097755  0  4.016581  0  0  -0.101651  0  4.039341  0  0  -0.095456  -0.094903  0  4.000568  0
C  C24  1  0.26494756  0.65209644  0.09981836  1  0  -0.073267  0  3.738525  0  0  -0.090051  0  3.997791  0  0  -0.092074  0  4.018122  0  0  -0.092936  -0.088804  0  3.984315  0
C  C25  1  0.67928873  0.24907540  0.06473984  1  0  -0.050828  0  3.745869  0  0  -0.073485  0  4.004445  0  0  -0.074503  0  4.027451  0  0  -0.091881  -0.072053  0  3.988146  0
C  C26  1  0.32595255  0.75788994  0.93230942  1  0  -0.046399  0  3.734177  0  0  -0.070376  0  3.99697  0  0  -0.070757  0  4.017615  0  0  -0.091028  -0.069963  0  3.983244  0
C  C27  1  0.68426071  0.05816433  0.12734299  1  0  -0.126978  0  3.72463  0  0  -0.146362  0  3.985341  0  0  -0.149623  0  4.006834  0  0  -0.0901  -0.144535  0  3.970412  0
C  C28  1  0.31573142  0.94902260  0.87606933  1  0  -0.123988  0  3.720138  0  0  -0.145189  0  3.983294  0  0  -0.147268  0  4.003034  0  0  -0.090081  -0.144855  0  3.971109  0
C  C29  1  0.75598962  0.96889421  0.01379740  1  0  0.083204  0  3.802429  0  0  0.058321  0  4.044332  0  0  0.061982  0  4.066993  0  0  0.102402  0.056294  0  4.028943  0
C  C30  1  0.23975925  0.03222143  0.99430074  1  0  0.084875  0  3.803666  0  0  0.058525  0  4.049633  0  0  0.061533  0  4.071299  0  0  0.10609  0.056516  0  4.035897  0
C  C31  1  0.75464424  0.62425391  0.17202656  1  0  -0.189422  0  3.632045  0  0  -0.304448  0  3.875844  0  0  -0.30156  0  3.885259  0  0  -0.129499  -0.306059  0  3.86942  0
C  C32  1  0.23902410  0.37796141  0.84300735  1  0  -0.190593  0  3.616009  0  0  -0.302398  0  3.861362  0  0  -0.300857  0  3.869495  0  0  -0.128053  -0.302884  0  3.856427  0
N  N33  1  0.76360972  0.18170799  0.46039791  1  0  -0.498392  0  3.095038  0  0  -0.479134  0  3.402862  0  0  -0.501367  0  3.404093  0  0  -0.388836  -0.464604  0  3.401115  0
N  N34  1  0.24623922  0.81794843  0.50721714  1  0  -0.503733  0  3.098936  0  0  -0.484444  0  3.407431  0  0  -0.506321  0  3.407842  0  0  -0.391476  -0.470213  0  3.40613  0
N  N35  1  0.40704506  0.33149157  0.46058178  1  0  -0.469204  0  3.244853  0  0  -0.423224  0  3.512476  0  0  -0.444265  0  3.51212  0  0  -0.315843  -0.407942  0  3.512794  0
N  N36  1  0.58127802  0.65765106  0.55368361  1  0  -0.470221  0  3.255749  0  0  -0.423134  0  3.522445  0  0  -0.444233  0  3.522075  0  0  -0.316198  -0.407658  0  3.522612  0
N  N37  1  0.15949730  0.17621484  0.45552266  1  0  -0.502517  0  3.122042  0  0  -0.484001  0  3.433784  0  0  -0.506095  0  3.434582  0  0  -0.39114  -0.470207  0  3.433142  0
N  N38  1  0.85025913  0.82335016  0.51321864  1  0  -0.504917  0  3.12297  0  0  -0.485152  0  3.434194  0  0  -0.506707  0  3.433904  0  0  -0.393764  -0.471588  0  3.434093  0
N  N39  1  0.87917890  0.93882132  0.76937430  1  0  -0.191694  0  3.078629  0  0  -0.172433  0  3.382045  0  0  -0.187487  0  3.398028  0  0  -0.162042  -0.161006  0  3.370453  0
N  N40  1  0.11213989  0.05389075  0.24179531  1  0  -0.164434  0  3.293266  0  0  -0.14124  0  3.612203  0  0  -0.16247  0  3.627397  0  0  -0.212232  -0.127161  0  3.601833  0
N  N41  1  0.86285679  0.77263641  0.87825159  1  0  -0.071648  0  2.877929  0  0  -0.075902  0  3.151152  0  0  -0.070812  0  3.163506  0  0  -0.061426  -0.078745  0  3.142285  0
N  N42  1  0.12578044  0.22385931  0.13497862  1  0  -0.060903  0  2.820051  0  0  -0.072157  0  3.094852  0  0  -0.061483  0  3.103201  0  0  -0.063772  -0.080472  0  3.090622  0
N  N43  1  0.78891783  0.78734928  0.02678925  1  0  0.041037  0  3.548013  0  0  0.161611  0  3.732122  0  0  0.149215  0  3.757883  0  0  -0.127765  0.169078  0  3.71591  0
N  N44  1  0.20203990  0.21239544  0.98600707  1  0  0.053951  0  3.548461  0  0  0.16936  0  3.738825  0  0  0.160868  0  3.759323  0  0  -0.126111  0.174032  0  3.726343  0
