# generated using pymatgen
data_Cu5H20C16(NO3)6
_symmetry_space_group_name_H-M   'P 1'
_cell_length_a   10.64484670
_cell_length_b   12.01869406
_cell_length_c   11.97890443
_cell_angle_alpha   90.01043977
_cell_angle_beta   104.46879820
_cell_angle_gamma   90.04197842
_symmetry_Int_Tables_number   1
_chemical_formula_structural   Cu5H20C16(NO3)6
_chemical_formula_sum   'Cu10 H40 C32 N12 O36'
_cell_volume   1483.93996428
_cell_formula_units_Z   2
loop_
 _symmetry_equiv_pos_site_id
 _symmetry_equiv_pos_as_xyz
  1  'x, y, z'
loop_
 _atom_site_type_symbol
 _atom_site_label
 _atom_site_symmetry_multiplicity
 _atom_site_fract_x
 _atom_site_fract_y
 _atom_site_fract_z
 _atom_site_occupancy
 _atom_site_hle17_ddec_charge
 _atom_site_hle17_ddec_spin_density
 _atom_site_hle17_ddec_sum_bond_order
 _atom_site_hle17_magmom
 _atom_site_hse06_10hf_ddec_charge
 _atom_site_hse06_10hf_ddec_spin_density
 _atom_site_hse06_10hf_ddec_sum_bond_order
 _atom_site_hse06_10hf_magmom
 _atom_site_hse06_ddec_charge
 _atom_site_hse06_ddec_spin_density
 _atom_site_hse06_ddec_sum_bond_order
 _atom_site_hse06_magmom
 _atom_site_pbe_cm5_charge
 _atom_site_pbe_ddec_charge
 _atom_site_pbe_ddec_spin_density
 _atom_site_pbe_ddec_sum_bond_order
 _atom_site_pbe_magmom
Cu  Cu0  1  0.50002293  0.50012848  0.49999990  1  0.906018  0.696239  1.772159  0.532  0.884517  0.796766  2.152292  0.655  0.972363  0.869656  2.090463  0.74  0.745794  0.818277  0.724567  2.202934  0.585
Cu  Cu1  1  0.99999795  0.00012398  0.00002947  1  0.907113  0.7024  1.774909  0.536  0.884061  0.797758  2.155515  0.656  0.971552  0.869355  2.093283  0.739  0.747113  0.81895  0.726934  2.205261  0.586
Cu  Cu2  1  0.70710256  0.69237483  0.11531097  1  0.934271  0.584679  1.778151  0.448  0.927514  0.759342  2.179881  0.625  1.039728  0.861772  2.084368  0.734  0.719609  0.851033  0.594155  2.242161  0.48
Cu  Cu3  1  0.79307635  0.19245442  0.38460828  1  0.934847  -0.584767  1.781836  -0.439  0.928061  -0.765638  2.183827  -0.624  1.039541  -0.875362  2.088354  -0.733  0.721089  0.851829  -0.582801  2.245901  -0.469
Cu  Cu4  1  0.29307794  0.30757096  0.88444605  1  0.934073  0.584762  1.77953  0.448  0.927371  0.759627  2.18145  0.625  1.036049  0.861983  2.090901  0.734  0.720141  0.851335  0.594215  2.243256  0.48
Cu  Cu5  1  0.20675338  0.80751043  0.61552664  1  0.934499  -0.584913  1.783447  -0.439  0.927358  -0.765826  2.18574  -0.624  1.023076  -0.875407  2.116523  -0.733  0.721487  0.851649  -0.583042  2.247195  -0.469
Cu  Cu6  1  0.87891316  0.83652547  0.51903284  1  0.939456  0.605162  1.819166  0.459  0.922691  0.76822  2.222797  0.629  1.022733  0.856752  2.131128  0.725  0.74293  0.861299  0.60106  2.275422  0.482
Cu  Cu7  1  0.62103875  0.33658974  0.98114567  1  0.939908  -0.601044  1.824915  -0.446  0.922769  -0.771896  2.228658  -0.625  1.02192  -0.869597  2.137865  -0.724  0.744937  0.862918  -0.586448  2.280418  -0.468
Cu  Cu8  1  0.12096374  0.16349679  0.48093820  1  0.939187  0.604938  1.821877  0.459  0.923102  0.768146  2.224517  0.629  1.022788  0.856708  2.133581  0.725  0.74367  0.861826  0.600688  2.277265  0.482
Cu  Cu9  1  0.37911538  0.66342763  0.01895940  1  0.940736  -0.600846  1.827098  -0.446  0.923603  -0.77185  2.230803  -0.625  1.022653  -0.869574  2.139856  -0.724  0.746253  0.864102  -0.586173  2.282292  -0.467
H  H10  1  0.79408112  0.59162003  0.60006655  1  0.421605  -2.2e-05  0.876109  0.0  0.397788  -4e-05  0.929266  0.0  0.408286  -5.5e-05  0.914113  0.0  0.289994  0.390627  -1.2e-05  0.939653  0.0
H  H11  1  0.70580997  0.09165567  0.89967759  1  0.421911  0.000158  0.875476  0.0  0.398062  0.000217  0.928746  0.0  0.408492  0.000115  0.913671  0.0  0.290064  0.391043  0.000286  0.938942  0.0
H  H12  1  0.20610994  0.40821513  0.40000422  1  0.42209  -2.7e-05  0.875288  0.0  0.398556  -4.3e-05  0.927923  0.0  0.409022  -5.7e-05  0.912821  0.0  0.290696  0.391421  -1.5e-05  0.938281  0.0
H  H13  1  0.29390309  0.90818265  0.10019321  1  0.421983  0.000154  0.875222  0.0  0.398293  0.000215  0.928128  0.0  0.408722  0.000113  0.913076  0.0  0.290635  0.391288  0.000282  0.938298  0.0
H  H14  1  0.91500472  0.64992420  0.67988866  1  0.408958  1.9e-05  0.840635  0.0  0.398527  1.4e-05  0.890549  0.0  0.406409  1.8e-05  0.880801  0.0  0.313266  0.392777  1e-05  0.897258  0.0
H  H15  1  0.58474979  0.14977179  0.82008576  1  0.409467  -4.5e-05  0.840476  0.0  0.398858  -2.4e-05  0.89052  0.0  0.406669  -2.8e-05  0.88055  0.0  0.313537  0.393385  -1.6e-05  0.896887  0.0
H  H16  1  0.08480324  0.35026198  0.32040084  1  0.409774  1.8e-05  0.839634  0.0  0.399297  1.4e-05  0.889656  0.0  0.407197  1.8e-05  0.87977  0.0  0.313403  0.393552  1e-05  0.896396  0.0
H  H17  1  0.41531632  0.85040361  0.17964977  1  0.410007  -4.8e-05  0.838779  0.0  0.399271  -2.4e-05  0.889151  0.0  0.407093  -2.8e-05  0.8798  0.0  0.313693  0.393798  -1.6e-05  0.895536  0.0
H  H18  1  0.38616399  0.25146497  0.42190759  1  0.415687  0.000114  0.88258  0.0  0.390833  0.000183  0.938436  0.0  0.401913  0.000104  0.922052  0.0  0.280396  0.382468  0.00022  0.950739  0.0
H  H19  1  0.11398125  0.75169330  0.07824115  1  0.415414  -8.4e-05  0.882724  0.0  0.390739  -0.00014  0.938323  0.0  0.401809  -7.1e-05  0.921971  0.0  0.280683  0.382281  -0.000161  0.950723  0.0
H  H20  1  0.61380373  0.74844914  0.57788849  1  0.415864  0.000113  0.882421  0.0  0.391037  0.000182  0.938108  0.0  0.4021  0.000104  0.921763  0.0  0.280528  0.382655  0.000219  0.950429  0.0
H  H21  1  0.88607258  0.24824084  0.92194407  1  0.415377  -8.4e-05  0.882742  0.0  0.390999  -0.000138  0.937914  0.0  0.402044  -7e-05  0.921589  0.0  0.28068  0.382543  -0.000159  0.950314  0.0
H  H22  1  0.51793928  0.29918714  0.40626223  1  0.403901  -0.000172  0.904057  0.0  0.374288  -0.000163  0.969099  0.0  0.384954  -0.000119  0.953244  0.0  0.277551  0.366734  -0.000175  0.980308  0.0
H  H23  1  0.98213338  0.79924601  0.09377434  1  0.40418  -4.8e-05  0.903423  0.0  0.374437  -2.9e-05  0.968685  0.0  0.385069  -7.5e-05  0.95288  0.0  0.277804  0.366965  2e-05  0.979779  0.0
H  H24  1  0.48192465  0.70089750  0.59352976  1  0.404229  -0.000172  0.903519  0.0  0.374609  -0.000162  0.96853  0.0  0.385244  -0.000118  0.952738  0.0  0.277904  0.367033  -0.000174  0.979765  0.0
H  H25  1  0.01796923  0.20085205  0.90636091  1  0.403952  -5e-05  0.903727  0.0  0.374444  -2.9e-05  0.968642  0.0  0.385046  -7.5e-05  0.952897  0.0  0.277867  0.366954  2.1e-05  0.979757  0.0
H  H26  1  0.67557925  0.45710837  0.75486698  1  0.104729  0.00016  0.927476  0.0  0.115328  0.000244  0.983102  0.0  0.117258  0.000213  0.980177  0.0  0.140836  0.113106  0.000174  0.98621  0.0
H  H27  1  0.82505830  0.95699919  0.74560074  1  0.105388  -0.00045  0.927289  0.0  0.115907  -0.000266  0.982981  0.0  0.117898  -0.000218  0.980041  0.0  0.140842  0.113613  -0.000288  0.986052  0.0
H  H28  1  0.32451345  0.54298138  0.24532866  1  0.104907  0.000163  0.927296  0.0  0.115504  0.000245  0.982852  0.0  0.117446  0.000213  0.979904  0.0  0.140951  0.113279  0.000173  0.985977  0.0
H  H29  1  0.17494290  0.04309467  0.25437234  1  0.105108  -0.000457  0.927681  0.0  0.11572  -0.000266  0.98326  0.0  0.117708  -0.000218  0.980315  0.0  0.140846  0.113426  -0.000287  0.98635  0.0
H  H30  1  0.27642319  0.40288043  0.61896813  1  0.106886  -0.000687  0.927714  0.0  0.118003  -0.00043  0.982997  0.0  0.119091  -0.000315  0.981303  0.0  0.142215  0.116531  -0.000455  0.984836  0.0
H  H31  1  0.22424170  0.90291250  0.88111624  1  0.106507  0.000306  0.928089  0.0  0.118261  0.000357  0.982586  0.0  0.119355  0.000283  0.980851  0.0  0.142023  0.116655  0.000325  0.984681  0.0
H  H32  1  0.72383631  0.59694390  0.38066219  1  0.10635  -0.000682  0.928525  0.0  0.118338  -0.000431  0.98267  0.0  0.119364  -0.000315  0.981048  0.0  0.142239  0.11688  -0.000457  0.984472  0.0
H  H33  1  0.77557072  0.09692590  0.11924186  1  0.106316  0.000306  0.928631  0.0  0.118627  0.000355  0.982335  0.0  0.119611  0.000282  0.980739  0.0  0.142298  0.117067  0.000325  0.984354  0.0
H  H34  1  0.96611543  0.60444051  0.06183530  1  0.123865  -0.000736  0.960106  -0.001  0.130504  -0.000641  1.024142  -0.001  0.134521  -0.000452  1.021598  0.0  0.109189  0.12806  -0.000681  1.025597  -0.001
H  H35  1  0.53423434  0.10453776  0.43845203  1  0.123916  0.000754  0.959911  0.001  0.130539  0.000642  1.023875  0.001  0.134595  0.000453  1.021287  0.0  0.109092  0.127875  0.000689  1.025582  0.001
H  H36  1  0.03398286  0.39556435  0.93812700  1  0.12355  -0.000752  0.959875  -0.001  0.129968  -0.000647  1.02414  -0.001  0.133971  -0.000456  1.021613  0.0  0.109158  0.12754  -0.000688  1.025592  -0.001
H  H37  1  0.46567126  0.89551780  0.56165318  1  0.123644  0.000764  0.960311  0.001  0.130271  0.000647  1.024279  0.001  0.134375  0.000455  1.021571  0.0  0.109205  0.127628  0.000699  1.025979  0.001
H  H38  1  0.09728913  0.79445792  0.34416814  1  0.077495  -0.000623  0.88748  -0.001  0.08549  -7.7e-05  0.943467  0.0  0.084946  3.1e-05  0.943302  0.0  0.111742  0.0862  -0.000153  0.943661  0.0
H  H39  1  0.40317154  0.29445105  0.15611258  1  0.077654  0.000356  0.887149  0.001  0.085622  3.5e-05  0.94301  0.0  0.084985  -5.5e-05  0.94293  0.0  0.111967  0.086533  0.000146  0.943034  0.0
H  H40  1  0.90307166  0.20537314  0.65595409  1  0.077265  -0.000629  0.888023  -0.001  0.08558  -8.5e-05  0.943785  0.0  0.085035  2.5e-05  0.943657  0.0  0.111775  0.086288  -0.000161  0.943974  0.0
H  H41  1  0.59638618  0.70536392  0.84375257  1  0.07714  0.000375  0.888231  0.001  0.085277  4.2e-05  0.944005  0.0  0.084657  -5.1e-05  0.943966  0.0  0.111714  0.086202  0.000152  0.944017  0.0
H  H42  1  0.04972344  0.57377812  0.45706931  1  0.129931  -0.000225  0.914393  0.0  0.14488  -1.7e-05  0.971639  0.0  0.146854  -4.1e-05  0.970335  0.0  0.110599  0.143008  -2.3e-05  0.973116  0.0
H  H43  1  0.45011155  0.07400275  0.04256114  1  0.130041  -0.000466  0.914253  -0.001  0.144724  -0.000255  0.971835  0.0  0.146706  -0.000212  0.970561  0.0  0.11053  0.142914  -0.000231  0.973252  0.0
H  H44  1  0.95049766  0.42646065  0.54366106  1  0.129157  -0.000229  0.914588  0.0  0.144329  -2.4e-05  0.971548  0.0  0.146228  -4.6e-05  0.970292  0.0  0.110115  0.142505  -3.1e-05  0.973002  0.0
H  H45  1  0.54963919  0.92624570  0.95654596  1  0.129128  -0.000469  0.914246  -0.001  0.144337  -0.000258  0.9713  0.0  0.146279  -0.000213  0.970075  0.0  0.110238  0.142541  -0.000235  0.972703  0.0
H  H46  1  0.08653230  0.58509684  0.32167253  1  0.126817  0.000496  0.923163  0.001  0.14013  0.000641  0.980482  0.001  0.14248  0.000459  0.979272  0.001  0.109051  0.138016  0.000687  0.981661  0.001
H  H47  1  0.41379870  0.08512926  0.17823908  1  0.127551  -0.001147  0.923034  -0.001  0.140732  -0.000767  0.980251  -0.001  0.143058  -0.000571  0.97907  -0.001  0.109569  0.138878  -0.000746  0.981169  -0.001
H  H48  1  0.91329320  0.41452857  0.67881286  1  0.126486  0.0005  0.922711  0.001  0.139867  0.00064  0.979996  0.001  0.142178  0.000458  0.978753  0.001  0.108938  0.137794  0.000688  0.981177  0.001
H  H49  1  0.58636129  0.91443959  0.82120777  1  0.127131  -0.001154  0.922253  -0.001  0.140274  -0.000771  0.97984  -0.001  0.142565  -0.000573  0.978717  -0.001  0.109158  0.138447  -0.000751  0.980727  -0.001
C  C50  1  0.90359277  0.73798322  0.32144361  1  0.634575  -0.009554  3.796607  -0.014  0.595905  -0.002557  4.094627  -0.006  0.633016  -0.00237  4.091321  -0.005  0.217085  0.569865  -0.001886  4.097846  -0.005
C  C51  1  0.59678567  0.23790260  0.17858792  1  0.633179  0.010696  3.794619  0.016  0.593985  0.003437  4.094075  0.007  0.631036  0.002792  4.090734  0.006  0.216999  0.567954  0.003248  4.096811  0.007
C  C52  1  0.09651355  0.26203994  0.67844035  1  0.634558  -0.009575  3.794849  -0.014  0.595673  -0.002565  4.093446  -0.006  0.632754  -0.002377  4.089735  -0.005  0.217361  0.56965  -0.001885  4.096684  -0.005
C  C53  1  0.40307225  0.76213049  0.82154582  1  0.634032  0.010738  3.793979  0.016  0.594523  0.003447  4.093954  0.007  0.631769  0.002798  4.089058  0.006  0.217514  0.568514  0.003255  4.09672  0.007
C  C54  1  0.24463056  0.62066946  0.46669523  1  0.722314  -0.000734  3.768875  -0.002  0.683141  0.000402  4.066705  0.0  0.723026  5.9e-05  4.058734  0.0  0.228661  0.654891  0.000815  4.072312  0.0
C  C55  1  0.25536778  0.12077145  0.03349541  1  0.722413  -0.004161  3.769548  -0.008  0.68324  0.000818  4.067704  -0.002  0.723064  0.000198  4.06054  -0.002  0.228535  0.654945  0.001394  4.0734  -0.002
C  C56  1  0.75536376  0.37951842  0.53331721  1  0.722491  -0.00072  3.767885  -0.002  0.68291  0.000404  4.066043  0.0  0.722738  6.2e-05  4.058938  0.0  0.228176  0.654654  0.000819  4.071663  0.0
C  C57  1  0.74459385  0.87936815  0.96641535  1  0.72178  -0.004162  3.769892  -0.008  0.682729  0.000808  4.067878  -0.002  0.722598  0.000188  4.06084  -0.002  0.227977  0.654433  0.001388  4.073547  -0.002
C  C58  1  0.57534019  0.43397090  0.74554483  1  0.223589  0.002202  3.679265  0.003  0.177225  0.00183  3.94688  0.002  0.194722  0.001503  3.960829  0.002  0.150067  0.165554  0.001671  3.939105  0.002
C  C59  1  0.92521890  0.93386120  0.75477921  1  0.221374  -0.007766  3.677975  -0.008  0.175189  -0.002552  3.945463  -0.003  0.192388  -0.003185  3.959783  -0.004  0.14896  0.163904  -0.001847  3.937388  -0.002
C  C60  1  0.42472182  0.56615211  0.25454291  1  0.223923  0.002151  3.678652  0.003  0.177582  0.001821  3.945988  0.002  0.195122  0.001492  3.959827  0.002  0.150066  0.165904  0.001666  3.938264  0.002
C  C61  1  0.07480157  0.06625263  0.24524243  1  0.222099  -0.007759  3.678446  -0.008  0.175656  -0.002564  3.945955  -0.003  0.192946  -0.003196  3.960052  -0.004  0.149148  0.16434  -0.001852  3.937921  -0.002
C  C62  1  0.37208298  0.40711195  0.67701913  1  0.230787  -0.005774  3.656503  -0.005  0.185714  -0.001447  3.923392  -0.001  0.204139  -0.002392  3.935899  -0.002  0.152953  0.174077  -0.000816  3.915398  0.0
C  C63  1  0.12844930  0.90715192  0.82326163  1  0.230264  0.001253  3.656327  0.001  0.185092  0.001464  3.922501  0.001  0.203813  0.00137  3.933996  0.001  0.152753  0.172881  0.001282  3.915319  0.001
C  C64  1  0.62805271  0.59291038  0.32279128  1  0.23181  -0.005812  3.656912  -0.005  0.185878  -0.001432  3.924002  -0.001  0.204378  -0.002379  3.936754  -0.002  0.153477  0.174284  -0.00082  3.915886  0.0
C  C65  1  0.87150548  0.09285458  0.17693893  1  0.231  0.00125  3.6559  0.001  0.185376  0.001483  3.922207  0.001  0.204084  0.001391  3.934772  0.001  0.153201  0.173177  0.0013  3.914903  0.001
C  C66  1  0.82164262  0.47393993  0.00543428  1  0.673645  0.002745  3.894201  0.005  0.642939  0.000574  4.178376  0.003  0.680137  0.000769  4.172275  0.002  0.198668  0.616993  0.000211  4.181758  0.002
C  C67  1  0.67829655  0.97387642  0.49457381  1  0.673126  -0.002986  3.894405  -0.006  0.642301  -0.000622  4.178174  -0.003  0.67946  -0.000822  4.172049  -0.002  0.198272  0.616368  -0.000274  4.182007  -0.002
C  C68  1  0.17861688  0.52593102  0.99449741  1  0.673539  0.002737  3.894687  0.005  0.642428  0.000569  4.179438  0.003  0.679508  0.000765  4.173378  0.002  0.198534  0.616507  0.000203  4.182817  0.002
C  C69  1  0.32146435  0.02599189  0.50551393  1  0.673866  -0.002985  3.894671  -0.006  0.643158  -0.000619  4.178345  -0.003  0.680211  -0.00082  4.171868  -0.002  0.198581  0.617256  -0.000271  4.182173  -0.002
C  C70  1  0.95231184  0.52379773  0.01885831  1  -0.161069  -0.004327  3.655624  -0.005  -0.17734  -0.003233  3.897439  -0.004  -0.182239  -0.002228  3.909853  -0.003  -0.084808  -0.173808  -0.003475  3.888288  -0.004
C  C71  1  0.54775928  0.02380931  0.48119496  1  -0.161323  0.004324  3.655815  0.005  -0.176928  0.003208  3.896947  0.004  -0.181757  0.002186  3.909216  0.003  -0.084989  -0.173694  0.00356  3.888516  0.004
C  C72  1  0.04790014  0.47622630  0.98107859  1  -0.159728  -0.004328  3.6556  -0.005  -0.175577  -0.003266  3.897494  -0.004  -0.180425  -0.002255  3.909946  -0.003  -0.08442  -0.172125  -0.003505  3.888358  -0.004
C  C73  1  0.45206281  0.97622543  0.51891070  1  -0.160617  0.004324  3.656705  0.005  -0.176302  0.003243  3.897812  0.004  -0.181052  0.002216  3.910025  0.003  -0.084973  -0.173138  0.003583  3.889405  0.004
C  C74  1  0.04426913  0.74166650  0.39311202  1  0.131535  0.00917  3.695365  0.011  0.118614  0.006225  3.948411  0.008  0.125678  0.004367  3.96337  0.005  -0.013809  0.111277  0.006735  3.938202  0.008
C  C75  1  0.45607659  0.24173760  0.10703403  1  0.131738  -0.005847  3.694169  -0.008  0.119264  -0.003843  3.947164  -0.005  0.126322  -0.002904  3.962848  -0.004  -0.01385  0.112053  -0.003062  3.936692  -0.004
C  C76  1  0.95579092  0.25832255  0.60696024  1  0.13163  0.009164  3.69587  0.011  0.11826  0.006205  3.949609  0.008  0.125074  0.00434  3.965718  0.005  -0.01443  0.110955  0.006735  3.93943  0.008
C  C77  1  0.54382851  0.75821061  0.89291495  1  0.131919  -0.005884  3.696272  -0.008  0.119025  -0.003828  3.950052  -0.005  0.125893  -0.002884  3.966411  -0.004  -0.014213  0.111842  -0.00306  3.93952  -0.004
C  C78  1  0.10162864  0.62469528  0.40645751  1  -0.322797  0.00938  3.680376  0.01  -0.369849  0.006935  3.928013  0.007  -0.377044  0.004923  3.934685  0.005  -0.166114  -0.364338  0.007993  3.92368  0.008
C  C79  1  0.39844427  0.12477978  0.09346092  1  -0.323173  0.007433  3.680337  0.01  -0.370538  0.003579  3.928552  0.005  -0.378031  0.002003  3.935741  0.003  -0.166187  -0.364905  0.004902  3.92383  0.006
C  C80  1  0.89837145  0.37525632  0.59383420  1  -0.321851  0.009366  3.678552  0.01  -0.368916  0.006942  3.926351  0.007  -0.376066  0.00493  3.933223  0.005  -0.165345  -0.363515  0.007998  3.922091  0.008
C  C81  1  0.60155701  0.87510770  0.90616570  1  -0.321243  0.007401  3.678725  0.009  -0.369018  0.003556  3.927203  0.005  -0.376462  0.001988  3.934551  0.003  -0.16497  -0.36341  0.004876  3.922445  0.006
N  N82  1  0.40094223  0.37041918  0.78522756  1  -0.25072  0.053643  3.264201  0.071  -0.218749  0.043761  3.582421  0.061  -0.246492  0.038105  3.599811  0.056  -0.26565  -0.203152  0.039354  3.574237  0.053
N  N83  1  0.09931256  0.87060118  0.71490667  1  -0.248884  -0.044084  3.262172  -0.058  -0.217001  -0.040248  3.58015  -0.056  -0.242876  -0.03591  3.597885  -0.052  -0.264171  -0.200256  -0.032996  3.571315  -0.045
N  N84  1  0.59905659  0.62955734  0.21456966  1  -0.251031  0.053627  3.263299  0.071  -0.21895  0.04375  3.581555  0.061  -0.247621  0.038086  3.599181  0.056  -0.265696  -0.203258  0.039361  3.573304  0.053
N  N85  1  0.90076052  0.12934462  0.28532963  1  -0.24949  -0.044026  3.261562  -0.058  -0.217846  -0.040252  3.579816  -0.056  -0.247052  -0.035911  3.597761  -0.052  -0.264403  -0.200982  -0.032965  3.570929  -0.045
N  N86  1  0.47901831  0.44722339  0.64863857  1  -0.392436  0.063296  3.290171  0.083  -0.348349  0.043729  3.601712  0.059  -0.382653  0.036121  3.614356  0.051  -0.380917  -0.325906  0.046055  3.594044  0.061
N  N87  1  0.02164813  0.94708917  0.85176134  1  -0.39149  0.064654  3.288632  0.085  -0.34678  0.043533  3.599469  0.059  -0.380992  0.035759  3.612079  0.051  -0.380595  -0.324671  0.046432  3.592225  0.061
N  N88  1  0.52116248  0.55289132  0.35134810  1  -0.392547  0.063526  3.289832  0.083  -0.348411  0.043854  3.601544  0.06  -0.382704  0.036209  3.614114  0.051  -0.38098  -0.325944  0.046204  3.593816  0.061
N  N89  1  0.97829253  0.05302215  0.14831835  1  -0.391627  0.064868  3.288776  0.085  -0.346901  0.043668  3.599771  0.059  -0.381057  0.035861  3.61214  0.051  -0.380981  -0.324785  0.04656  3.592509  0.061
N  N90  1  0.53014616  0.38766168  0.82837184  1  -0.252315  -0.04569  3.31858  -0.059  -0.220057  -0.039464  3.639747  -0.054  -0.249656  -0.036085  3.660133  -0.051  -0.276665  -0.201381  -0.033208  3.627781  -0.044
N  N91  1  0.97015656  0.88772184  0.67179949  1  -0.253688  0.055073  3.320944  0.073  -0.221156  0.043288  3.642464  0.06  -0.250113  0.038281  3.661496  0.055  -0.277595  -0.203242  0.039526  3.630743  0.053
N  N92  1  0.46980160  0.61239306  0.17160760  1  -0.252848  -0.045742  3.320198  -0.059  -0.220694  -0.039502  3.641501  -0.054  -0.250292  -0.03613  3.662098  -0.051  -0.277206  -0.202023  -0.033244  3.629554  -0.044
N  N93  1  0.02993643  0.11230300  0.32829937  1  -0.253495  0.055087  3.323147  0.073  -0.220742  0.043302  3.644351  0.06  -0.249837  0.038307  3.664846  0.055  -0.27785  -0.202799  0.039537  3.632619  0.053
O  O94  1  0.86716844  0.64206857  0.59984006  1  -0.824576  -0.000403  1.815315  0.0  -0.796125  -0.000765  1.982615  0.0  -0.815329  -0.000993  1.951679  -0.001  -0.592697  -0.78346  -0.000312  2.003306  0.0
O  O95  1  0.63272644  0.14195687  0.90009851  1  -0.825063  0.001843  1.814246  0.002  -0.796577  0.001503  1.981396  0.001  -0.815624  0.001283  1.950491  0.001  -0.592662  -0.784222  0.001511  2.001591  0.001
O  O96  1  0.13304837  0.35779656  0.40037506  1  -0.825576  -0.000416  1.814997  0.0  -0.797251  -0.000776  1.982128  0.0  -0.816434  -0.000999  1.951186  -0.001  -0.592951  -0.78459  -0.000326  2.002829  0.0
O  O97  1  0.36695673  0.85788975  0.09971048  1  -0.82541  0.001831  1.813475  0.002  -0.796841  0.001494  1.980914  0.001  -0.815932  0.001281  1.95057  0.001  -0.59294  -0.784495  0.001496  2.001121  0.001
O  O98  1  0.80001322  0.37311649  0.96646341  1  -0.622405  -0.069879  2.029423  -0.095  -0.586119  -0.048302  2.28519  -0.071  -0.62983  -0.038158  2.274482  -0.058  -0.324751  -0.554357  -0.046688  2.289781  -0.067
O  O99  1  0.69972702  0.87305982  0.53348969  1  -0.623894  0.069842  2.03017  0.097  -0.58613  0.048042  2.285036  0.071  -0.629695  0.03753  2.274095  0.058  -0.325302  -0.555431  0.047853  2.290524  0.069
O  O100  1  0.20032354  0.62671206  0.03358830  1  -0.6221  -0.070319  2.029282  -0.096  -0.585682  -0.048592  2.285329  -0.071  -0.62952  -0.038387  2.274789  -0.059  -0.324652  -0.553832  -0.046965  2.289797  -0.067
O  O101  1  0.29999850  0.12673440  0.46642398  1  -0.623559  0.070213  2.029489  0.098  -0.586178  0.048303  2.284499  0.072  -0.629834  0.037731  2.273859  0.059  -0.325305  -0.55539  0.048097  2.2899  0.069
O  O102  1  0.87810060  0.68222086  0.22889980  1  -0.566276  0.053057  2.101972  0.074  -0.53926  0.045678  2.377497  0.068  -0.585946  0.037104  2.367492  0.058  -0.307938  -0.507004  0.041282  2.383262  0.059
O  O103  1  0.62235048  0.18192319  0.27093342  1  -0.564342  -0.053605  2.101833  -0.073  -0.538118  -0.045795  2.37851  -0.067  -0.584821  -0.037512  2.368523  -0.057  -0.307107  -0.504976  -0.039904  2.383699  -0.057
O  O104  1  0.12217487  0.31788472  0.77093449  1  -0.565638  0.053223  2.101656  0.074  -0.538757  0.045815  2.377527  0.068  -0.584662  0.037223  2.367695  0.058  -0.307846  -0.506541  0.041395  2.383194  0.059
O  O105  1  0.37739864  0.81813149  0.72922181  1  -0.564995  -0.053733  2.102752  -0.073  -0.538455  -0.045908  2.379283  -0.067  -0.582286  -0.037618  2.370412  -0.057  -0.307232  -0.505325  -0.040021  2.384333  -0.057
O  O106  1  0.81837712  0.79113438  0.35877037  1  -0.574128  0.05635  2.059893  0.08  -0.558461  0.040138  2.339899  0.061  -0.602146  0.031889  2.327652  0.05  -0.321021  -0.528021  0.039156  2.347054  0.057
O  O107  1  0.68203957  0.29114155  0.14122926  1  -0.573778  -0.056588  2.058639  -0.078  -0.558321  -0.039981  2.339156  -0.06  -0.601869  -0.032262  2.326959  -0.05  -0.320784  -0.527299  -0.038129  2.345715  -0.055
O  O108  1  0.18159329  0.20874063  0.64108975  1  -0.574217  0.056119  2.06026  0.079  -0.558511  0.039989  2.340359  0.06  -0.601947  0.031793  2.327826  0.05  -0.321419  -0.528079  0.039002  2.347531  0.057
O  O109  1  0.31796964  0.70872352  0.85893175  1  -0.574286  -0.056434  2.059005  -0.078  -0.558811  -0.039882  2.339756  -0.06  -0.601722  -0.032202  2.326369  -0.05  -0.321494  -0.52783  -0.038029  2.346322  -0.055
O  O110  1  0.30624211  0.53539289  0.44484020  1  -0.612219  0.064058  2.115314  0.091  -0.571743  0.046468  2.381046  0.071  -0.615782  0.035741  2.374318  0.058  -0.302963  -0.542734  0.05125  2.386938  0.076
O  O111  1  0.19374265  0.03551203  0.05557660  1  -0.611553  0.074983  2.115725  0.106  -0.571325  0.054151  2.381491  0.082  -0.61534  0.040886  2.374664  0.065  -0.302281  -0.54208  0.059997  2.387139  0.088
O  O112  1  0.69393530  0.46498391  0.55502803  1  -0.61287  0.064125  2.116053  0.091  -0.571457  0.046515  2.381046  0.071  -0.615463  0.035771  2.374147  0.058  -0.302645  -0.542425  0.051312  2.386925  0.076
O  O113  1  0.80607073  0.96483222  0.94456387  1  -0.611988  0.074951  2.115204  0.106  -0.571533  0.054125  2.38062  0.082  -0.615527  0.040856  2.373767  0.065  -0.302062  -0.542282  0.059979  2.386245  0.088
O  O114  1  0.29850950  0.69787712  0.53494920  1  -0.606449  -0.039281  2.088063  -0.054  -0.56754  -0.032481  2.357033  -0.048  -0.606197  -0.027112  2.342409  -0.042  -0.308194  -0.54023  -0.029255  2.367778  -0.042
O  O115  1  0.20152317  0.19790847  0.96528849  1  -0.606035  0.040271  2.088298  0.058  -0.567362  0.032857  2.357271  0.05  -0.608437  0.026147  2.341692  0.042  -0.308182  -0.540174  0.03097  2.36816  0.046
O  O116  1  0.70126645  0.30239140  0.46504929  1  -0.606297  -0.03931  2.087579  -0.054  -0.567523  -0.032522  2.356692  -0.048  -0.609298  -0.02712  2.340927  -0.042  -0.30759  -0.540146  -0.029285  2.367485  -0.042
O  O117  1  0.79863470  0.80227695  0.03459287  1  -0.605797  0.040325  2.088175  0.058  -0.567117  0.032912  2.356994  0.05  -0.609003  0.026181  2.341261  0.042  -0.307863  -0.53989  0.031022  2.367947  0.046
O  O118  1  0.04542256  0.79004796  0.50071277  1  -0.601938  -0.007777  2.214799  -0.012  -0.613343  -0.002148  2.583263  -0.004  -0.678787  6.7e-05  2.583013  0.0  -0.395973  -0.561252  -0.001373  2.577955  -0.004
O  O119  1  0.45479854  0.29033513  0.99949789  1  -0.602047  0.010434  2.214281  0.016  -0.613888  0.003297  2.58282  0.007  -0.681808  -0.000245  2.582044  0.001  -0.39584  -0.561803  0.003846  2.577394  0.007
O  O120  1  0.95435334  0.21001171  0.49927150  1  -0.602381  -0.008091  2.214873  -0.012  -0.613911  -0.002276  2.583492  -0.005  -0.682528  1e-06  2.582657  -0.001  -0.395989  -0.56175  -0.001439  2.578268  -0.004
O  O121  1  0.54538509  0.70970887  0.00050026  1  -0.602296  0.010898  2.215486  0.017  -0.613965  0.003538  2.584234  0.007  -0.682691  -6.8e-05  2.583496  0.002  -0.395861  -0.561883  0.00402  2.578866  0.007
O  O122  1  0.73382666  0.53100642  0.03107561  1  -0.62911  0.000622  2.037937  0.0  -0.608373  0.001026  2.30804  0.001  -0.641352  0.001105  2.290459  0.001  -0.318587  -0.585187  0.000441  2.318472  0.0
O  O123  1  0.76620751  0.03097571  0.46897567  1  -0.629473  -0.000436  2.036111  0.0  -0.60833  -0.000957  2.305921  -0.001  -0.641171  -0.001106  2.288372  -0.001  -0.319032  -0.585476  -0.000312  2.316468  0.0
O  O124  1  0.26633127  0.46884951  0.96874145  1  -0.628822  0.000616  2.038589  0.0  -0.60806  0.001015  2.308886  0.001  -0.640327  0.001101  2.291605  0.001  -0.318506  -0.58498  0.000426  2.319274  0.0
O  O125  1  0.23359182  0.96894504  0.53124425  1  -0.629642  -0.000411  2.037146  0.0  -0.608578  -0.000932  2.306941  -0.001  -0.638617  -0.001097  2.290749  -0.001  -0.319179  -0.585815  -0.000279  2.317468  0.0
O  O126  1  0.42468633  0.31550747  0.39125826  1  -0.848115  0.001089  1.795795  0.002  -0.818041  0.000668  1.958096  0.002  -0.835955  0.000151  1.923276  0.001  -0.611324  -0.804165  0.001287  1.983286  0.003
O  O127  1  0.07540245  0.81567218  0.10885096  1  -0.847417  0.001324  1.796488  0.003  -0.817575  0.000843  1.958708  0.002  -0.835554  0.000234  1.923911  0.001  -0.611129  -0.803633  0.001416  1.983979  0.003
O  O128  1  0.57511116  0.68437412  0.60834015  1  -0.848484  0.001097  1.796534  0.002  -0.818181  0.000673  1.959294  0.002  -0.836123  0.000155  1.92453  0.001  -0.611761  -0.804318  0.00129  1.984627  0.003
O  O129  1  0.92477590  0.18419629  0.89154170  1  -0.84711  0.001316  1.798007  0.003  -0.817558  0.000833  1.959654  0.002  -0.835536  0.000229  1.924961  0.001  -0.611122  -0.803596  0.001402  1.98493  0.003
