# generated using pymatgen
data_CuH7C7INO2
_symmetry_space_group_name_H-M   'P 1'
_cell_length_a   4.02531255
_cell_length_b   13.58300034
_cell_length_c   15.79786850
_cell_angle_alpha   90.00094382
_cell_angle_beta   89.93213528
_cell_angle_gamma   90.00059974
_symmetry_Int_Tables_number   1
_chemical_formula_structural   CuH7C7INO2
_chemical_formula_sum   'Cu4 H28 C28 I4 N4 O8'
_cell_volume   863.76083481
_cell_formula_units_Z   4
loop_
 _symmetry_equiv_pos_site_id
 _symmetry_equiv_pos_as_xyz
  1  'x, y, z'
loop_
 _atom_site_type_symbol
 _atom_site_label
 _atom_site_symmetry_multiplicity
 _atom_site_fract_x
 _atom_site_fract_y
 _atom_site_fract_z
 _atom_site_occupancy
 _atom_site_hle17_bader_spin_density
 _atom_site_hle17_ddec_charge
 _atom_site_hle17_ddec_spin_density
 _atom_site_hle17_ddec_sum_bond_order
 _atom_site_hle17_magmom
 _atom_site_hse06_10hf_bader_spin_density
 _atom_site_hse06_10hf_ddec_charge
 _atom_site_hse06_10hf_ddec_spin_density
 _atom_site_hse06_10hf_ddec_sum_bond_order
 _atom_site_hse06_10hf_magmom
 _atom_site_hse06_bader_spin_density
 _atom_site_hse06_ddec_charge
 _atom_site_hse06_ddec_spin_density
 _atom_site_hse06_ddec_sum_bond_order
 _atom_site_hse06_magmom
 _atom_site_pbe_bader_spin_density
 _atom_site_pbe_cm5_charge
 _atom_site_pbe_ddec_charge
 _atom_site_pbe_ddec_spin_density
 _atom_site_pbe_ddec_sum_bond_order
 _atom_site_pbe_magmom
Cu  Cu0  1  0.16663389  0.02869014  0.93323896  1  0  0.278259  0  2.12251  0  0  0.199321  0  2.587527  0  0  0.211834  0  2.535375  0  0  0.258787  0.193029  0  2.622396  0
Cu  Cu1  1  0.16665259  0.47130834  0.43323834  1  0  0.278252  0  2.122621  0  0  0.19934  0  2.587646  0  0  0.211829  0  2.535492  0  0  0.258806  0.193044  0  2.622441  0
Cu  Cu2  1  0.83338784  0.97131018  0.06675412  1  0  0.278219  0  2.122766  0  0  0.199294  0  2.58777  0  0  0.211801  0  2.535605  0  0  0.258758  0.193008  0  2.622576  0
Cu  Cu3  1  0.83336919  0.52868388  0.56675411  1  0  0.278264  0  2.122687  0  0  0.199357  0  2.587707  0  0  0.211827  0  2.535673  0  0  0.258822  0.19306  0  2.622564  0
H  H4  1  0.96096427  0.22234204  0.98597943  1  0  0.079506  0  0.980114  0  0  0.082946  0  1.055202  0  0  0.086646  0  1.050995  0  0  0.098261  0.079999  0  1.058581  0
H  H5  1  0.96097340  0.27765185  0.48597992  1  0  0.07954  0  0.980075  0  0  0.082973  0  1.05514  0  0  0.086679  0  1.050923  0  0  0.098284  0.080025  0  1.05852  0
H  H6  1  0.03910919  0.77766491  0.01401960  1  0  0.079579  0  0.980052  0  0  0.083022  0  1.055122  0  0  0.086727  0  1.050911  0  0  0.098292  0.080075  0  1.058503  0
H  H7  1  0.03902578  0.72232859  0.51401559  1  0  0.079484  0  0.980029  0  0  0.082856  0  1.055174  0  0  0.086557  0  1.050963  0  0  0.098245  0.07991  0  1.058553  0
H  H8  1  0.55080887  0.36771214  0.76689464  1  0  0.098731  0  0.969793  0  0  0.107123  0  1.037221  0  0  0.110404  0  1.03392  0  0  0.098847  0.104605  0  1.039698  0
H  H9  1  0.55083823  0.13228427  0.26688692  1  0  0.098484  0  0.970003  0  0  0.106949  0  1.037364  0  0  0.110222  0  1.034065  0  0  0.09879  0.104434  0  1.039835  0
H  H10  1  0.44916461  0.63229481  0.23311215  1  0  0.098522  0  0.970296  0  0  0.106955  0  1.037653  0  0  0.110227  0  1.034353  0  0  0.09878  0.10444  0  1.040121  0
H  H11  1  0.44919908  0.86770648  0.73309737  1  0  0.098663  0  0.970107  0  0  0.107015  0  1.037545  0  0  0.110286  0  1.034242  0  0  0.0988  0.104496  0  1.040026  0
H  H12  1  0.78349980  0.23153185  0.67873614  1  0  0.114739  0  0.94832  0  0  0.124628  0  1.007815  0  0  0.128385  0  1.007042  0  0  0.099721  0.121788  0  1.008795  0
H  H13  1  0.78355118  0.26846870  0.17873227  1  0  0.114829  0  0.948336  0  0  0.124682  0  1.00782  0  0  0.128446  0  1.007036  0  0  0.099719  0.121845  0  1.008808  0
H  H14  1  0.21649846  0.76848025  0.32127140  1  0  0.1147  0  0.948269  0  0  0.1246  0  1.007731  0  0  0.128357  0  1.00696  0  0  0.099708  0.121763  0  1.008719  0
H  H15  1  0.21648774  0.73153309  0.82126343  1  0  0.114787  0  0.948374  0  0  0.124694  0  1.007828  0  0  0.128455  0  1.007051  0  0  0.09973  0.121852  0  1.008812  0
H  H16  1  0.65524636  0.45241772  0.04574744  1  0  0.397731  0  0.896904  0  0  0.366184  0  0.975841  0  0  0.379354  0  0.960005  0  0  0.304131  0.356935  0  0.9857  0
H  H17  1  0.65522432  0.04758424  0.54573564  1  0  0.397731  0  0.896945  0  0  0.366125  0  0.975963  0  0  0.379294  0  0.960115  0  0  0.304115  0.356878  0  0.985812  0
H  H18  1  0.34483587  0.54757819  0.95426682  1  0  0.397781  0  0.896958  0  0  0.366183  0  0.975974  0  0  0.379403  0  0.959983  0  0  0.304129  0.356926  0  0.985843  0
H  H19  1  0.34482248  0.95241461  0.45425440  1  0  0.397729  0  0.896974  0  0  0.366195  0  0.975878  0  0  0.379367  0  0.960019  0  0  0.304051  0.356947  0  0.985734  0
H  H20  1  0.32510319  0.03379663  0.76917425  1  0  0.114003  0  0.983903  0  0  0.128591  0  1.060125  0  0  0.131694  0  1.057372  0  0  0.080854  0.12618  0  1.062184  0
H  H21  1  0.32511646  0.46619986  0.26917733  1  0  0.114034  0  0.983934  0  0  0.128608  0  1.060173  0  0  0.131714  0  1.057412  0  0  0.080837  0.126192  0  1.062225  0
H  H22  1  0.67488333  0.96620958  0.23082437  1  0  0.113985  0  0.983916  0  0  0.128569  0  1.06016  0  0  0.131673  0  1.057408  0  0  0.080834  0.126149  0  1.062219  0
H  H23  1  0.67482774  0.53380930  0.73082236  1  0  0.11399  0  0.984082  0  0  0.128586  0  1.060274  0  0  0.131721  0  1.057496  0  0  0.080813  0.126154  0  1.062342  0
H  H24  1  0.93447067  0.01755767  0.71937097  1  0  0.133478  0  0.940168  0  0  0.154294  0  1.002658  0  0  0.156069  0  1.00215  0  0  0.095981  0.152948  0  1.003053  0
H  H25  1  0.93448646  0.48244047  0.21938125  1  0  0.133491  0  0.940185  0  0  0.154349  0  1.002593  0  0  0.156112  0  1.002095  0  0  0.096015  0.153  0  1.002989  0
H  H26  1  0.06551088  0.98245296  0.28062762  1  0  0.133477  0  0.940093  0  0  0.154342  0  1.002531  0  0  0.156114  0  1.002028  0  0  0.096021  0.152995  0  1.002924  0
H  H27  1  0.06544455  0.51755396  0.78062851  1  0  0.13359  0  0.940033  0  0  0.154487  0  1.002417  0  0  0.156252  0  1.001917  0  0  0.096084  0.153138  0  1.002814  0
H  H28  1  0.22621076  0.09954537  0.67388193  1  0  0.128991  0  0.934949  0  0  0.150749  0  0.991117  0  0  0.152973  0  0.990214  0  0  0.095621  0.149228  0  0.99168  0
H  H29  1  0.22622133  0.40044893  0.17388917  1  0  0.128984  0  0.935001  0  0  0.150745  0  0.991169  0  0  0.152973  0  0.990256  0  0  0.095611  0.149223  0  0.991733  0
H  H30  1  0.77379363  0.90045716  0.32611044  1  0  0.129019  0  0.935037  0  0  0.150793  0  0.991176  0  0  0.153021  0  0.990266  0  0  0.09566  0.149271  0  0.99174  0
H  H31  1  0.77375014  0.59955948  0.82611128  1  0  0.128944  0  0.934959  0  0  0.150717  0  0.991133  0  0  0.152946  0  0.990221  0  0  0.095608  0.149194  0  0.991694  0
C  C32  1  0.91587811  0.22684399  0.91808319  1  0  0.136386  0  3.661691  0  0  0.090606  0  3.921209  0  0  0.101613  0  3.93538  0  0  0.044368  0.083366  0  3.912228  0
C  C33  1  0.91589205  0.27315358  0.41808364  1  0  0.13631  0  3.661531  0  0  0.090568  0  3.921028  0  0  0.101595  0  3.935203  0  0  0.044341  0.083327  0  3.912038  0
C  C34  1  0.08413267  0.77315854  0.08192314  1  0  0.136392  0  3.662255  0  0  0.090627  0  3.921735  0  0  0.101634  0  3.935923  0  0  0.044328  0.08339  0  3.912741  0
C  C35  1  0.08409953  0.72684453  0.58191373  1  0  0.136334  0  3.66231  0  0  0.090658  0  3.921787  0  0  0.101663  0  3.935959  0  0  0.044303  0.083422  0  3.912804  0
C  C36  1  0.74544322  0.30650178  0.88329550  1  0  -0.141225  0  3.779283  0  0  -0.118565  0  4.022147  0  0  -0.13428  0  4.046464  0  0  -0.022565  -0.108651  0  4.006297  0
C  C37  1  0.74546026  0.19349164  0.38328286  1  0  -0.141167  0  3.779195  0  0  -0.118509  0  4.022147  0  0  -0.13422  0  4.046461  0  0  -0.022517  -0.108596  0  4.006288  0
C  C38  1  0.25449840  0.69349413  0.11670544  1  0  -0.14119  0  3.779086  0  0  -0.118559  0  4.02209  0  0  -0.134268  0  4.046402  0  0  -0.022509  -0.108646  0  4.00623  0
C  C39  1  0.25449036  0.80650132  0.61669787  1  0  -0.141318  0  3.779236  0  0  -0.1187  0  4.022155  0  0  -0.134413  0  4.046471  0  0  -0.022558  -0.108788  0  4.006306  0
C  C40  1  0.68893939  0.30759631  0.79583790  1  0  0.013071  0  3.692369  0  0  -0.021141  0  3.945536  0  0  -0.011628  0  3.960744  0  0  -0.063686  -0.027475  0  3.93576  0
C  C41  1  0.68898629  0.19239962  0.29582411  1  0  0.013328  0  3.692682  0  0  -0.020912  0  3.945769  0  0  -0.011388  0  3.960974  0  0  -0.063689  -0.027249  0  3.935988  0
C  C42  1  0.31103054  0.69239812  0.20418280  1  0  0.013213  0  3.692663  0  0  -0.021008  0  3.945765  0  0  -0.011483  0  3.960963  0  0  -0.063711  -0.027344  0  3.935981  0
C  C43  1  0.31104528  0.80760217  0.70417028  1  0  0.013254  0  3.692453  0  0  -0.020876  0  3.945537  0  0  -0.011346  0  3.960728  0  0  -0.063599  -0.027205  0  3.935747  0
C  C44  1  0.81570649  0.23147294  0.74723662  1  0  -0.16724  0  3.682368  0  0  -0.181242  0  3.926841  0  0  -0.192044  0  3.947514  0  0  -0.086641  -0.174704  0  3.913802  0
C  C45  1  0.81576059  0.26852243  0.24722960  1  0  -0.167401  0  3.682522  0  0  -0.181305  0  3.926996  0  0  -0.192109  0  3.947659  0  0  -0.086612  -0.174774  0  3.913958  0
C  C46  1  0.18426981  0.76852591  0.25276576  1  0  -0.167247  0  3.682914  0  0  -0.181226  0  3.927371  0  0  -0.192034  0  3.948044  0  0  -0.086573  -0.174695  0  3.914332  0
C  C47  1  0.18426147  0.73147715  0.75275906  1  0  -0.16754  0  3.682764  0  0  -0.181467  0  3.92731  0  0  -0.192272  0  3.947976  0  0  -0.086693  -0.174925  0  3.914276  0
C  C48  1  0.98882785  0.15403856  0.78582728  1  0  0.328636  0  3.665935  0  0  0.334874  0  3.904241  0  0  0.347026  0  3.922108  0  0  0.126932  0.326636  0  3.892417  0
C  C49  1  0.98884659  0.34595884  0.28583192  1  0  0.328781  0  3.665723  0  0  0.334836  0  3.904285  0  0  0.347009  0  3.922153  0  0  0.126929  0.326598  0  3.892447  0
C  C50  1  0.01118293  0.84596544  0.21417905  1  0  0.328815  0  3.665522  0  0  0.334972  0  3.903895  0  0  0.347141  0  3.92177  0  0  0.126973  0.32673  0  3.892061  0
C  C51  1  0.01114919  0.65403632  0.71417561  1  0  0.328963  0  3.665268  0  0  0.334897  0  3.903991  0  0  0.347053  0  3.92185  0  0  0.126911  0.326658  0  3.892167  0
C  C52  1  0.63037652  0.38944182  0.93619632  1  0  0.67459  0  3.796256  0  0  0.621166  0  4.094368  0  0  0.65611  0  4.085655  0  0  0.242119  0.597372  0  4.100028  0
C  C53  1  0.63038602  0.11055522  0.43617808  1  0  0.674439  0  3.795966  0  0  0.620836  0  4.094364  0  0  0.65579  0  4.085647  0  0  0.242047  0.597039  0  4.100024  0
C  C54  1  0.36962102  0.61055261  0.06382071  1  0  0.674452  0  3.796565  0  0  0.620814  0  4.095019  0  0  0.655759  0  4.08631  0  0  0.24195  0.597022  0  4.100677  0
C  C55  1  0.36961082  0.88945688  0.56381552  1  0  0.674578  0  3.796507  0  0  0.621094  0  4.094767  0  0  0.65604  0  4.086048  0  0  0.242022  0.597306  0  4.100424  0
C  C56  1  0.12834647  0.07204305  0.73423341  1  0  -0.380568  0  3.698735  0  0  -0.466244  0  3.939604  0  0  -0.4701  0  3.944923  0  0  -0.247281  -0.463219  0  3.935936  0
C  C57  1  0.12836073  0.42795802  0.23423788  1  0  -0.38067  0  3.698733  0  0  -0.466302  0  3.939626  0  0  -0.470163  0  3.944982  0  0  -0.24729  -0.463268  0  3.935957  0
C  C58  1  0.87165257  0.92796611  0.26576400  1  0  -0.380592  0  3.698644  0  0  -0.466316  0  3.93952  0  0  -0.470167  0  3.944829  0  0  -0.247352  -0.463276  0  3.93586  0
C  C59  1  0.87160826  0.57204745  0.76576256  1  0  -0.38069  0  3.698821  0  0  -0.466341  0  3.939717  0  0  -0.470223  0  3.945027  0  0  -0.247292  -0.463283  0  3.936076  0
I  I60  1  0.66490607  0.90722706  0.90933151  1  0  -0.380421  0  1.782549  0  0  -0.321181  0  2.241917  0  0  -0.340486  0  2.199967  0  0  -0.164021  -0.306732  0  2.271103  0
I  I61  1  0.66488407  0.59276364  0.40932681  1  0  -0.380435  0  1.782651  0  0  -0.321199  0  2.242011  0  0  -0.340469  0  2.200046  0  0  -0.164024  -0.306744  0  2.271153  0
I  I62  1  0.33514469  0.09275780  0.09067184  1  0  -0.380407  0  1.782711  0  0  -0.321197  0  2.242158  0  0  -0.340496  0  2.200203  0  0  -0.16404  -0.306743  0  2.27131  0
I  I63  1  0.33510712  0.40723815  0.59067563  1  0  -0.380483  0  1.782726  0  0  -0.321279  0  2.242146  0  0  -0.340562  0  2.200222  0  0  -0.164069  -0.306825  0  2.271316  0
N  N64  1  0.03180660  0.15136472  0.87125016  1  0  -0.319851  0  3.294587  0  0  -0.248853  0  3.579516  0  0  -0.264804  0  3.587198  0  0  -0.356314  -0.239156  0  3.574599  0
N  N65  1  0.03181799  0.34863065  0.37125480  1  0  -0.319701  0  3.294546  0  0  -0.248694  0  3.579583  0  0  -0.264694  0  3.587298  0  0  -0.356264  -0.238989  0  3.574615  0
N  N66  1  0.96819511  0.84862898  0.12874473  1  0  -0.319921  0  3.294435  0  0  -0.248875  0  3.579329  0  0  -0.264862  0  3.587042  0  0  -0.356315  -0.239172  0  3.574369  0
N  N67  1  0.96817895  0.65137114  0.62873754  1  0  -0.319773  0  3.294105  0  0  -0.248702  0  3.579074  0  0  -0.264649  0  3.586757  0  0  -0.356246  -0.239006  0  3.574156  0
O  O68  1  0.73673639  0.38923636  0.01532950  1  0  -0.535427  0  2.076897  0  0  -0.485958  0  2.29341  0  0  -0.507418  0  2.276396  0  0  -0.323721  -0.471251  0  2.303952  0
O  O69  1  0.73670697  0.11075789  0.51531409  1  0  -0.535338  0  2.077217  0  0  -0.485747  0  2.293864  0  0  -0.507224  0  2.276833  0  0  -0.323626  -0.471032  0  2.304401  0
O  O70  1  0.26327157  0.61075512  0.98468125  1  0  -0.535459  0  2.076779  0  0  -0.485892  0  2.293435  0  0  -0.507398  0  2.276313  0  0  -0.323692  -0.471172  0  2.303986  0
O  O71  1  0.26328724  0.88924317  0.48468140  1  0  -0.535441  0  2.077085  0  0  -0.485955  0  2.293639  0  0  -0.507424  0  2.27661  0  0  -0.32363  -0.471246  0  2.304182  0
O  O72  1  0.44816802  0.45517782  0.90601096  1  0  -0.573324  0  2.009165  0  0  -0.517259  0  2.225259  0  0  -0.541326  0  2.217158  0  0  -0.28134  -0.500868  0  2.230303  0
O  O73  1  0.44815100  0.04480922  0.40598348  1  0  -0.573454  0  2.008663  0  0  -0.517287  0  2.224773  0  0  -0.541338  0  2.216704  0  0  -0.281402  -0.500899  0  2.229815  0
O  O74  1  0.55183955  0.54482913  0.09400485  1  0  -0.573421  0  2.009458  0  0  -0.517179  0  2.225493  0  0  -0.541216  0  2.217421  0  0  -0.281325  -0.500797  0  2.230539  0
O  O75  1  0.55181375  0.95518447  0.59400745  1  0  -0.573356  0  2.009312  0  0  -0.517252  0  2.225449  0  0  -0.541295  0  2.217376  0  0  -0.281335  -0.500869  0  2.230488  0
