# generated using pymatgen
data_SnH15C10NO2
_symmetry_space_group_name_H-M   'P 1'
_cell_length_a   10.01830227
_cell_length_b   14.51500452
_cell_length_c   19.33661452
_cell_angle_alpha   93.30848064
_cell_angle_beta   90.00046133
_cell_angle_gamma   90.00075414
_symmetry_Int_Tables_number   1
_chemical_formula_structural   SnH15C10NO2
_chemical_formula_sum   'Sn8 H120 C80 N8 O16'
_cell_volume   2807.16083927
_cell_formula_units_Z   8
loop_
 _symmetry_equiv_pos_site_id
 _symmetry_equiv_pos_as_xyz
  1  'x, y, z'
loop_
 _atom_site_type_symbol
 _atom_site_label
 _atom_site_symmetry_multiplicity
 _atom_site_fract_x
 _atom_site_fract_y
 _atom_site_fract_z
 _atom_site_occupancy
 _atom_site_pbe_bader_charge
 _atom_site_pbe_bader_spin_density
 _atom_site_pbe_cm5_charge
 _atom_site_pbe_ddec_charge
 _atom_site_pbe_ddec_spin_density
 _atom_site_pbe_ddec_sum_bond_order
 _atom_site_pbe_magmom
Sn  Sn0  1  0.85155150  0.63090134  0.90348174  1  1.695721  0  0.522021  1.218419  0  3.379959  0
Sn  Sn1  1  0.35154049  0.86909214  0.59651976  1  1.695818  0  0.52198  1.218433  0  3.379984  0
Sn  Sn2  1  0.14845155  0.36909257  0.09651027  1  1.695728  0  0.521976  1.218433  0  3.380066  0
Sn  Sn3  1  0.64846056  0.13091135  0.40348306  1  1.695731  0  0.521954  1.218309  0  3.379924  0
Sn  Sn4  1  0.36071898  0.58979744  0.84383743  1  1.703855  0  0.522741  1.228502  0  3.391363  0
Sn  Sn5  1  0.86070047  0.91020581  0.65616148  1  1.704422  0  0.522665  1.228441  0  3.391183  0
Sn  Sn6  1  0.63927509  0.41019637  0.15616647  1  1.70387  0  0.522646  1.228358  0  3.391419  0
Sn  Sn7  1  0.13927463  0.08980261  0.34382865  1  1.703804  0  0.522587  1.228222  0  3.391369  0
H  H8  1  0.15181350  0.84153398  0.17730179  1  0.417433  0  0.310524  0.302853  0  0.938622  0
H  H9  1  0.65180581  0.65845181  0.32268582  1  0.4503  0  0.310448  0.302742  0  0.938712  0
H  H10  1  0.84819454  0.15845708  0.82270199  1  0.417348  0  0.310522  0.302773  0  0.938603  0
H  H11  1  0.34821222  0.34154833  0.67730495  1  0.450221  0  0.310461  0.302628  0  0.938794  0
H  H12  1  0.27638943  0.91684007  0.20492144  1  0.515681  0  0.293285  0.303433  0  1.003452  0
H  H13  1  0.77638187  0.58314549  0.29507080  1  0.516108  0  0.29335  0.303458  0  1.003395  0
H  H14  1  0.72361761  0.08315515  0.79507943  1  0.516371  0  0.293303  0.303398  0  1.00352  0
H  H15  1  0.22363515  0.41684836  0.70492897  1  0.515977  0  0.293333  0.303377  0  1.003416  0
H  H16  1  0.83427942  0.58896446  0.48205527  1  0.452513  0  0.297048  0.292254  0  0.991622  0
H  H17  1  0.33426399  0.91104295  0.01794860  1  0.452647  0  0.297019  0.292154  0  0.991676  0
H  H18  1  0.16574659  0.41104527  0.51794319  1  0.452482  0  0.296986  0.292012  0  0.991619  0
H  H19  1  0.66577499  0.08895634  0.98206126  1  0.452636  0  0.296895  0.291955  0  0.991767  0
H  H20  1  0.69072729  0.56713670  0.52560647  1  0.425761  0  0.309528  0.299779  0  0.936977  0
H  H21  1  0.19071440  0.93286973  0.97439706  1  0.425561  0  0.309526  0.299709  0  0.93717  0
H  H22  1  0.30929572  0.43286755  0.47438811  1  0.425973  0  0.309506  0.299681  0  0.937035  0
H  H23  1  0.80931261  0.06712605  0.02561987  1  0.42563  0  0.309432  0.299494  0  0.937043  0
H  H24  1  0.32195968  0.65057502  0.99530349  1  0.071925  0  0.102793  0.08902  0  1.049433  0
H  H25  1  0.82193267  0.84942033  0.50468867  1  0.071965  0  0.102828  0.089115  0  1.049405  0
H  H26  1  0.67805236  0.34942435  0.00469603  1  0.071725  0  0.102808  0.089011  0  1.049441  0
H  H27  1  0.17807238  0.15058599  0.49530601  1  0.071761  0  0.102822  0.089113  0  1.049465  0
H  H28  1  0.17762343  0.72368866  0.08538194  1  0.048133  0  0.09817  0.108292  0  1.025092  0
H  H29  1  0.67759943  0.77629388  0.41460976  1  0.047888  0  0.09815  0.108407  0  1.024865  0
H  H30  1  0.82239160  0.27630447  0.91462039  1  0.048051  0  0.098146  0.10828  0  1.02496  0
H  H31  1  0.32240761  0.22370900  0.58538373  1  0.047887  0  0.098178  0.108455  0  1.024925  0
H  H32  1  0.50941435  0.89189033  0.15972972  1  0.087069  0  0.093645  0.107084  0  1.060522  0
H  H33  1  0.00940920  0.60809948  0.34027352  1  0.087418  0  0.093651  0.107075  0  1.060519  0
H  H34  1  0.49059069  0.10810833  0.84027183  1  0.087288  0  0.093672  0.107104  0  1.060555  0
H  H35  1  0.99060483  0.39189294  0.65973187  1  0.087426  0  0.093648  0.107044  0  1.060561  0
H  H36  1  0.65271965  0.81701101  0.06916177  1  0.083378  0  0.102744  0.106097  0  1.001568  0
H  H37  1  0.15270335  0.68299119  0.43084473  1  0.083668  0  0.102667  0.105869  0  1.001533  0
H  H38  1  0.34728939  0.18299388  0.93083750  1  0.083553  0  0.10269  0.105936  0  1.001516  0
H  H39  1  0.84730169  0.31700120  0.56916480  1  0.083808  0  0.102693  0.10588  0  1.001593  0
H  H40  1  0.85475397  0.44724205  0.91251422  1  0.04463  0  0.08471  0.169755  0  1.051484  0
H  H41  1  0.35477178  0.05275587  0.58748773  1  0.044452  0  0.084726  0.169848  0  1.051448  0
H  H42  1  0.14522213  0.55275454  0.08748827  1  0.044444  0  0.084754  0.169893  0  1.051344  0
H  H43  1  0.64522329  0.94724830  0.41251616  1  0.044471  0  0.084736  0.169838  0  1.051424  0
H  H44  1  0.73406759  0.47199421  0.84852082  1  0.041452  0  0.08277  0.163683  0  1.060751  0
H  H45  1  0.23408692  0.02800740  0.65147977  1  0.041113  0  0.0828  0.163766  0  1.060821  0
H  H46  1  0.26591051  0.52800379  0.15147811  1  0.041281  0  0.082779  0.163745  0  1.060731  0
H  H47  1  0.76591413  0.97199262  0.34852547  1  0.04108  0  0.082758  0.163679  0  1.060745  0
H  H48  1  0.69228393  0.48967921  0.93762399  1  0.047984  0  0.086476  0.172761  0  1.059206  0
H  H49  1  0.19229654  0.01032340  0.56237441  1  0.048161  0  0.086478  0.172787  0  1.059167  0
H  H50  1  0.30769617  0.51033330  0.06237358  1  0.048  0  0.086476  0.172766  0  1.059246  0
H  H51  1  0.80769852  0.98967524  0.43762973  1  0.048163  0  0.086523  0.172796  0  1.05908  0
H  H52  1  0.08742831  0.60737552  0.96891769  1  0.011544  0  0.086106  0.168656  0  1.057841  0
H  H53  1  0.58741650  0.89261611  0.53108574  1  0.011601  0  0.086143  0.168764  0  1.057747  0
H  H54  1  0.91257075  0.39262038  0.03108373  1  0.011638  0  0.086137  0.168648  0  1.057849  0
H  H55  1  0.41257258  0.10739023  0.46890636  1  0.011717  0  0.086122  0.168708  0  1.057826  0
H  H56  1  0.96074594  0.64114335  0.03133232  1  0.034681  0  0.086053  0.169856  0  1.035956  0
H  H57  1  0.46073455  0.85884871  0.46867082  1  0.034769  0  0.085989  0.169783  0  1.036065  0
H  H58  1  0.03923815  0.35884985  0.96866276  1  0.034386  0  0.086036  0.169821  0  1.035915  0
H  H59  1  0.53924055  0.14116587  0.53132685  1  0.034693  0  0.086023  0.169863  0  1.036087  0
H  H60  1  0.03882947  0.72574156  0.98122238  1  0.045177  0  0.080042  0.157111  0  1.054644  0
H  H61  1  0.53881423  0.77424961  0.51878083  1  0.044941  0  0.080026  0.157063  0  1.054735  0
H  H62  1  0.96116559  0.27425229  0.01877687  1  0.045049  0  0.08001  0.157037  0  1.054696  0
H  H63  1  0.46117185  0.22575882  0.48120878  1  0.046007  0  0.079956  0.156936  0  1.054668  0
H  H64  1  0.87374499  0.79542521  0.84631957  1  0.015832  0  0.08551  0.167215  0  1.037404  0
H  H65  1  0.37373775  0.70456917  0.65368310  1  0.015783  0  0.085479  0.167151  0  1.037571  0
H  H66  1  0.12624907  0.20457004  0.15367768  1  0.015678  0  0.085518  0.167208  0  1.037513  0
H  H67  1  0.62626530  0.29543094  0.34631128  1  0.015963  0  0.085452  0.167117  0  1.037315  0
H  H68  1  0.71750427  0.74394439  0.82143890  1  0.02999  0  0.088086  0.174945  0  1.043956  0
H  H69  1  0.21749739  0.75604571  0.67856603  1  0.029835  0  0.088079  0.174921  0  1.043914  0
H  H70  1  0.28249180  0.25605432  0.17855697  1  0.029967  0  0.088081  0.174966  0  1.04401  0
H  H71  1  0.78250965  0.24394745  0.32143423  1  0.029739  0  0.088061  0.174943  0  1.044001  0
H  H72  1  0.86799115  0.70678811  0.77805686  1  0.058655  0  0.083533  0.167645  0  1.074541  0
H  H73  1  0.36799264  0.79320760  0.72194379  1  0.058684  0  0.083509  0.167596  0  1.074594  0
H  H74  1  0.13199792  0.29321271  0.22193446  1  0.058711  0  0.083506  0.167625  0  1.074739  0
H  H75  1  0.63202438  0.20678556  0.27805492  1  0.058975  0  0.083608  0.167761  0  1.074755  0
H  H76  1  0.81782904  0.52338996  0.75520569  1  0.072094  0  0.101868  0.089728  0  1.052045  0
H  H77  1  0.31782538  0.97661490  0.74479933  1  0.072375  0  0.101892  0.089703  0  1.052071  0
H  H78  1  0.18217001  0.47660736  0.24479063  1  0.072252  0  0.101899  0.089718  0  1.052029  0
H  H79  1  0.68217967  0.02338715  0.25521066  1  0.072133  0  0.101964  0.089799  0  1.052086  0
H  H80  1  0.68978256  0.52475807  0.64613612  1  0.047885  0  0.098262  0.1058  0  1.011804  0
H  H81  1  0.18977358  0.97524216  0.85386401  1  0.047703  0  0.098275  0.105846  0  1.011909  0
H  H82  1  0.31023047  0.47523171  0.35385467  1  0.047815  0  0.09828  0.105896  0  1.01191  0
H  H83  1  0.81023646  0.02475298  0.14614668  1  0.047728  0  0.098316  0.1059  0  1.011983  0
H  H84  1  0.05045545  0.59133878  0.53700255  1  0.084023  0  0.100215  0.113673  0  1.028228  0
H  H85  1  0.55043571  0.90866352  0.96300383  1  0.08342  0  0.100272  0.113742  0  1.028169  0
H  H86  1  0.94956856  0.40867161  0.46300060  1  0.083481  0  0.100246  0.113713  0  1.028368  0
H  H87  1  0.44958331  0.09131996  0.03699700  1  0.083569  0  0.100251  0.113736  0  1.028347  0
H  H88  1  0.17735001  0.58648794  0.64647013  1  0.089331  0  0.103277  0.102306  0  1.016404  0
H  H89  1  0.67733864  0.91352175  0.85354022  1  0.089499  0  0.103246  0.102286  0  1.016405  0
H  H90  1  0.82265703  0.41352654  0.35353942  1  0.089482  0  0.103247  0.102264  0  1.016357  0
H  H91  1  0.32267440  0.08647486  0.14645968  1  0.089714  0  0.103228  0.102285  0  1.016307  0
H  H92  1  0.17742058  0.72345027  0.82503157  1  0.050749  0  0.085282  0.172866  0  1.041782  0
H  H93  1  0.67739185  0.77654716  0.67495958  1  0.050618  0  0.085282  0.172886  0  1.041659  0
H  H94  1  0.82256550  0.27652906  0.17497112  1  0.050875  0  0.085263  0.172793  0  1.041694  0
H  H95  1  0.32256928  0.22346411  0.32502086  1  0.05079  0  0.085277  0.172789  0  1.041665  0
H  H96  1  0.33851534  0.77404541  0.84050699  1  0.063898  0  0.081789  0.165342  0  1.075679  0
H  H97  1  0.83849339  0.72595553  0.65949482  1  0.064073  0  0.0818  0.165478  0  1.075656  0
H  H98  1  0.66146076  0.22595188  0.15949346  1  0.06393  0  0.081742  0.165306  0  1.075661  0
H  H99  1  0.16146973  0.27404669  0.34049346  1  0.063803  0  0.081819  0.165344  0  1.075746  0
H  H100  1  0.24137035  0.73875020  0.91137771  1  0.029073  0  0.079258  0.159129  0  1.084217  0
H  H101  1  0.74136394  0.76124849  0.58861790  1  0.028866  0  0.079232  0.159113  0  1.08433  0
H  H102  1  0.75861473  0.26123605  0.08862221  1  0.029048  0  0.079281  0.159169  0  1.084129  0
H  H103  1  0.25861515  0.23876825  0.41136849  1  0.029037  0  0.079238  0.159153  0  1.084353  0
H  H104  1  0.23111977  0.47688020  0.92884344  1  0.060006  0  0.086884  0.171479  0  1.052579  0
H  H105  1  0.73107365  0.02311374  0.57116247  1  0.059601  0  0.086884  0.171511  0  1.052662  0
H  H106  1  0.76888328  0.52311357  0.07116564  1  0.060102  0  0.086884  0.171488  0  1.052486  0
H  H107  1  0.26889546  0.97689468  0.42882818  1  0.060001  0  0.08685  0.171473  0  1.052508  0
H  H108  1  0.40563857  0.48054992  0.95082209  1  0.059959  0  0.085292  0.171186  0  1.052358  0
H  H109  1  0.90559004  0.01946158  0.54918227  1  0.060451  0  0.085323  0.171231  0  1.052268  0
H  H110  1  0.59436249  0.51945144  0.04918838  1  0.06029  0  0.085325  0.17123  0  1.052179  0
H  H111  1  0.09437708  0.98054960  0.45080851  1  0.060439  0  0.085287  0.171141  0  1.052113  0
H  H112  1  0.34869656  0.41144000  0.87728171  1  0.075001  0  0.088523  0.179012  0  1.023543  0
H  H113  1  0.84864150  0.08856473  0.62272416  1  0.0751  0  0.088524  0.179124  0  1.023469  0
H  H114  1  0.65131348  0.58855513  0.12273053  1  0.074516  0  0.088569  0.179154  0  1.023394  0
H  H115  1  0.15132762  0.91144299  0.37726801  1  0.074649  0  0.088554  0.179136  0  1.023556  0
H  H116  1  0.54323772  0.64489944  0.75019986  1  0.058786  0  0.085167  0.169749  0  1.044959  0
H  H117  1  0.04321087  0.85510007  0.74980118  1  0.058921  0  0.085185  0.169799  0  1.044865  0
H  H118  1  0.45675535  0.35510262  0.24980858  1  0.058922  0  0.085207  0.169819  0  1.044928  0
H  H119  1  0.95675225  0.14490418  0.25019185  1  0.058676  0  0.085215  0.169822  0  1.044882  0
H  H120  1  0.46872784  0.53840229  0.71898900  1  0.028387  0  0.078997  0.158372  0  1.053102  0
H  H121  1  0.96871125  0.96159855  0.78100868  1  0.028352  0  0.078977  0.158305  0  1.053229  0
H  H122  1  0.53127521  0.46159913  0.28101320  1  0.028303  0  0.078976  0.158394  0  1.05311  0
H  H123  1  0.03125587  0.03840711  0.21898183  1  0.028434  0  0.078969  0.158398  0  1.053017  0
H  H124  1  0.59713135  0.53946496  0.78393608  1  0.030307  0  0.082275  0.161712  0  1.075316  0
H  H125  1  0.09712593  0.96053298  0.71606666  1  0.030536  0  0.082348  0.161766  0  1.075205  0
H  H126  1  0.40286372  0.46053711  0.21607029  1  0.030518  0  0.082308  0.161728  0  1.075148  0
H  H127  1  0.90285716  0.03947057  0.28392892  1  0.032963  0  0.082332  0.161788  0  1.075215  0
C  C128  1  0.49730293  0.73006811  0.02422713  1  -0.009154  0  -0.042981  -0.106297  0  4.052633  0
C  C129  1  0.99727976  0.76993333  0.47576834  1  -0.008651  0  -0.043051  -0.106223  0  4.053059  0
C  C130  1  0.50270811  0.26993059  0.97576977  1  -0.008764  0  -0.043018  -0.106262  0  4.052845  0
C  C131  1  0.00272029  0.23006879  0.52423183  1  -0.008177  0  -0.043061  -0.106199  0  4.052791  0
C  C132  1  0.36289673  0.70449737  0.03057640  1  -0.032493  0  -0.084853  -0.067851  0  4.031616  0
C  C133  1  0.86287794  0.79549590  0.46941760  1  -0.032025  0  -0.084918  -0.068073  0  4.031541  0
C  C134  1  0.63711231  0.29549923  0.96942557  1  -0.032031  0  -0.084947  -0.067919  0  4.031794  0
C  C135  1  0.13713010  0.20450559  0.53057633  1  -0.03223  0  -0.084943  -0.068055  0  4.031704  0
C  C136  1  0.28145857  0.74542717  0.08157971  1  -0.005041  0  -0.114859  -0.232658  0  3.991936  0
C  C137  1  0.78144420  0.75455772  0.41841459  1  -0.005028  0  -0.114832  -0.232911  0  3.99142  0
C  C138  1  0.71855247  0.25456662  0.91842626  1  -0.005152  0  -0.114677  -0.232597  0  3.99177  0
C  C139  1  0.21856684  0.24544172  0.58157718  1  -0.00546  0  -0.114895  -0.233116  0  3.991485  0
C  C140  1  0.33123849  0.81521564  0.12873645  1  0.378371  0  0.098505  0.312968  0  4.119861  0
C  C141  1  0.83122506  0.68477523  0.37126041  1  0.37822  0  0.098629  0.313373  0  4.119708  0
C  C142  1  0.66877155  0.18477887  0.87126697  1  0.378256  0  0.098452  0.313043  0  4.119699  0
C  C143  1  0.16878698  0.31522691  0.62873769  1  0.378844  0  0.098601  0.313462  0  4.119212  0
C  C144  1  0.46768595  0.83939541  0.12353107  1  -0.084692  0  -0.11479  -0.224351  0  3.980364  0
C  C145  1  0.96766914  0.66059879  0.37647065  1  -0.084906  0  -0.114873  -0.22455  0  3.980432  0
C  C146  1  0.53232409  0.16060255  0.87647149  1  -0.084882  0  -0.114842  -0.224469  0  3.980561  0
C  C147  1  0.03234089  0.33939986  0.62353194  1  -0.084874  0  -0.1149  -0.224538  0  3.98051  0
C  C148  1  0.54806903  0.79727486  0.07267796  1  -0.051619  0  -0.087663  -0.075059  0  4.025354  0
C  C149  1  0.04804706  0.70272707  0.42732448  1  -0.051749  0  -0.087566  -0.074737  0  4.025314  0
C  C150  1  0.45194300  0.20272796  0.92732276  1  -0.051713  0  -0.087634  -0.07487  0  4.025536  0
C  C151  1  0.95195699  0.29727226  0.57267970  1  -0.052301  0  -0.087523  -0.074702  0  4.025394  0
C  C152  1  0.58416294  0.68802040  0.96917535  1  1.506325  0  0.223025  0.577326  0  4.193199  0
C  C153  1  0.08413984  0.81199057  0.53082330  1  1.506111  0  0.223138  0.577166  0  4.19379  0
C  C154  1  0.41584211  0.31198382  0.03082233  1  1.506089  0  0.223147  0.577324  0  4.19344  0
C  C155  1  0.91584824  0.18801361  0.46917903  1  1.506066  0  0.223117  0.577199  0  4.193824  0
C  C156  1  0.77297798  0.49337520  0.89983975  1  -0.437267  0  -0.333149  -0.740369  0  3.755386  0
C  C157  1  0.27299910  0.00662676  0.60016257  1  -0.436874  0  -0.333202  -0.740602  0  3.755514  0
C  C158  1  0.22700012  0.50662624  0.10015987  1  -0.43688  0  -0.333201  -0.740588  0  3.755338  0
C  C159  1  0.72700096  0.99337533  0.39984121  1  -0.436857  0  -0.33322  -0.740465  0  3.755197  0
C  C160  1  0.00375299  0.65419084  0.98064060  1  -0.429472  0  -0.338139  -0.739498  0  3.752987  0
C  C161  1  0.50374011  0.84580346  0.51936210  1  -0.429329  0  -0.33812  -0.739515  0  3.753012  0
C  C162  1  0.99624507  0.34580443  0.01935511  1  -0.429191  0  -0.338113  -0.73936  0  3.752942  0
C  C163  1  0.49625296  0.15420629  0.48063585  1  -0.430347  0  -0.338052  -0.739375  0  3.752997  0
C  C164  1  0.82446044  0.73127634  0.82760460  1  -0.412203  0  -0.331957  -0.738452  0  3.738912  0
C  C165  1  0.32445770  0.76871757  0.67239733  1  -0.412101  0  -0.331865  -0.738267  0  3.739052  0
C  C166  1  0.17552664  0.26872100  0.17239121  1  -0.412017  0  -0.331915  -0.73844  0  3.739314  0
C  C167  1  0.67555234  0.23127563  0.32759672  1  -0.412495  0  -0.331901  -0.738391  0  3.739036  0
C  C168  1  0.00657376  0.55532732  0.70871696  1  -0.064981  0  -0.044783  -0.114255  0  4.066952  0
C  C169  1  0.50656500  0.94468077  0.79129004  1  -0.06531  0  -0.044802  -0.11437  0  4.067042  0
C  C170  1  0.99342829  0.44467894  0.29128445  1  -0.065092  0  -0.044765  -0.114276  0  4.066999  0
C  C171  1  0.49343705  0.05531856  0.20871465  1  -0.064544  0  -0.044698  -0.114127  0  4.066934  0
C  C172  1  0.86850806  0.53823409  0.70731247  1  -0.050899  0  -0.083818  -0.076346  0  4.035645  0
C  C173  1  0.36849787  0.96177265  0.79269130  1  -0.050957  0  -0.083784  -0.076123  0  4.035527  0
C  C174  1  0.13149799  0.46176667  0.29268660  1  -0.045156  0  -0.083822  -0.076209  0  4.035777  0
C  C175  1  0.63150618  0.03822735  0.20731549  1  -0.045156  0  -0.083854  -0.07632  0  4.03558  0
C  C176  1  0.79695254  0.53820558  0.64594326  1  -0.069304  0  -0.105076  -0.208939  0  3.967929  0
C  C177  1  0.29693732  0.96179980  0.85405911  1  -0.069271  0  -0.105076  -0.209142  0  3.968041  0
C  C178  1  0.20306349  0.46179314  0.35405209  1  -0.075265  0  -0.105118  -0.209273  0  3.968221  0
C  C179  1  0.70307272  0.03819674  0.14594855  1  -0.075471  0  -0.105172  -0.209276  0  3.96808  0
C  C180  1  0.86092515  0.55798338  0.58341439  1  0.410139  0  0.106843  0.320407  0  4.079797  0
C  C181  1  0.36090754  0.94202396  0.91659092  1  0.4104  0  0.106802  0.320509  0  4.079641  0
C  C182  1  0.13909287  0.44202082  0.41658536  1  0.410703  0  0.106943  0.320763  0  4.079686  0
C  C183  1  0.63910749  0.05797122  0.08341461  1  0.41075  0  0.106782  0.320646  0  4.079655  0
C  C184  1  0.99950969  0.57551415  0.58466456  1  -0.028888  0  -0.104449  -0.205003  0  3.954319  0
C  C185  1  0.49949572  0.92449381  0.91534290  1  -0.028949  0  -0.104483  -0.205054  0  3.953971  0
C  C186  1  0.00050734  0.42449554  0.41533907  1  -0.028225  0  -0.104582  -0.205258  0  3.954404  0
C  C187  1  0.50051831  0.07549725  0.08465984  1  -0.028517  0  -0.104434  -0.205119  0  3.954171  0
C  C188  1  0.07030680  0.57340546  0.64602372  1  -0.013528  0  -0.085464  -0.072231  0  4.017974  0
C  C189  1  0.57030067  0.92660458  0.85398725  1  -0.01334  0  -0.085425  -0.072226  0  4.017754  0
C  C190  1  0.92970124  0.42660491  0.35398150  1  -0.013762  0  -0.085378  -0.07209  0  4.017677  0
C  C191  1  0.42971137  0.07339201  0.14601472  1  -0.014332  0  -0.085432  -0.072212  0  4.017543  0
C  C192  1  0.08553272  0.55172678  0.77328847  1  1.531955  0  0.218454  0.571459  0  4.201477  0
C  C193  1  0.58552601  0.94827169  0.72672046  1  1.53237  0  0.218338  0.571492  0  4.2017  0
C  C194  1  0.91447332  0.44826980  0.22671505  1  1.531886  0  0.218491  0.571551  0  4.201465  0
C  C195  1  0.41447604  0.05173110  0.27328285  1  1.532271  0  0.218236  0.571233  0  4.201774  0
C  C196  1  0.26737618  0.72257940  0.85711822  1  -0.449572  0  -0.338071  -0.745489  0  3.747397  0
C  C197  1  0.76736194  0.77741885  0.64287696  1  -0.449505  0  -0.338045  -0.745592  0  3.747308  0
C  C198  1  0.73260791  0.27741027  0.14288549  1  -0.449675  0  -0.337995  -0.745334  0  3.747066  0
C  C199  1  0.23260418  0.22259307  0.35710765  1  -0.449468  0  -0.338078  -0.745331  0  3.747364  0
C  C200  1  0.33307301  0.47609268  0.90842906  1  -0.496703  0  -0.332024  -0.745071  0  3.747515  0
C  C201  1  0.83302422  0.02390984  0.59157457  1  -0.497328  0  -0.33199  -0.745215  0  3.74746  0
C  C202  1  0.66693104  0.52390453  0.09158070  1  -0.496497  0  -0.332065  -0.745214  0  3.74727  0
C  C203  1  0.16694689  0.97609515  0.40841332  1  -0.496608  0  -0.331959  -0.745041  0  3.747185  0
C  C204  1  0.51095826  0.57637956  0.76452348  1  -0.462757  0  -0.339056  -0.740125  0  3.750418  0
C  C205  1  0.01094047  0.92361757  0.73547731  1  -0.463135  0  -0.339094  -0.740107  0  3.750235  0
C  C206  1  0.48903980  0.42361976  0.23548172  1  -0.463101  0  -0.339091  -0.740217  0  3.750204  0
C  C207  1  0.98903064  0.07638460  0.26451717  1  -0.465452  0  -0.339057  -0.740222  0  3.750195  0
N  N208  1  0.25036129  0.85667469  0.17836884  1  -1.279263  0  -0.590415  -0.613353  0  3.340771  0
N  N209  1  0.75035728  0.64331406  0.32162449  1  -1.312919  0  -0.590466  -0.613373  0  3.340763  0
N  N210  1  0.74964675  0.14331704  0.82163600  1  -1.279866  0  -0.590447  -0.61326  0  3.340619  0
N  N211  1  0.24966274  0.35668533  0.67837400  1  -1.312656  0  -0.590432  -0.613166  0  3.340587  0
N  N212  1  0.79083796  0.55836659  0.52234423  1  -1.224777  0  -0.588048  -0.609747  0  3.334149  0
N  N213  1  0.29082029  0.94163802  0.97766066  1  -1.224724  0  -0.58803  -0.609612  0  3.33453  0
N  N214  1  0.20918606  0.44163833  0.47765245  1  -1.225459  0  -0.587993  -0.6095  0  3.334268  0
N  N215  1  0.70920472  0.05835642  0.02235052  1  -1.225053  0  -0.587796  -0.609237  0  3.334315  0
O  O216  1  0.71114472  0.70157044  0.97670251  1  -1.172235  0  -0.288603  -0.53196  0  2.260418  0
O  O217  1  0.21112225  0.79843205  0.52329988  1  -1.17232  0  -0.288522  -0.531893  0  2.260689  0
O  O218  1  0.28886233  0.29843176  0.02328990  1  -1.17238  0  -0.288595  -0.531981  0  2.260694  0
O  O219  1  0.78887481  0.20156792  0.47671053  1  -1.17255  0  -0.288568  -0.531893  0  2.260876  0
O  O220  1  0.53767117  0.64026899  0.91746253  1  -1.223288  0  -0.288483  -0.566462  0  2.308066  0
O  O221  1  0.03764579  0.85974849  0.58253056  1  -1.223519  0  -0.288615  -0.566402  0  2.308426  0
O  O222  1  0.46232889  0.35973038  0.08253750  1  -1.223354  0  -0.288496  -0.566372  0  2.308157  0
O  O223  1  0.96233230  0.14026193  0.41746846  1  -1.223309  0  -0.288501  -0.56636  0  2.308364  0
O  O224  1  0.21287645  0.53755446  0.76412461  1  -1.203937  0  -0.294519  -0.560647  0  2.296477  0
O  O225  1  0.71286915  0.96244663  0.73588135  1  -1.204207  0  -0.294415  -0.560576  0  2.296455  0
O  O226  1  0.78711862  0.46244006  0.23587727  1  -1.203919  0  -0.294491  -0.560653  0  2.296356  0
O  O227  1  0.28712192  0.03756447  0.26411822  1  -1.204151  0  -0.294351  -0.560517  0  2.296393  0
O  O228  1  0.03364724  0.56131891  0.83284219  1  -1.205651  0  -0.288491  -0.555725  0  2.266682  0
O  O229  1  0.53363842  0.93866388  0.66716577  1  -1.205554  0  -0.288494  -0.555863  0  2.267113  0
O  O230  1  0.96635581  0.43867285  0.16715955  1  -1.20561  0  -0.288607  -0.5559  0  2.266927  0
O  O231  1  0.46636163  0.06132716  0.33283956  1  -1.205599  0  -0.288476  -0.555735  0  2.266911  0
