# generated using pymatgen
data_ZnH24C28(NO3)2
_symmetry_space_group_name_H-M   'P 1'
_cell_length_a   9.05721934
_cell_length_b   9.16335233
_cell_length_c   15.98300000
_cell_angle_alpha   78.60579071
_cell_angle_beta   77.93315718
_cell_angle_gamma   85.52992705
_symmetry_Int_Tables_number   1
_chemical_formula_structural   ZnH24C28(NO3)2
_chemical_formula_sum   'Zn2 H48 C56 N4 O12'
_cell_volume   1270.69586873
_cell_formula_units_Z   2
loop_
 _symmetry_equiv_pos_site_id
 _symmetry_equiv_pos_as_xyz
  1  'x, y, z'
loop_
 _atom_site_type_symbol
 _atom_site_label
 _atom_site_symmetry_multiplicity
 _atom_site_fract_x
 _atom_site_fract_y
 _atom_site_fract_z
 _atom_site_occupancy
 _atom_site_hle17_bader_spin_density
 _atom_site_hle17_ddec_charge
 _atom_site_hle17_ddec_spin_density
 _atom_site_hle17_ddec_sum_bond_order
 _atom_site_hle17_magmom
 _atom_site_hse06_10hf_bader_spin_density
 _atom_site_hse06_10hf_ddec_charge
 _atom_site_hse06_10hf_ddec_spin_density
 _atom_site_hse06_10hf_ddec_sum_bond_order
 _atom_site_hse06_10hf_magmom
 _atom_site_hse06_bader_spin_density
 _atom_site_hse06_ddec_charge
 _atom_site_hse06_ddec_spin_density
 _atom_site_hse06_ddec_sum_bond_order
 _atom_site_hse06_magmom
 _atom_site_pbe_bader_charge
 _atom_site_pbe_bader_spin_density
 _atom_site_pbe_cm5_charge
 _atom_site_pbe_ddec_charge
 _atom_site_pbe_ddec_spin_density
 _atom_site_pbe_ddec_sum_bond_order
 _atom_site_pbe_magmom
Zn  Zn0  1  0.58389554  0.64900141  0.74948236  1  0  0.975196  0  1.901172  0  0  0.779977  0  2.381997  0  0  0.826361  0  2.328138  0  1.238939  0  0.69926  0.74737  0  2.419317  0
Zn  Zn1  1  0.41610450  0.35099858  0.25051751  1  0  0.975183  0  1.901178  0  0  0.779972  0  2.38202  0  0  0.82636  0  2.328155  0  1.238946  0  0.699256  0.747367  0  2.419339  0
H  H2  1  0.95498508  0.43003323  0.09398107  1  0  0.062463  0  0.948097  0  0  0.072145  0  1.016697  0  0  0.073548  0  1.014945  0  0.068967  0  0.098545  0.07163  0  1.017187  0
H  H3  1  0.04501378  0.56996787  0.90601819  1  0  0.062465  0  0.948121  0  0  0.072145  0  1.016702  0  0  0.073546  0  1.014956  0  0.06896  0  0.098537  0.071628  0  1.017194  0
H  H4  1  0.77996035  0.34536033  0.14657327  1  0  0.04308  0  0.937363  0  0  0.056285  0  1.004145  0  0  0.056054  0  1.004507  0  0.019764  0  0.093688  0.056626  0  1.003929  0
H  H5  1  0.22004072  0.65464188  0.85342560  1  0  0.043098  0  0.937376  0  0  0.056282  0  1.004151  0  0  0.056051  0  1.004514  0  0.019723  0  0.093691  0.056623  0  1.003936  0
H  H6  1  0.80890623  0.68031090  0.07167138  1  0  0.10493  0  0.958716  0  0  0.124619  0  1.021996  0  0  0.125385  0  1.023601  0  0.056987  0  0.085779  0.123948  0  1.021167  0
H  H7  1  0.19109267  0.31968908  0.92832862  1  0  0.104927  0  0.958666  0  0  0.124608  0  1.021951  0  0  0.125372  0  1.023557  0  0.056987  0  0.085766  0.123938  0  1.021122  0
H  H8  1  0.80259718  0.60018002  0.18317400  1  0  0.106962  0  0.957971  0  0  0.129589  0  1.018838  0  0  0.129752  0  1.020652  0  0.041284  0  0.092064  0.129446  0  1.017531  0
H  H9  1  0.19740177  0.39981885  0.81682612  1  0  0.10696  0  0.957966  0  0  0.129585  0  1.018839  0  0  0.129752  0  1.020643  0  0.04127  0  0.09205  0.129442  0  1.017534  0
H  H10  1  0.64350710  0.58933244  0.13684192  1  0  0.098122  0  0.972493  0  0  0.117302  0  1.040761  0  0  0.119201  0  1.039335  0  0.008169  0  0.083631  0.116523  0  1.040672  0
H  H11  1  0.35649180  0.41066755  0.86315747  1  0  0.098144  0  0.972456  0  0  0.117314  0  1.040732  0  0  0.119194  0  1.039324  0  0.008198  0  0.083638  0.116535  0  1.040643  0
H  H12  1  0.93124065  0.18596197  0.08424008  1  0  0.106895  0  0.983219  0  0  0.117622  0  1.046003  0  0  0.121361  0  1.043095  0  0.063437  0  0.104155  0.115009  0  1.047881  0
H  H13  1  0.06876047  0.81403913  0.91576016  1  0  0.106907  0  0.983241  0  0  0.117635  0  1.046022  0  0  0.121373  0  1.043114  0  0.06344  0  0.104166  0.115022  0  1.0479  0
H  H14  1  0.96924537  0.98140747  0.85850516  1  0  0.092813  0  0.965243  0  0  0.108112  0  1.018751  0  0  0.111476  0  1.016644  0  0.075901  0  0.098633  0.105684  0  1.02059  0
H  H15  1  0.03075361  0.01859029  0.14149509  1  0  0.092831  0  0.965244  0  0  0.10813  0  1.018752  0  0  0.111494  0  1.016645  0  0.076395  0  0.09864  0.105701  0  1.020592  0
H  H16  1  0.84826302  0.20617879  0.78549982  1  0  0.090745  0  0.941767  0  0  0.102512  0  1.000061  0  0  0.105748  0  0.997929  0  0.082571  0  0.099862  0.099982  0  1.00207  0
H  H17  1  0.15173480  0.79382009  0.21449919  1  0  0.090773  0  0.941738  0  0  0.102502  0  1.00007  0  0  0.105742  0  0.997928  0  0.082602  0  0.099855  0.099972  0  1.00208  0
H  H18  1  0.21884332  0.60479111  0.40858370  1  0  0.09876  0  0.997052  0  0  0.108561  0  1.064405  0  0  0.112348  0  1.061457  0  0.026134  0  0.099082  0.106075  0  1.065932  0
H  H19  1  0.78115562  0.39520776  0.59141831  1  0  0.098752  0  0.99703  0  0  0.108545  0  1.064403  0  0  0.112333  0  1.061453  0  0.026103  0  0.09908  0.106061  0  1.065926  0
H  H20  1  0.38353178  0.79143823  0.35584119  1  0  0.032049  0  0.916861  0  0  0.048566  0  0.978097  0  0  0.048471  0  0.977855  0  0.035229  0  0.091244  0.048451  0  0.978444  0
H  H21  1  0.61646717  0.20856065  0.64415769  1  0  0.032074  0  0.916865  0  0  0.048599  0  0.978087  0  0  0.048503  0  0.977845  0  0.035234  0  0.091255  0.04846  0  0.978458  0
H  H22  1  0.46667228  0.60710835  0.37661516  1  0  0.063399  0  0.951328  0  0  0.076545  0  1.014772  0  0  0.077668  0  1.013542  0  0.095263  0  0.099064  0.075925  0  1.015373  0
H  H23  1  0.53332780  0.39289052  0.62338483  1  0  0.063423  0  0.951327  0  0  0.076563  0  1.014782  0  0  0.077683  0  1.013556  0  0.095276  0  0.099073  0.075943  0  1.015379  0
H  H24  1  0.62072623  0.89654964  0.37396261  1  0  0.112138  0  0.961794  0  0  0.131451  0  1.025333  0  0  0.133295  0  1.024324  0  0.046363  0  0.087934  0.13058  0  1.025242  0
H  H25  1  0.37927380  0.10345035  0.62603726  1  0  0.112148  0  0.961792  0  0  0.13146  0  1.025331  0  0  0.133304  0  1.024322  0  0.046363  0  0.087934  0.130588  0  1.025242  0
H  H26  1  0.66372705  0.78096385  0.29405678  1  0  0.104617  0  0.942142  0  0  0.131217  0  0.995743  0  0  0.131563  0  0.996923  0  0.01147  0  0.093052  0.130923  0  0.99505  0
H  H27  1  0.33627411  0.21903614  0.70594358  1  0  0.104623  0  0.942107  0  0  0.131222  0  0.995711  0  0  0.131567  0  0.996892  0  0.011466  0  0.093056  0.13093  0  0.995016  0
H  H28  1  0.69942532  0.71090295  0.39957005  1  0  0.10763  0  0.953927  0  0  0.127194  0  1.018367  0  0  0.12744  0  1.020887  0  0.037929  0  0.08973  0.126788  0  1.016854  0
H  H29  1  0.30057471  0.28909704  0.60043045  1  0  0.107647  0  0.953919  0  0  0.127215  0  1.018352  0  0  0.12746  0  1.020872  0  0.037938  0  0.089736  0.126809  0  1.016839  0
H  H30  1  0.07342459  0.56752920  0.72839576  1  0  0.097541  0  0.963975  0  0  0.110516  0  1.021708  0  0  0.113055  0  1.02088  0  0.049908  0  0.101412  0.108694  0  1.022389  0
H  H31  1  0.92657657  0.43247079  0.27160398  1  0  0.097522  0  0.963972  0  0  0.110491  0  1.021713  0  0  0.113031  0  1.020883  0  0.049906  0  0.101398  0.108651  0  1.022416  0
H  H32  1  0.90928005  0.46689074  0.65261878  1  0  0.086127  0  0.979412  0  0  0.098562  0  1.041244  0  0  0.101514  0  1.0396  0  0.05427  0  0.094264  0.096309  0  1.043082  0
H  H33  1  0.09072120  0.53310702  0.34738182  1  0  0.086125  0  0.979413  0  0  0.098551  0  1.041254  0  0  0.101501  0  1.039615  0  0.054261  0  0.094258  0.096299  0  1.043093  0
H  H34  1  0.85597755  0.80641897  0.75009975  1  0  0.095963  0  0.950793  0  0  0.105734  0  1.009085  0  0  0.108722  0  1.006312  0  0.140659  0  0.122085  0.103531  0  1.011081  0
H  H35  1  0.14402365  0.19357990  0.24990074  1  0  0.09593  0  0.95087  0  0  0.10572  0  1.009141  0  0  0.108705  0  1.006372  0  0.140672  0  0.12209  0.103519  0  1.011136  0
H  H36  1  0.05139785  0.95726694  0.64359475  1  0  0.116598  0  0.949649  0  0  0.127724  0  1.005364  0  0  0.131372  0  1.003662  0  0.110049  0  0.113495  0.125063  0  1.006903  0
H  H37  1  0.94860335  0.04273194  0.35640573  1  0  0.116585  0  0.949653  0  0  0.127709  0  1.005374  0  0  0.131357  0  1.003672  0  0.110055  0  0.113483  0.125048  0  1.006913  0
H  H38  1  0.79406592  0.93291250  0.44652689  1  0  0.111137  0  0.970189  0  0  0.121437  0  1.03069  0  0  0.124735  0  1.029206  0  0.118034  0  0.112983  0.119108  0  1.031739  0
H  H39  1  0.20593528  0.06708637  0.55347297  1  0  0.111195  0  0.970126  0  0  0.121491  0  1.030636  0  0  0.124788  0  1.029153  0  0.118068  0  0.112998  0.119162  0  1.031686  0
H  H40  1  0.61413526  0.77860205  0.56091560  1  0  0.09087  0  0.956569  0  0  0.093051  0  1.028347  0  0  0.096215  0  1.025681  0  0.142909  0  0.121067  0.090767  0  1.030175  0
H  H41  1  0.38586477  0.22139794  0.43908490  1  0  0.090876  0  0.956574  0  0  0.09306  0  1.028352  0  0  0.096224  0  1.025686  0  0.14289  0  0.121076  0.090777  0  1.030179  0
H  H42  1  0.46581415  0.13095868  0.86001669  1  0  0.114625  0  0.950111  0  0  0.1286  0  1.002481  0  0  0.131699  0  1.001742  0  0.094158  0  0.115592  0.126092  0  1.003904  0
H  H43  1  0.53418476  0.86904131  0.13998394  1  0  0.114667  0  0.950134  0  0  0.128609  0  1.002534  0  0  0.131707  0  1.001795  0  0.094157  0  0.115579  0.126101  0  1.003956  0
H  H44  1  0.47123601  0.95788969  0.75737727  1  0  0.088225  0  0.954518  0  0  0.094108  0  1.022708  0  0  0.096831  0  1.020475  0  0.162966  0  0.119843  0.091747  0  1.025024  0
H  H45  1  0.52876285  0.04211141  0.24262387  1  0  0.088236  0  0.954483  0  0  0.094127  0  1.022674  0  0  0.096853  0  1.020439  0  0.162857  0  0.119845  0.091765  0  1.02499  0
H  H46  1  0.54539293  0.59016687  0.94255000  1  0  0.082744  0  0.941594  0  0  0.090335  0  1.007573  0  0  0.092691  0  1.004998  0  0.09257  0  0.12181  0.088495  0  1.009644  0
H  H47  1  0.45460710  0.40983312  0.05745112  1  0  0.082725  0  0.941603  0  0  0.090326  0  1.007579  0  0  0.092681  0  1.005003  0  0.092612  0  0.121808  0.088486  0  1.009647  0
H  H48  1  0.52379687  0.74145154  0.05624335  1  0  0.108691  0  0.979722  0  0  0.116393  0  1.045193  0  0  0.119732  0  1.043901  0  0.116027  0  0.110746  0.11382  0  1.046727  0
H  H49  1  0.47620207  0.25854733  0.94375741  1  0  0.108739  0  0.979678  0  0  0.116437  0  1.04515  0  0  0.119776  0  1.043857  0  0.116036  0  0.110765  0.113864  0  1.046684  0
C  C50  1  0.76616835  0.46428050  0.84108892  1  0  0.65637  0  3.921713  0  0  0.603816  0  4.223564  0  0  0.638371  0  4.214435  0  1.541419  0  0.201486  0.580218  0  4.22912  0
C  C51  1  0.23382943  0.53571949  0.15891185  1  0  0.656266  0  3.92178  0  0  0.603781  0  4.223548  0  0  0.638335  0  4.214416  0  1.541453  0  0.201406  0.580184  0  4.229105  0
C  C52  1  0.82589712  0.32480707  0.89069948  1  0  -0.165102  0  3.751281  0  0  -0.148544  0  3.993948  0  0  -0.158328  0  4.014356  0  -0.002413  0  -0.030015  -0.141654  0  3.980144  0
C  C53  1  0.17410179  0.67519292  0.10929990  1  0  -0.165095  0  3.751342  0  0  -0.148561  0  3.994004  0  0  -0.158345  0  4.01441  0  -0.002362  0  -0.030001  -0.141671  0  3.980199  0
C  C54  1  0.84834200  0.31736070  0.97631933  1  0  0.269553  0  3.81442  0  0  0.250856  0  4.078233  0  0  0.263796  0  4.094278  0  0.489709  0  0.088496  0.241744  0  4.066647  0
C  C55  1  0.15165916  0.68263928  0.02367978  1  0  0.269473  0  3.814402  0  0  0.250815  0  4.078232  0  0  0.263754  0  4.094276  0  0.489694  0  0.088483  0.241704  0  4.066645  0
C  C56  1  0.83173060  0.44042182  0.09856832  1  0  0.133893  0  3.602151  0  0  0.081166  0  3.872276  0  0  0.089479  0  3.877989  0  0.404991  0  -0.073232  0.075175  0  3.868061  0
C  C57  1  0.16826930  0.55958151  0.90143056  1  0  0.133763  0  3.602311  0  0  0.081145  0  3.872348  0  0  0.08946  0  3.878051  0  0.404988  0  -0.073235  0.075154  0  3.868135  0
C  C58  1  0.76747268  0.58666761  0.12358303  1  0  -0.319044  0  3.706306  0  0  -0.40121  0  3.956107  0  0  -0.403989  0  3.965978  0  -0.039618  0  -0.251199  -0.399408  0  3.948837  0
C  C59  1  0.23252505  0.41333349  0.87641699  1  0  -0.31904  0  3.706243  0  0  -0.401222  0  3.956046  0  0  -0.403982  0  3.965931  0  -0.039597  0  -0.251174  -0.399422  0  3.948776  0
C  C60  1  0.91552819  0.18924399  0.01836316  1  0  -0.248078  0  3.730636  0  0  -0.276943  0  3.986752  0  0  -0.283243  0  4.00503  0  -0.036859  0  -0.109517  -0.271471  0  3.97263  0
C  C61  1  0.08447410  0.81075600  0.98163645  1  0  -0.248098  0  3.730651  0  0  -0.276953  0  3.986768  0  0  -0.283252  0  4.005044  0  -0.036865  0  -0.109532  -0.271481  0  3.972645  0
C  C62  1  0.96276425  0.06642907  0.97725779  1  0  0.077744  0  3.793  0  0  0.091887  0  4.02836  0  0  0.094832  0  4.050249  0  0.026228  0  -0.009136  0.090097  0  4.01308  0
C  C63  1  0.03723465  0.93357091  0.02274222  1  0  0.077772  0  3.793024  0  0  0.091907  0  4.028395  0  0  0.094851  0  4.050282  0  -0.009549  0  -0.009105  0.090117  0  4.013113  0
C  C64  1  0.93648456  0.07397793  0.89279199  1  0  -0.144763  0  3.770993  0  0  -0.168252  0  4.023482  0  0  -0.172628  0  4.043668  0  -0.034357  0  -0.109267  -0.166172  0  4.010658  0
C  C65  1  0.06351547  0.92602205  0.10720725  1  0  -0.144818  0  3.771124  0  0  -0.168305  0  4.0236  0  0  -0.17268  0  4.043786  0  -0.034853  0  -0.109302  -0.166225  0  4.010775  0
C  C66  1  0.86779318  0.20081794  0.85116306  1  0  -0.060177  0  3.799735  0  0  -0.082888  0  4.051891  0  0  -0.080682  0  4.071306  0  -0.097009  0  -0.091743  -0.084035  0  4.038848  0
C  C67  1  0.13220460  0.79918205  0.14883645  1  0  -0.060195  0  3.799807  0  0  -0.08286  0  4.051946  0  0  -0.080654  0  4.071362  0  -0.097057  0  -0.091721  -0.084008  0  4.038903  0
C  C68  1  0.04985800  0.52873546  0.52381151  1  0  0.066966  0  3.811478  0  0  0.081399  0  4.047521  0  0  0.083696  0  4.070462  0  0.059022  0  -0.017384  0.080432  0  4.03031  0
C  C69  1  0.95014433  0.47126341  0.47618884  1  0  0.066981  0  3.811438  0  0  0.081402  0  4.047488  0  0  0.083698  0  4.070429  0  0.022014  0  -0.017397  0.080435  0  4.030278  0
C  C70  1  0.18578190  0.59616384  0.47868678  1  0  -0.25495  0  3.748984  0  0  -0.284825  0  4.006792  0  0  -0.290948  0  4.025275  0  -0.040962  0  -0.114744  -0.278499  0  3.990934  0
C  C71  1  0.81421926  0.40383614  0.52131358  1  0  -0.254902  0  3.748956  0  0  -0.284776  0  4.00676  0  0  -0.290897  0  4.025248  0  -0.041008  0  -0.114716  -0.278447  0  3.990902  0
C  C72  1  0.28065370  0.65156931  0.52260445  1  0  0.258825  0  3.820977  0  0  0.241299  0  4.084102  0  0  0.253723  0  4.099331  0  0.488472  0  0.080654  0.233027  0  4.073058  0
C  C73  1  0.71934629  0.34843179  0.47739468  1  0  0.258787  0  3.821038  0  0  0.241269  0  4.084152  0  0  0.253671  0  4.099381  0  0.488576  0  0.080637  0.23299  0  4.073108  0
C  C74  1  0.46446438  0.72022762  0.39051750  1  0  0.142922  0  3.625189  0  0  0.088769  0  3.896276  0  0  0.097074  0  3.902195  0  0.373809  0  -0.072119  0.082874  0  3.892219  0
C  C75  1  0.53553678  0.27977237  0.60948161  1  0  0.142894  0  3.625271  0  0  0.088734  0  3.896351  0  0  0.097025  0  3.902272  0  0.373804  0  -0.072128  0.082851  0  3.892292  0
C  C76  1  0.62099982  0.78160221  0.36359915  1  0  -0.324955  0  3.703631  0  0  -0.40221  0  3.947122  0  0  -0.40498  0  3.956886  0  -0.03128  0  -0.248064  -0.400187  0  3.940247  0
C  C77  1  0.37900022  0.21839778  0.63640135  1  0  -0.324998  0  3.703614  0  0  -0.402252  0  3.947109  0  0  -0.40502  0  3.956875  0  -0.031275  0  -0.248087  -0.400228  0  3.940227  0
C  C78  1  0.23996983  0.64233822  0.61335920  1  0  -0.148379  0  3.742383  0  0  -0.133147  0  3.985514  0  0  -0.141024  0  4.003735  0  -0.001262  0  -0.026354  -0.128386  0  3.974244  0
C  C79  1  0.76003124  0.35766399  0.38664029  1  0  -0.148414  0  3.742437  0  0  -0.13319  0  3.985589  0  0  -0.141051  0  4.003789  0  -0.001264  0  -0.026377  -0.128428  0  3.974315  0
C  C80  1  0.10649470  0.57476724  0.65813554  1  0  -0.075068  0  3.797714  0  0  -0.097125  0  4.048199  0  0  -0.095847  0  4.068194  0  -0.027163  0  -0.095839  -0.097701  0  4.035347  0
C  C81  1  0.89350637  0.42523498  0.34186396  1  0  -0.075006  0  3.797737  0  0  -0.097059  0  4.048224  0  0  -0.095785  0  4.068213  0  -0.027221  0  -0.095797  -0.09762  0  4.035376  0
C  C82  1  0.01258037  0.51813742  0.61451403  1  0  -0.139316  0  3.769106  0  0  -0.163734  0  4.025753  0  0  -0.16779  0  4.046518  0  -0.075045  0  -0.110439  -0.162352  0  4.012946  0
C  C83  1  0.98741966  0.48186257  0.38548647  1  0  -0.139351  0  3.769049  0  0  -0.163755  0  4.025698  0  0  -0.167814  0  4.046464  0  -0.074952  0  -0.110455  -0.162375  0  4.012887  0
C  C84  1  0.34232889  0.69755318  0.66188916  1  0  0.680732  0  3.911005  0  0  0.623552  0  4.222056  0  0  0.658722  0  4.211007  0  1.592511  0  0.207225  0.59971  0  4.228925  0
C  C85  1  0.65767105  0.30244903  0.33811110  1  0  0.680876  0  3.910891  0  0  0.623668  0  4.221983  0  0  0.658836  0  4.210928  0  1.592475  0  0.207278  0.599825  0  4.228852  0
C  C86  1  0.84707969  0.84003011  0.68202626  1  0  0.126235  0  3.712615  0  0  0.093378  0  3.964005  0  0  0.099955  0  3.983032  0  0.484058  0  0.047978  0.089283  0  3.95104  0
C  C87  1  0.15292264  0.15996876  0.31797347  1  0  0.126219  0  3.712673  0  0  0.09336  0  3.964059  0  0  0.099938  0  3.983086  0  0.48426  0  0.047965  0.089264  0  3.951097  0
C  C88  1  0.95533824  0.92424959  0.62150615  1  0  -0.142424  0  3.689262  0  0  -0.16052  0  3.934256  0  0  -0.168774  0  3.956211  0  0.009366  0  -0.07148  -0.155758  0  3.920112  0
C  C89  1  0.04466179  0.07575040  0.37849372  1  0  -0.142363  0  3.68926  0  0  -0.160452  0  3.934269  0  0  -0.168708  0  3.956227  0  0.009158  0  -0.071473  -0.155693  0  3.920126  0
C  C90  1  0.94215830  0.95796768  0.53374388  1  0  0.105014  0  3.730413  0  0  0.115015  0  3.962027  0  0  0.1192  0  3.983842  0  -0.077073  0  0.021786  0.112321  0  3.947284  0
C  C91  1  0.05784407  0.04203008  0.46625471  1  0  0.10495  0  3.730482  0  0  0.114913  0  3.962141  0  0  0.119098  0  3.983956  0  -0.042744  0  0.02179  0.112222  0  3.947396  0
C  C92  1  0.81474181  0.90743065  0.51251457  1  0  -0.134191  0  3.665966  0  0  -0.154648  0  3.909642  0  0  -0.161952  0  3.930271  0  -0.010207  0  -0.068292  -0.150015  0  3.895899  0
C  C93  1  0.18526061  0.09256600  0.48748477  1  0  -0.134216  0  3.665906  0  0  -0.154684  0  3.909608  0  0  -0.161989  0  3.930242  0  -0.009689  0  -0.06831  -0.150053  0  3.895867  0
C  C94  1  0.71197756  0.82200688  0.57632174  1  0  0.144169  0  3.672907  0  0  0.113221  0  3.922145  0  0  0.120538  0  3.939865  0  0.454434  0  0.056709  0.1083  0  3.910307  0
C  C95  1  0.28802360  0.17799311  0.42367863  1  0  0.144148  0  3.672891  0  0  0.113215  0  3.922124  0  0  0.120532  0  3.939843  0  0.454477  0  0.056686  0.108293  0  3.91029  0
C  C96  1  0.49924281  0.95209659  0.96805537  1  0  0.105907  0  3.733817  0  0  0.11624  0  3.964184  0  0  0.120393  0  3.986156  0  -0.044751  0  0.021433  0.113947  0  3.948969  0
C  C97  1  0.50075492  0.04790451  0.03194527  1  0  0.105926  0  3.733818  0  0  0.116258  0  3.964166  0  0  0.12041  0  3.986139  0  0.004236  0  0.021469  0.113965  0  3.948952  0
C  C98  1  0.48187742  0.01178562  0.88241009  1  0  -0.146161  0  3.682353  0  0  -0.163242  0  3.922952  0  0  -0.171407  0  3.945028  0  -0.011977  0  -0.073314  -0.158685  0  3.909607  0
C  C99  1  0.51812035  0.98821436  0.11759130  1  0  -0.146231  0  3.682404  0  0  -0.163274  0  3.922996  0  0  -0.171437  0  3.945073  0  -0.011976  0  -0.073322  -0.158718  0  3.909652  0
C  C100  1  0.48682122  0.91734465  0.82393667  1  0  0.130293  0  3.704963  0  0  0.097668  0  3.956161  0  0  0.104609  0  3.974573  0  0.41578  0  0.052878  0.092847  0  3.944635  0
C  C101  1  0.51317655  0.08265533  0.17606347  1  0  0.130247  0  3.704959  0  0  0.097597  0  3.956163  0  0  0.104537  0  3.974578  0  0.415858  0  0.052833  0.092778  0  3.944635  0
C  C102  1  0.52477472  0.71013647  0.92778987  1  0  0.164723  0  3.680686  0  0  0.126661  0  3.938388  0  0  0.135763  0  3.954179  0  0.481094  0  0.060156  0.120436  0  3.928549  0
C  C103  1  0.47522305  0.28986351  0.07221153  1  0  0.164787  0  3.680876  0  0  0.126688  0  3.938605  0  0  0.135793  0  3.954393  0  0.481045  0  0.060164  0.120463  0  3.928767  0
C  C104  1  0.51550992  0.79676009  0.99065591  1  0  -0.140159  0  3.672265  0  0  -0.159692  0  3.920995  0  0  -0.16775  0  3.94224  0  0.063518  0  -0.07134  -0.155022  0  3.907944  0
C  C105  1  0.48448898  0.20323990  0.00934535  1  0  -0.140289  0  3.672304  0  0  -0.159809  0  3.921046  0  0  -0.167868  0  3.94229  0  0.063536  0  -0.071416  -0.15514  0  3.907996  0
N  N106  1  0.72865597  0.78736746  0.65989229  1  0  -0.339317  0  3.336207  0  0  -0.253258  0  3.616477  0  0  -0.27295  0  3.631652  0  -1.257871  0  -0.334475  -0.24  0  3.606145  0
N  N107  1  0.27134515  0.21263364  0.34010796  1  0  -0.339296  0  3.336213  0  0  -0.253259  0  3.616497  0  0  -0.272951  0  3.631674  0  -1.257883  0  -0.334465  -0.240001  0  3.606165  0
N  N108  1  0.51200761  0.76900221  0.84556433  1  0  -0.333651  0  3.327879  0  0  -0.248026  0  3.609174  0  0  -0.266966  0  3.622404  0  -1.271085  0  -0.334023  -0.235423  0  3.600571  0
N  N109  1  0.48799237  0.23099890  0.15443604  1  0  -0.333576  0  3.32803  0  0  -0.247919  0  3.609311  0  0  -0.26686  0  3.622543  0  -1.27111  0  -0.333952  -0.235316  0  3.600706  0
O  O110  1  0.65235434  0.44934209  0.80550626  1  0  -0.65622  0  1.981598  0  0  -0.582082  0  2.249972  0  0  -0.610324  0  2.233948  0  -1.162646  0  -0.34286  -0.562283  0  2.260432  0
O  O111  1  0.34764343  0.55065790  0.19449325  1  0  -0.656146  0  1.981552  0  0  -0.582115  0  2.250004  0  0  -0.610357  0  2.233981  0  -1.162616  0  -0.342865  -0.562318  0  2.260465  0
O  O112  1  0.82599276  0.58553795  0.83452034  1  0  -0.610116  0  1.938805  0  0  -0.565208  0  2.167373  0  0  -0.588543  0  2.158752  0  -1.168198  0  -0.310681  -0.54846  0  2.172466  0
O  O113  1  0.17400619  0.41446092  0.16547916  1  0  -0.610069  0  1.938809  0  0  -0.56514  0  2.167311  0  0  -0.58848  0  2.158694  0  -1.168233  0  -0.310621  -0.548394  0  2.172406  0
O  O114  1  0.79741796  0.43727683  0.01431331  1  0  -0.300703  0  2.316178  0  0  -0.224406  0  2.553017  0  0  -0.244221  0  2.557569  0  -1.066925  0  -0.181056  -0.210111  0  2.54891  0
O  O115  1  0.20258207  0.56272315  0.98568531  1  0  -0.300504  0  2.316155  0  0  -0.224328  0  2.553042  0  0  -0.244141  0  2.557593  0  -1.066923  0  -0.181042  -0.210033  0  2.548933  0
O  O116  1  0.41502003  0.71595520  0.48301791  1  0  -0.298582  0  2.290923  0  0  -0.224094  0  2.526162  0  0  -0.242606  0  2.528234  0  -1.074605  0  -0.183544  -0.211267  0  2.523934  0
O  O117  1  0.58498121  0.28404256  0.51698207  1  0  -0.298602  0  2.291008  0  0  -0.224103  0  2.526236  0  0  -0.242583  0  2.528291  0  -1.07461  0  -0.18353  -0.211265  0  2.523998  0
O  O118  1  0.44085807  0.59589090  0.68637456  1  0  -0.646177  0  2.051781  0  0  -0.562431  0  2.322947  0  0  -0.59217  0  2.307271  0  -1.166508  0  -0.329539  -0.541989  0  2.332863  0
O  O119  1  0.55914188  0.40411132  0.31362507  1  0  -0.646285  0  2.051817  0  0  -0.562494  0  2.322966  0  0  -0.592238  0  2.307287  0  -1.166506  0  -0.329556  -0.542053  0  2.332881  0
O  O120  1  0.32870796  0.82700231  0.67693509  1  0  -0.628124  0  1.871735  0  0  -0.586551  0  2.09456  0  0  -0.609217  0  2.084485  0  -1.182152  0  -0.328157  -0.570066  0  2.100119  0
O  O121  1  0.67129203  0.17299879  0.32306591  1  0  -0.628154  0  1.87168  0  0  -0.586585  0  2.094534  0  0  -0.609253  0  2.084458  0  -1.182097  0  -0.328168  -0.570101  0  2.100097  0
