# generated using pymatgen
data_ZnH4C7N4O3
_symmetry_space_group_name_H-M   'P 1'
_cell_length_a   8.92061275
_cell_length_b   9.29813773
_cell_length_c   10.21147446
_cell_angle_alpha   89.99995817
_cell_angle_beta   90.00015983
_cell_angle_gamma   111.39074296
_symmetry_Int_Tables_number   1
_chemical_formula_structural   ZnH4C7N4O3
_chemical_formula_sum   'Zn4 H16 C28 N16 O12'
_cell_volume   788.64640230
_cell_formula_units_Z   4
loop_
 _symmetry_equiv_pos_site_id
 _symmetry_equiv_pos_as_xyz
  1  'x, y, z'
loop_
 _atom_site_type_symbol
 _atom_site_label
 _atom_site_symmetry_multiplicity
 _atom_site_fract_x
 _atom_site_fract_y
 _atom_site_fract_z
 _atom_site_occupancy
 _atom_site_hle17_bader_spin_density
 _atom_site_hle17_ddec_charge
 _atom_site_hle17_ddec_spin_density
 _atom_site_hle17_ddec_sum_bond_order
 _atom_site_hle17_magmom
 _atom_site_hse06_10hf_bader_spin_density
 _atom_site_hse06_10hf_ddec_charge
 _atom_site_hse06_10hf_ddec_spin_density
 _atom_site_hse06_10hf_ddec_sum_bond_order
 _atom_site_hse06_10hf_magmom
 _atom_site_hse06_bader_spin_density
 _atom_site_hse06_ddec_charge
 _atom_site_hse06_ddec_spin_density
 _atom_site_hse06_ddec_sum_bond_order
 _atom_site_hse06_magmom
 _atom_site_pbe_bader_spin_density
 _atom_site_pbe_cm5_charge
 _atom_site_pbe_ddec_charge
 _atom_site_pbe_ddec_spin_density
 _atom_site_pbe_ddec_sum_bond_order
 _atom_site_pbe_magmom
Zn  Zn0  1  0.15084538  0.83501993  0.80600300  1  0  1.056836  0  1.823976  0  0  0.869395  0  2.301214  0  0  0.912818  0  2.249439  0  0  0.730242  0.837882  0  2.337676  0
Zn  Zn1  1  0.34915548  0.16498058  0.30600221  1  0  1.056798  0  1.824006  0  0  0.86937  0  2.30122  0  0  0.912785  0  2.249455  0  0  0.730233  0.837852  0  2.337686  0
Zn  Zn2  1  0.84915593  0.16498116  0.19399647  1  0  1.056837  0  1.823942  0  0  0.869407  0  2.301157  0  0  0.912823  0  2.249383  0  0  0.730244  0.837894  0  2.337618  0
Zn  Zn3  1  0.65084495  0.83501820  0.69399628  1  0  1.056827  0  1.823943  0  0  0.869393  0  2.301177  0  0  0.91281  0  2.249403  0  0  0.73023  0.837875  0  2.337638  0
H  H4  1  0.93398445  0.48319199  0.61641441  1  0  0.124885  0  0.909859  0  0  0.137218  0  0.969615  0  0  0.139929  0  0.967404  0  0  0.123754  0.135005  0  0.971868  0
H  H5  1  0.56601505  0.51680734  0.11641368  1  0  0.124867  0  0.909894  0  0  0.137231  0  0.969602  0  0  0.139946  0  0.967395  0  0  0.123769  0.135019  0  0.971855  0
H  H6  1  0.06601530  0.51680794  0.38358702  1  0  0.124876  0  0.909862  0  0  0.137245  0  0.969581  0  0  0.139953  0  0.967368  0  0  0.123771  0.135032  0  0.971835  0
H  H7  1  0.43398426  0.48319144  0.88358579  1  0  0.124867  0  0.909851  0  0  0.137218  0  0.969607  0  0  0.139916  0  0.967391  0  0  0.123751  0.135005  0  0.97186  0
H  H8  1  0.92191730  0.48743979  0.78962150  1  0  0.128325  0  0.938886  0  0  0.136885  0  1.006321  0  0  0.139661  0  1.004518  0  0  0.123893  0.13437  0  1.00845  0
H  H9  1  0.57808234  0.51255844  0.28962081  1  0  0.128344  0  0.938903  0  0  0.136906  0  1.006332  0  0  0.139686  0  1.004534  0  0  0.1239  0.134392  0  1.008462  0
H  H10  1  0.07808382  0.51255783  0.21037993  1  0  0.128338  0  0.938928  0  0  0.13687  0  1.00639  0  0  0.139645  0  1.004585  0  0  0.123899  0.134363  0  1.00852  0
H  H11  1  0.42191585  0.48744034  0.71037867  1  0  0.128305  0  0.938919  0  0  0.136852  0  1.006381  0  0  0.139616  0  1.004573  0  0  0.123885  0.134342  0  1.008511  0
H  H12  1  0.71005737  0.33536225  0.89790047  1  0  0.088777  0  0.924885  0  0  0.096026  0  0.990318  0  0  0.098827  0  0.986817  0  0  0.134199  0.094693  0  0.99142  0
H  H13  1  0.78994127  0.66463834  0.39789921  1  0  0.088788  0  0.924908  0  0  0.09604  0  0.99033  0  0  0.098839  0  0.986839  0  0  0.134209  0.094707  0  0.991434  0
H  H14  1  0.28994126  0.66463769  0.10210096  1  0  0.088803  0  0.924898  0  0  0.096054  0  0.990313  0  0  0.098851  0  0.986825  0  0  0.134217  0.094723  0  0.991416  0
H  H15  1  0.21005736  0.33536159  0.60210026  1  0  0.088751  0  0.924819  0  0  0.096005  0  0.990251  0  0  0.098802  0  0.986759  0  0  0.134171  0.094671  0  0.991356  0
H  H16  1  0.15008321  0.91433111  0.50829278  1  0  0.089197  0  0.971024  0  0  0.0912  0  1.046458  0  0  0.094757  0  1.041988  0  0  0.126555  0.088636  0  1.049742  0
H  H17  1  0.34991666  0.08566930  0.00829303  1  0  0.089194  0  0.971047  0  0  0.091203  0  1.046478  0  0  0.094757  0  1.042007  0  0  0.126549  0.088637  0  1.049761  0
H  H18  1  0.84991698  0.08566998  0.49170669  1  0  0.089178  0  0.971028  0  0  0.091187  0  1.046461  0  0  0.094743  0  1.041989  0  0  0.126549  0.088622  0  1.049744  0
H  H19  1  0.65008265  0.91432948  0.99170644  1  0  0.089181  0  0.971026  0  0  0.091184  0  1.046465  0  0  0.09474  0  1.041995  0  0  0.126552  0.088621  0  1.049743  0
C  C20  1  0.83053575  0.64136089  0.69084814  1  0  0.719313  0  3.818012  0  0  0.665084  0  4.118903  0  0  0.699775  0  4.109231  0  0  0.228317  0.641977  0  4.122729  0
C  C21  1  0.66946288  0.35863846  0.19084777  1  0  0.719471  0  3.81795  0  0  0.665213  0  4.118875  0  0  0.699915  0  4.109202  0  0  0.228362  0.64211  0  4.122698  0
C  C22  1  0.16946244  0.35863789  0.30915329  1  0  0.719414  0  3.818007  0  0  0.665173  0  4.118914  0  0  0.699866  0  4.109239  0  0  0.228343  0.642067  0  4.12274  0
C  C23  1  0.33053575  0.64136147  0.80915170  1  0  0.719395  0  3.818022  0  0  0.665201  0  4.118884  0  0  0.699878  0  4.109204  0  0  0.228346  0.642095  0  4.122712  0
C  C24  1  0.85735255  0.48890110  0.69879321  1  0  -0.170068  0  3.646829  0  0  -0.234657  0  3.902014  0  0  -0.235063  0  3.908146  0  0  -0.058057  -0.234007  0  3.89812  0
C  C25  1  0.64264922  0.51110057  0.19879267  1  0  -0.170198  0  3.647013  0  0  -0.234811  0  3.902175  0  0  -0.235248  0  3.908345  0  0  -0.058134  -0.234163  0  3.89828  0
C  C26  1  0.14264944  0.51109883  0.30120822  1  0  -0.170118  0  3.646987  0  0  -0.234745  0  3.902194  0  0  -0.23514  0  3.90831  0  0  -0.058086  -0.234104  0  3.898307  0
C  C27  1  0.35735097  0.48890052  0.80120680  1  0  -0.170051  0  3.64686  0  0  -0.234687  0  3.902171  0  0  -0.235025  0  3.908214  0  0  -0.058076  -0.234043  0  3.898282  0
C  C28  1  0.63349304  0.31257752  0.57005155  1  0  0.463076  0  3.876226  0  0  0.419161  0  4.160797  0  0  0.447529  0  4.163401  0  0  0.220279  0.399617  0  4.159975  0
C  C29  1  0.86650875  0.68742526  0.07005242  1  0  0.463136  0  3.876134  0  0  0.419204  0  4.160694  0  0  0.447576  0  4.163293  0  0  0.220322  0.399662  0  4.159873  0
C  C30  1  0.36651359  0.68743166  0.42994303  1  0  0.463065  0  3.875904  0  0  0.419149  0  4.160455  0  0  0.447518  0  4.163058  0  0  0.220229  0.399608  0  4.159634  0
C  C31  1  0.13349188  0.31257698  0.92994999  1  0  0.463119  0  3.87617  0  0  0.419232  0  4.160718  0  0  0.447603  0  4.163323  0  0  0.220307  0.399692  0  4.159893  0
C  C32  1  0.64143047  0.28437119  0.81010799  1  0  0.264419  0  3.675445  0  0  0.201354  0  3.961976  0  0  0.2204  0  3.970417  0  0  0.177789  0.188769  0  3.955235  0
C  C33  1  0.85856632  0.71562821  0.31010784  1  0  0.264335  0  3.675472  0  0  0.20124  0  3.96201  0  0  0.220285  0  3.97045  0  0  0.177748  0.188655  0  3.955271  0
C  C34  1  0.35856816  0.71562874  0.18989148  1  0  0.264321  0  3.675474  0  0  0.201238  0  3.96199  0  0  0.22028  0  3.97043  0  0  0.177759  0.188651  0  3.95525  0
C  C35  1  0.14143119  0.28437173  0.68989261  1  0  0.26443  0  3.675422  0  0  0.201381  0  3.96197  0  0  0.220422  0  3.970417  0  0  0.177836  0.188793  0  3.955231  0
C  C36  1  0.48446330  0.18502469  0.58214467  1  0  -0.065372  0  3.824046  0  0  -0.066781  0  4.076141  0  0  -0.075379  0  4.100622  0  0  0.066902  -0.061894  0  4.060021  0
C  C37  1  0.01553638  0.81497459  0.08214362  1  0  -0.065419  0  3.824009  0  0  -0.066818  0  4.076085  0  0  -0.07542  0  4.100562  0  0  0.066894  -0.061933  0  4.059975  0
C  C38  1  0.51553533  0.81497525  0.41785480  1  0  -0.065411  0  3.824044  0  0  -0.066831  0  4.076146  0  0  -0.075436  0  4.100622  0  0  0.066904  -0.061951  0  4.060041  0
C  C39  1  0.98446181  0.18502419  0.91785488  1  0  -0.065493  0  3.824018  0  0  -0.066882  0  4.076083  0  0  -0.075491  0  4.100563  0  0  0.066845  -0.061998  0  4.059969  0
C  C40  1  0.43072374  0.11658694  0.70420241  1  0  0.316265  0  3.868442  0  0  0.286543  0  4.143743  0  0  0.300492  0  4.162224  0  0  0.199692  0.277218  0  4.131741  0
C  C41  1  0.06927566  0.88341354  0.20420243  1  0  0.316257  0  3.868369  0  0  0.286529  0  4.143674  0  0  0.300488  0  4.162146  0  0  0.199684  0.277195  0  4.131688  0
C  C42  1  0.56927645  0.88341415  0.29579706  1  0  0.316312  0  3.868354  0  0  0.286587  0  4.143648  0  0  0.300548  0  4.162113  0  0  0.199728  0.277253  0  4.131664  0
C  C43  1  0.93072297  0.11658640  0.79579704  1  0  0.316289  0  3.868408  0  0  0.286578  0  4.14369  0  0  0.300545  0  4.162154  0  0  0.199717  0.277244  0  4.131706  0
C  C44  1  0.25788933  0.99431502  0.55517055  1  0  0.266206  0  3.674691  0  0  0.207828  0  3.948733  0  0  0.223396  0  3.960767  0  0  0.147002  0.197336  0  3.94031  0
C  C45  1  0.24211070  0.00568540  0.05517058  1  0  0.266187  0  3.674688  0  0  0.207797  0  3.948731  0  0  0.223373  0  3.960763  0  0  0.147001  0.197308  0  3.940305  0
C  C46  1  0.74211086  0.00568607  0.44482893  1  0  0.266263  0  3.674624  0  0  0.207872  0  3.948664  0  0  0.223442  0  3.960695  0  0  0.147031  0.197381  0  3.940238  0
C  C47  1  0.75788749  0.99431338  0.94482889  1  0  0.266239  0  3.674601  0  0  0.207873  0  3.948647  0  0  0.223444  0  3.960682  0  0  0.147027  0.197383  0  3.940222  0
N  N48  1  0.70780444  0.35506734  0.69497286  1  0  -0.172673  0  3.447842  0  0  -0.084884  0  3.673173  0  0  -0.105949  0  3.695568  0  0  -0.238798  -0.070545  0  3.658341  0
N  N49  1  0.79219465  0.64493318  0.19497162  1  0  -0.172522  0  3.447947  0  0  -0.084671  0  3.673192  0  0  -0.105729  0  3.695593  0  0  -0.238726  -0.070334  0  3.65836  0
N  N50  1  0.29219532  0.64493260  0.30502759  1  0  -0.172508  0  3.447916  0  0  -0.084647  0  3.673144  0  0  -0.105716  0  3.695541  0  0  -0.238721  -0.070309  0  3.658312  0
N  N51  1  0.20780286  0.35506676  0.80502688  1  0  -0.172614  0  3.447815  0  0  -0.084862  0  3.673217  0  0  -0.105946  0  3.695593  0  0  -0.238765  -0.070526  0  3.658387  0
N  N52  1  0.50604827  0.16566267  0.82070672  1  0  -0.403279  0  3.053499  0  0  -0.368529  0  3.338085  0  0  -0.384917  0  3.348455  0  0  -0.326383  -0.357693  0  3.331195  0
N  N53  1  0.99395055  0.83433904  0.32070584  1  0  -0.403251  0  3.05345  0  0  -0.368506  0  3.338046  0  0  -0.384895  0  3.348415  0  0  -0.326372  -0.357665  0  3.331162  0
N  N54  1  0.49395080  0.83433842  0.17929373  1  0  -0.403242  0  3.053524  0  0  -0.3685  0  3.338115  0  0  -0.384885  0  3.348476  0  0  -0.326366  -0.357656  0  3.331227  0
N  N55  1  0.00604852  0.16566205  0.67929363  1  0  -0.40328  0  3.053524  0  0  -0.368542  0  3.338113  0  0  -0.384931  0  3.348479  0  0  -0.326401  -0.357697  0  3.331225  0
N  N56  1  0.28777992  0.99502899  0.68511460  1  0  -0.479623  0  3.223159  0  0  -0.397337  0  3.527195  0  0  -0.420296  0  3.534139  0  0  -0.365395  -0.381338  0  3.522544  0
N  N57  1  0.21221898  0.00497032  0.18511456  1  0  -0.479542  0  3.223132  0  0  -0.397278  0  3.527211  0  0  -0.420237  0  3.534145  0  0  -0.365365  -0.381274  0  3.52256  0
N  N58  1  0.71222027  0.00497210  0.31488585  1  0  -0.479686  0  3.223131  0  0  -0.397404  0  3.527185  0  0  -0.420364  0  3.53412  0  0  -0.365446  -0.381401  0  3.522537  0
N  N59  1  0.78778077  0.99502961  0.81488589  1  0  -0.479633  0  3.223121  0  0  -0.397388  0  3.527207  0  0  -0.420353  0  3.534147  0  0  -0.365428  -0.381386  0  3.52256  0
N  N60  1  0.37274592  0.10606131  0.48869282  1  0  -0.425193  0  3.281609  0  0  -0.347149  0  3.585797  0  0  -0.367986  0  3.599153  0  0  -0.364441  -0.332148  0  3.575521  0
N  N61  1  0.12725287  0.89393811  0.98869253  1  0  -0.425196  0  3.281561  0  0  -0.34714  0  3.58573  0  0  -0.367977  0  3.599083  0  0  -0.364449  -0.332138  0  3.575455  0
N  N62  1  0.62725427  0.89393978  0.51130665  1  0  -0.425165  0  3.281494  0  0  -0.347108  0  3.585669  0  0  -0.367945  0  3.599022  0  0  -0.36443  -0.332104  0  3.575393  0
N  N63  1  0.87274533  0.10606067  0.01130792  1  0  -0.425133  0  3.281464  0  0  -0.347102  0  3.585648  0  0  -0.367942  0  3.599005  0  0  -0.364423  -0.332103  0  3.575374  0
O  O64  1  0.95099988  0.76703685  0.69750938  1  0  -0.646387  0  2.079876  0  0  -0.571937  0  2.361228  0  0  -0.599274  0  2.344326  0  0  -0.319615  -0.551938  0  2.371342  0
O  O65  1  0.54900258  0.23296366  0.19750880  1  0  -0.646434  0  2.079977  0  0  -0.571978  0  2.361349  0  0  -0.599314  0  2.344441  0  0  -0.319617  -0.551979  0  2.371464  0
O  O66  1  0.04900256  0.23296424  0.30249303  1  0  -0.646437  0  2.079983  0  0  -0.571978  0  2.361334  0  0  -0.599312  0  2.344424  0  0  -0.319619  -0.551981  0  2.371447  0
O  O67  1  0.45099941  0.76703627  0.80249165  1  0  -0.646452  0  2.07993  0  0  -0.572006  0  2.361277  0  0  -0.599342  0  2.344377  0  0  -0.319636  -0.552009  0  2.371394  0
O  O68  1  0.68755823  0.63586077  0.67385630  1  0  -0.616759  0  2.074405  0  0  -0.541748  0  2.34244  0  0  -0.569667  0  2.329064  0  0  -0.304164  -0.522264  0  2.351304  0
O  O69  1  0.81244414  0.36413973  0.17385725  1  0  -0.61684  0  2.07436  0  0  -0.541822  0  2.342408  0  0  -0.569745  0  2.329029  0  0  -0.304179  -0.52234  0  2.351272  0
O  O70  1  0.31244488  0.36413916  0.32614317  1  0  -0.616802  0  2.074334  0  0  -0.541807  0  2.342431  0  0  -0.569711  0  2.329008  0  0  -0.304184  -0.522323  0  2.351295  0
O  O71  1  0.18755829  0.63586136  0.82614320  1  0  -0.616811  0  2.074422  0  0  -0.541802  0  2.342442  0  0  -0.569733  0  2.329092  0  0  -0.304176  -0.522318  0  2.351304  0
O  O72  1  0.69912210  0.38284738  0.46962047  1  0  -0.537925  0  1.939761  0  0  -0.497638  0  2.165666  0  0  -0.519019  0  2.160482  0  0  -0.301776  -0.483643  0  2.169537  0
O  O73  1  0.80087522  0.61715208  0.96961785  1  0  -0.538001  0  1.939663  0  0  -0.497733  0  2.165588  0  0  -0.519111  0  2.160401  0  0  -0.301824  -0.483733  0  2.169461  0
O  O74  1  0.30087789  0.61715024  0.53038390  1  0  -0.538044  0  1.939293  0  0  -0.497771  0  2.165204  0  0  -0.519157  0  2.16002  0  0  -0.301811  -0.483769  0  2.169076  0
O  O75  1  0.19912185  0.38284670  0.03037967  1  0  -0.537925  0  1.939797  0  0  -0.497648  0  2.165692  0  0  -0.519026  0  2.160508  0  0  -0.301775  -0.483649  0  2.169561  0
