# generated using pymatgen
data_Zn3H22(C3O5)4
_symmetry_space_group_name_H-M   'P 1'
_cell_length_a   11.72193223
_cell_length_b   13.79603360
_cell_length_c   16.22986694
_cell_angle_alpha   89.99992798
_cell_angle_beta   90.00010955
_cell_angle_gamma   113.11025942
_symmetry_Int_Tables_number   1
_chemical_formula_structural   Zn3H22(C3O5)4
_chemical_formula_sum   'Zn12 H88 C48 O80'
_cell_volume   2414.00845206
_cell_formula_units_Z   4
loop_
 _symmetry_equiv_pos_site_id
 _symmetry_equiv_pos_as_xyz
  1  'x, y, z'
loop_
 _atom_site_type_symbol
 _atom_site_label
 _atom_site_symmetry_multiplicity
 _atom_site_fract_x
 _atom_site_fract_y
 _atom_site_fract_z
 _atom_site_occupancy
 _atom_site_pbe_bader_charge
 _atom_site_pbe_bader_spin_density
 _atom_site_pbe_cm5_charge
 _atom_site_pbe_ddec_charge
 _atom_site_pbe_ddec_spin_density
 _atom_site_pbe_ddec_sum_bond_order
 _atom_site_pbe_magmom
Zn  Zn0  1  0.60410619  0.60094921  0.45330387  1  1.352808  0  0.668185  1.004485  0  2.111285  0
Zn  Zn1  1  0.89589358  0.89905069  0.95330247  1  1.352856  0  0.668203  1.004513  0  2.111266  0
Zn  Zn2  1  0.39589385  0.39905097  0.54669647  1  1.3528  0  0.668183  1.004481  0  2.111314  0
Zn  Zn3  1  0.10410610  0.10094869  0.04669664  1  1.352807  0  0.668197  1.004516  0  2.11128  0
Zn  Zn4  1  0.73898922  0.28348717  0.46762650  1  1.376806  0  0.671113  1.007342  0  2.228197  0
Zn  Zn5  1  0.76101168  0.21651337  0.96762695  1  1.376824  0  0.671115  1.007315  0  2.228198  0
Zn  Zn6  1  0.26101083  0.71651300  0.53237262  1  1.376855  0  0.671134  1.007354  0  2.228229  0
Zn  Zn7  1  0.23899044  0.78348760  0.03237339  1  1.376839  0  0.671148  1.00738  0  2.228108  0
Zn  Zn8  1  0.95099756  0.87301163  0.63049766  1  1.402648  0  0.688008  1.022921  0  2.262333  0
Zn  Zn9  1  0.54900353  0.62698929  0.13049772  1  1.402636  0  0.688024  1.02296  0  2.262269  0
Zn  Zn10  1  0.04900261  0.12698697  0.36950269  1  1.402609  0  0.688037  1.022969  0  2.262279  0
Zn  Zn11  1  0.45099737  0.37301088  0.86950262  1  1.402674  0  0.688031  1.02292  0  2.262277  0
H  H12  1  0.90701908  0.46068113  0.57813020  1  0.106268  0  0.114137  0.123202  0  0.974808  0
H  H13  1  0.59298177  0.03931969  0.07813042  1  0.10626  0  0.114165  0.123214  0  0.974827  0
H  H14  1  0.09298011  0.53931904  0.42186830  1  0.10632  0  0.114153  0.123234  0  0.97477  0
H  H15  1  0.40701913  0.96068049  0.92186931  1  0.106256  0  0.11415  0.123212  0  0.974807  0
H  H16  1  0.85201952  0.40385506  0.71495941  1  0.040559  0  0.112213  0.101906  0  0.946522  0
H  H17  1  0.64797958  0.09614487  0.21495903  1  0.040558  0  0.112207  0.101897  0  0.946532  0
H  H18  1  0.14798053  0.59614511  0.28503970  1  0.040552  0  0.112211  0.101893  0  0.946508  0
H  H19  1  0.35201876  0.90385530  0.78504132  1  0.040205  0  0.112209  0.101899  0  0.946524  0
H  H20  1  0.66479198  0.36923577  0.78425500  1  0.124363  0  0.110349  0.105842  0  1.026011  0
H  H21  1  0.83520642  0.13076411  0.28425607  1  0.124331  0  0.110351  0.105846  0  1.025998  0
H  H22  1  0.33520856  0.63076362  0.21574412  1  0.124415  0  0.110348  0.105851  0  1.025984  0
H  H23  1  0.16479241  0.86923527  0.71574427  1  0.124338  0  0.110351  0.10585  0  1.025996  0
H  H24  1  0.83576683  0.52445793  0.80605373  1  0.077196  0  0.118248  0.115089  0  0.942655  0
H  H25  1  0.66423224  0.97554129  0.30605359  1  0.077196  0  0.118262  0.115103  0  0.942646  0
H  H26  1  0.16423406  0.47554225  0.19394538  1  0.077211  0  0.118241  0.115094  0  0.942627  0
H  H27  1  0.33576659  0.02445809  0.69394614  1  0.077208  0  0.118249  0.1151  0  0.942642  0
H  H28  1  0.89226549  0.69167168  0.74669522  1  0.101924  0  0.110102  0.110737  0  0.991108  0
H  H29  1  0.60773502  0.80832916  0.24669455  1  0.10195  0  0.110117  0.110754  0  0.991107  0
H  H30  1  0.10773334  0.30832771  0.25330451  1  0.10191  0  0.110113  0.11076  0  0.991087  0
H  H31  1  0.39226587  0.19167102  0.75330517  1  0.101927  0  0.110106  0.11075  0  0.9911  0
H  H32  1  0.96720904  0.57125044  0.69725130  1  0.077447  0  0.116158  0.108993  0  0.956804  0
H  H33  1  0.53279222  0.92875043  0.19725041  1  0.077464  0  0.116152  0.108972  0  0.956835  0
H  H34  1  0.03279065  0.42874895  0.30274904  1  0.077447  0  0.116155  0.108962  0  0.956846  0
H  H35  1  0.46720990  0.07125053  0.80274932  1  0.077439  0  0.116152  0.108989  0  0.956802  0
H  H36  1  0.71068155  0.79773801  0.45048373  1  0.661764  0  0.295183  0.384408  0  0.962715  0
H  H37  1  0.78931737  0.70226188  0.95048301  1  0.661702  0  0.295165  0.384377  0  0.962752  0
H  H38  1  0.28931728  0.20226137  0.54951723  1  0.6617  0  0.295153  0.38437  0  0.962767  0
H  H39  1  0.21068474  0.29773908  0.04951734  1  0.661696  0  0.295164  0.384376  0  0.962757  0
H  H40  1  0.65105095  0.61710711  0.30644379  1  0.646724  0  0.281011  0.36367  0  0.997663  0
H  H41  1  0.84894934  0.88289290  0.80644234  1  0.646685  0  0.281006  0.363653  0  0.99768  0
H  H42  1  0.34894995  0.38289307  0.69355717  1  0.646688  0  0.281001  0.363645  0  0.997701  0
H  H43  1  0.15105071  0.11710727  0.19355739  1  0.646691  0  0.281007  0.363659  0  0.997677  0
H  H44  1  0.76319190  0.30163000  0.28888875  1  0.645203  0  0.285801  0.394707  0  0.946724  0
H  H45  1  0.73680858  0.19837067  0.78888919  1  0.645241  0  0.285785  0.394685  0  0.946758  0
H  H46  1  0.23680814  0.69837018  0.71111098  1  0.645237  0  0.285787  0.394676  0  0.946765  0
H  H47  1  0.26319232  0.80162950  0.21111054  1  0.64524  0  0.285797  0.394699  0  0.946734  0
H  H48  1  0.47098584  0.21819505  0.47432018  1  0.650092  0  0.290634  0.398159  0  0.928273  0
H  H49  1  0.02901412  0.28180588  0.97432086  1  0.650086  0  0.290645  0.398177  0  0.92824  0
H  H50  1  0.52901335  0.78180512  0.52568017  1  0.650095  0  0.290626  0.39816  0  0.928275  0
H  H51  1  0.97098665  0.71819587  0.02567887  1  0.65009  0  0.290625  0.398156  0  0.928279  0
H  H52  1  0.82746766  0.15640178  0.42428493  1  0.6605  0  0.289562  0.3688  0  0.986984  0
H  H53  1  0.67253228  0.34359879  0.92428512  1  0.660517  0  0.289562  0.368797  0  0.986982  0
H  H54  1  0.17253117  0.84359760  0.57571480  1  0.66051  0  0.28954  0.368768  0  0.98703  0
H  H55  1  0.32746898  0.65640217  0.07571461  1  0.660509  0  0.28955  0.368782  0  0.987003  0
H  H56  1  0.91884737  0.92638372  0.46135697  1  0.638655  0  0.293294  0.388821  0  0.954126  0
H  H57  1  0.58115036  0.57361538  0.96135733  1  0.638652  0  0.293288  0.388813  0  0.954144  0
H  H58  1  0.08115024  0.07361488  0.53864337  1  0.638651  0  0.29329  0.388815  0  0.954139  0
H  H59  1  0.41884883  0.42638479  0.03864240  1  0.638651  0  0.293294  0.388804  0  0.954159  0
H  H60  1  0.89892959  0.02870992  0.69124842  1  0.623356  0  0.33059  0.415365  0  0.862924  0
H  H61  1  0.60106859  0.47129002  0.19124880  1  0.623349  0  0.330585  0.415362  0  0.862919  0
H  H62  1  0.10106838  0.97128946  0.30875131  1  0.623346  0  0.33058  0.415367  0  0.862907  0
H  H63  1  0.39893109  0.52870936  0.80875154  1  0.623356  0  0.330577  0.415359  0  0.862925  0
H  H64  1  0.70824580  0.76254323  0.54737734  1  0.661753  0  0.296058  0.389158  0  0.951669  0
H  H65  1  0.79175389  0.73745696  0.04737639  1  0.661752  0  0.296046  0.389125  0  0.951732  0
H  H66  1  0.29175339  0.23745694  0.45262301  1  0.661751  0  0.296065  0.389153  0  0.951683  0
H  H67  1  0.20824737  0.26254401  0.95262334  1  0.66175  0  0.296044  0.389128  0  0.951713  0
H  H68  1  0.40647560  0.58211080  0.55354548  1  0.663251  0  0.297728  0.381483  0  0.970847  0
H  H69  1  0.09352401  0.91788978  0.05354530  1  0.663286  0  0.297732  0.381467  0  0.970869  0
H  H70  1  0.59352481  0.41789017  0.44645486  1  0.663254  0  0.297731  0.381523  0  0.970793  0
H  H71  1  0.90647604  0.08211039  0.94645381  1  0.663259  0  0.297739  0.381495  0  0.970836  0
H  H72  1  0.74409271  0.39465491  0.33695809  1  0.588041  0  0.31664  0.40068  0  0.884647  0
H  H73  1  0.75590740  0.10534652  0.83695927  1  0.588057  0  0.316646  0.400684  0  0.884639  0
H  H74  1  0.25590648  0.60534527  0.66304103  1  0.588048  0  0.316647  0.40069  0  0.884649  0
H  H75  1  0.24409301  0.89465445  0.16304108  1  0.58805  0  0.316652  0.400697  0  0.884651  0
H  H76  1  0.76502209  0.70415051  0.34707755  1  0.665927  0  0.298211  0.398061  0  0.924865  0
H  H77  1  0.73497744  0.79584946  0.84707727  1  0.665931  0  0.298213  0.398051  0  0.924872  0
H  H78  1  0.23497710  0.29584966  0.65292279  1  0.665929  0  0.298222  0.398073  0  0.924837  0
H  H79  1  0.26502139  0.20414992  0.15292246  1  0.665932  0  0.298226  0.398076  0  0.924843  0
H  H80  1  0.72080159  0.09817364  0.48998413  1  0.614787  0  0.326284  0.410573  0  0.860678  0
H  H81  1  0.77920008  0.40182847  0.98998379  1  0.614786  0  0.326277  0.410574  0  0.860675  0
H  H82  1  0.27919796  0.90182732  0.51001621  1  0.61479  0  0.326283  0.410594  0  0.86066  0
H  H83  1  0.22080154  0.59817328  0.01001593  1  0.614767  0  0.326285  0.410585  0  0.860668  0
H  H84  1  0.98281240  0.84464828  0.47219510  1  0.621846  0  0.329008  0.413166  0  0.858486  0
H  H85  1  0.51718778  0.65535239  0.97219467  1  0.621842  0  0.328983  0.413114  0  0.858517  0
H  H86  1  0.01718679  0.15535189  0.52780586  1  0.621874  0  0.328993  0.413138  0  0.858511  0
H  H87  1  0.48281177  0.34464857  0.02780568  1  0.62185  0  0.328993  0.413129  0  0.858498  0
H  H88  1  0.77377793  0.94920247  0.65695242  1  0.653479  0  0.331013  0.411179  0  0.864931  0
H  H89  1  0.72622116  0.55079764  0.15695343  1  0.653484  0  0.331047  0.411224  0  0.864863  0
H  H90  1  0.22622041  0.05079770  0.34304669  1  0.653495  0  0.331038  0.411234  0  0.864873  0
H  H91  1  0.27377803  0.44920253  0.84304691  1  0.653482  0  0.331027  0.411217  0  0.864848  0
H  H92  1  0.53659131  0.21728739  0.38966087  1  0.596659  0  0.306966  0.390441  0  0.908584  0
H  H93  1  0.96340941  0.28271320  0.88966154  1  0.596654  0  0.306977  0.390455  0  0.908575  0
H  H94  1  0.46340752  0.78271199  0.61033885  1  0.596729  0  0.306978  0.390488  0  0.908513  0
H  H95  1  0.03659100  0.71728776  0.11033819  1  0.596464  0  0.306976  0.390471  0  0.908553  0
H  H96  1  0.53027907  0.59225576  0.61404698  1  0.653158  0  0.296558  0.396953  0  0.945913  0
H  H97  1  0.96972041  0.90774359  0.11404671  1  0.653132  0  0.296591  0.397036  0  0.945802  0
H  H98  1  0.46972012  0.40774441  0.38595398  1  0.653136  0  0.296584  0.39701  0  0.945845  0
H  H99  1  0.03028049  0.09225659  0.88595178  1  0.653125  0  0.29656  0.396962  0  0.945898  0
C  C100  1  0.75728102  0.49472198  0.53710571  1  1.569791  0  0.23136  0.650538  0  4.041792  0
C  C101  1  0.74272010  0.00527966  0.03710556  1  1.569844  0  0.231349  0.650466  0  4.041848  0
C  C102  1  0.24271854  0.50527898  0.46289402  1  1.569856  0  0.231384  0.650522  0  4.041683  0
C  C103  1  0.25728116  0.99472130  0.96289479  1  1.569848  0  0.231363  0.650531  0  4.041869  0
C  C104  1  0.83637917  0.48281094  0.60795232  1  0.003787  0  -0.08545  -0.163416  0  3.808932  0
C  C105  1  0.66362017  0.01718829  0.10795143  1  0.003778  0  -0.085482  -0.163396  0  3.808996  0
C  C106  1  0.16361845  0.51718766  0.39204741  1  0.00373  0  -0.08553  -0.163508  0  3.809064  0
C  C107  1  0.33637915  0.98281031  0.89204769  1  0.003758  0  -0.085478  -0.163447  0  3.809043  0
C  C108  1  0.77279350  0.39844256  0.67521226  1  0.001832  0  -0.079823  -0.131113  0  3.799397  0
C  C109  1  0.72720635  0.10155740  0.17521199  1  0.001843  0  -0.079818  -0.131114  0  3.799381  0
C  C110  1  0.22720703  0.60155683  0.32478746  1  0.001856  0  -0.079822  -0.131094  0  3.799355  0
C  C111  1  0.27279441  0.89844435  0.82478959  1  0.002202  0  -0.079818  -0.131083  0  3.79942  0
C  C112  1  0.68673965  0.42639452  0.73359283  1  -0.005823  0  -0.092424  -0.166169  0  3.844442  0
C  C113  1  0.81326070  0.07360618  0.23359270  1  -0.005798  0  -0.092419  -0.166161  0  3.844477  0
C  C114  1  0.31326210  0.57360565  0.26640752  1  -0.005965  0  -0.092394  -0.16612  0  3.844425  0
C  C115  1  0.18673812  0.92639320  0.76640703  1  -0.005828  0  -0.092412  -0.16618  0  3.844395  0
C  C116  1  0.75976712  0.53587954  0.77215568  1  -0.002529  0  -0.079024  -0.136592  0  3.831753  0
C  C117  1  0.74023187  0.96411969  0.27215503  1  -0.002526  0  -0.079002  -0.13655  0  3.831786  0
C  C118  1  0.24023414  0.46412142  0.22784405  1  -0.002839  0  -0.079042  -0.136618  0  3.831792  0
C  C119  1  0.25976695  0.03587969  0.72784408  1  -0.00252  0  -0.079038  -0.136612  0  3.831726  0
C  C120  1  0.82587428  0.62619423  0.71076823  1  -0.010723  0  -0.089027  -0.161938  0  3.811142  0
C  C121  1  0.67412700  0.87380664  0.21076759  1  -0.010742  0  -0.089055  -0.161992  0  3.811252  0
C  C122  1  0.17412625  0.37380516  0.28923150  1  -0.010713  0  -0.088998  -0.16193  0  3.811104  0
C  C123  1  0.32587462  0.12619512  0.78923214  1  -0.010728  0  -0.089018  -0.161901  0  3.811065  0
C  C124  1  0.90576513  0.58869741  0.65293850  1  -0.016321  0  -0.077187  -0.130939  0  3.806895  0
C  C125  1  0.59423565  0.91130271  0.15293833  1  -0.016338  0  -0.07718  -0.130906  0  3.806889  0
C  C126  1  0.09423369  0.41130197  0.34706122  1  -0.01634  0  -0.077156  -0.130879  0  3.806957  0
C  C127  1  0.40576610  0.08869747  0.84706140  1  -0.016307  0  -0.077198  -0.130977  0  3.806817  0
C  C128  1  0.71853172  0.27910963  0.65509876  1  1.60469  0  0.212647  0.628181  0  4.138217  0
C  C129  1  0.78146724  0.22089035  0.15509843  1  1.604807  0  0.212666  0.628212  0  4.13821  0
C  C130  1  0.28146747  0.72089054  0.34490159  1  1.60481  0  0.21263  0.628171  0  4.13832  0
C  C131  1  0.21853416  0.77910904  0.84490315  1  1.604764  0  0.212608  0.628117  0  4.13825  0
C  C132  1  0.56095721  0.40718173  0.69527882  1  1.543533  0  0.228234  0.643179  0  4.056435  0
C  C133  1  0.93904270  0.09281822  0.19527946  1  1.543523  0  0.228256  0.643269  0  4.056342  0
C  C134  1  0.43904333  0.59281766  0.30472214  1  1.54364  0  0.22826  0.64322  0  4.056373  0
C  C135  1  0.06095771  0.90718275  0.80472026  1  1.543526  0  0.228257  0.643222  0  4.056354  0
C  C136  1  0.69833187  0.57180901  0.84158255  1  1.589676  0  0.227696  0.632485  0  4.091156  0
C  C137  1  0.80166922  0.92819255  0.34158265  1  1.589685  0  0.227609  0.63232  0  4.091353  0
C  C138  1  0.30167001  0.42818960  0.15841779  1  1.590022  0  0.227698  0.632499  0  4.091164  0
C  C139  1  0.19833118  0.07180841  0.65841770  1  1.589664  0  0.227687  0.632451  0  4.091244  0
C  C140  1  0.73438285  0.66960279  0.67461813  1  1.576791  0  0.22235  0.639851  0  4.076089  0
C  C141  1  0.76561920  0.83039810  0.17461889  1  1.576789  0  0.222354  0.639857  0  4.076037  0
C  C142  1  0.26561598  0.33039660  0.32538283  1  1.576785  0  0.222336  0.639802  0  4.076117  0
C  C143  1  0.23438219  0.16960129  0.82538145  1  1.576768  0  0.222326  0.639707  0  4.076164  0
C  C144  1  0.00476769  0.67003663  0.59965459  1  1.578082  0  0.228095  0.634447  0  4.079268  0
C  C145  1  0.49523238  0.82996470  0.09965383  1  1.578081  0  0.22804  0.634349  0  4.079361  0
C  C146  1  0.99523396  0.32995961  0.40034267  1  1.578045  0  0.228097  0.634487  0  4.07912  0
C  C147  1  0.50476888  0.17003626  0.90034590  1  1.57809  0  0.228093  0.634455  0  4.079305  0
O  O148  1  0.73627954  0.57762622  0.53235084  1  -1.17208  0  -0.298988  -0.529216  0  2.296898  0
O  O149  1  0.76371940  0.92237240  0.03235027  1  -1.172117  0  -0.298979  -0.529209  0  2.296825  0
O  O150  1  0.26372015  0.42237317  0.46764951  1  -1.172058  0  -0.298989  -0.529204  0  2.296781  0
O  O151  1  0.23628029  0.07762698  0.96764884  1  -1.172071  0  -0.298973  -0.529212  0  2.296868  0
O  O152  1  0.72034837  0.42291997  0.48098019  1  -1.196667  0  -0.321866  -0.590433  0  2.440831  0
O  O153  1  0.77965220  0.07707978  0.98098081  1  -1.196741  0  -0.321866  -0.590377  0  2.440916  0
O  O154  1  0.27965203  0.57708100  0.51901893  1  -1.196763  0  -0.321862  -0.590412  0  2.440866  0
O  O155  1  0.22034870  0.92292040  0.01901830  1  -1.196743  0  -0.321865  -0.590388  0  2.440936  0
O  O156  1  0.73977243  0.24498722  0.58630586  1  -1.207251  0  -0.345994  -0.611738  0  2.363235  0
O  O157  1  0.76022637  0.25501280  0.08630670  1  -1.207388  0  -0.345968  -0.611724  0  2.363257  0
O  O158  1  0.26022847  0.75501296  0.41369263  1  -1.207376  0  -0.345949  -0.611675  0  2.363383  0
O  O159  1  0.23977867  0.74498896  0.91369364  1  -1.207327  0  -0.345942  -0.61166  0  2.36328  0
O  O160  1  0.66272610  0.21870883  0.71385216  1  -1.200917  0  -0.343924  -0.581596  0  2.167169  0
O  O161  1  0.83727335  0.28129189  0.21385184  1  -1.200897  0  -0.343965  -0.581634  0  2.167101  0
O  O162  1  0.33727443  0.78129056  0.28614757  1  -1.200916  0  -0.343931  -0.581624  0  2.167142  0
O  O163  1  0.16272719  0.71870750  0.78614912  1  -1.200905  0  -0.343935  -0.581601  0  2.16712  0
O  O164  1  0.54580291  0.39267887  0.61864603  1  -1.16013  0  -0.295651  -0.521506  0  2.285168  0
O  O165  1  0.95419633  0.10732192  0.11864544  1  -1.16012  0  -0.295633  -0.521515  0  2.285072  0
O  O166  1  0.45419714  0.60732130  0.38135432  1  -1.160145  0  -0.295657  -0.521516  0  2.285214  0
O  O167  1  0.04580250  0.89267747  0.88135428  1  -1.160113  0  -0.29566  -0.521515  0  2.285081  0
O  O168  1  0.47055722  0.39900479  0.74418181  1  -1.202761  0  -0.324947  -0.611658  0  2.439322  0
O  O169  1  0.02944256  0.10099709  0.24418250  1  -1.202748  0  -0.324977  -0.61174  0  2.439341  0
O  O170  1  0.52944368  0.60099538  0.25581791  1  -1.202768  0  -0.32497  -0.611708  0  2.439234  0
O  O171  1  0.97055650  0.89900466  0.75581785  1  -1.202762  0  -0.324944  -0.611669  0  2.439316  0
O  O172  1  0.61494638  0.50538917  0.88770984  1  -1.208733  0  -0.322928  -0.589979  0  2.381139  0
O  O173  1  0.88505190  0.99461156  0.38770997  1  -1.208768  0  -0.322873  -0.5899  0  2.381265  0
O  O174  1  0.38505402  0.49461180  0.11228989  1  -1.208746  0  -0.322939  -0.590008  0  2.381135  0
O  O175  1  0.11494729  0.00538861  0.61229037  1  -1.208753  0  -0.322921  -0.589969  0  2.38121  0
O  O176  1  0.74340566  0.66924033  0.85774101  1  -1.218068  0  -0.317097  -0.569879  0  2.284767  0
O  O177  1  0.75659317  0.83075806  0.35774053  1  -1.218072  0  -0.317105  -0.569865  0  2.284752  0
O  O178  1  0.25659708  0.33075828  0.14226056  1  -1.218097  0  -0.317113  -0.569915  0  2.284753  0
O  O179  1  0.24340530  0.16924053  0.64225919  1  -1.218056  0  -0.317105  -0.569879  0  2.284748  0
O  O180  1  0.62014486  0.61807936  0.68667239  1  -1.191132  0  -0.317619  -0.544505  0  2.223621  0
O  O181  1  0.87985515  0.88192073  0.18667203  1  -1.191169  0  -0.317614  -0.544504  0  2.223657  0
O  O182  1  0.37985541  0.38192317  0.31332857  1  -1.191121  0  -0.317603  -0.544494  0  2.223599  0
O  O183  1  0.12014539  0.11807866  0.81332770  1  -1.191146  0  -0.317604  -0.544441  0  2.223692  0
O  O184  1  0.77533991  0.76060633  0.63852970  1  -1.203969  0  -0.33468  -0.616473  0  2.392588  0
O  O185  1  0.72466084  0.73939379  0.13852866  1  -1.20395  0  -0.334688  -0.616481  0  2.392503  0
O  O186  1  0.22465721  0.23939305  0.36147064  1  -1.203976  0  -0.334692  -0.616456  0  2.392581  0
O  O187  1  0.27533969  0.26060559  0.86147169  1  -1.203936  0  -0.334677  -0.6164  0  2.39252  0
O  O188  1  0.03295681  0.76928533  0.60967436  1  -1.211368  0  -0.320407  -0.592327  0  2.43759  0
O  O189  1  0.46704341  0.73071442  0.10967428  1  -1.211338  0  -0.320386  -0.592292  0  2.437485  0
O  O190  1  0.96704287  0.23071406  0.39032414  1  -1.211424  0  -0.320405  -0.592348  0  2.437632  0
O  O191  1  0.53295663  0.26928575  0.89032545  1  -1.211357  0  -0.320397  -0.592314  0  2.437479  0
O  O192  1  0.06627905  0.63543750  0.55283788  1  -1.177804  0  -0.313056  -0.561037  0  2.285802  0
O  O193  1  0.43372226  0.86456308  0.05283822  1  -1.177832  0  -0.313018  -0.560992  0  2.285985  0
O  O194  1  0.93371955  0.36455952  0.44716185  1  -1.177682  0  -0.313085  -0.561107  0  2.285684  0
O  O195  1  0.56627936  0.13543868  0.94716212  1  -1.177819  0  -0.31306  -0.561055  0  2.286031  0
O  O196  1  0.65641825  0.75514252  0.49663628  1  -1.284386  0  -0.559357  -0.750632  0  2.199638  0
O  O197  1  0.84358077  0.74485735  0.99663682  1  -1.284345  0  -0.559329  -0.750572  0  2.199678  0
O  O198  1  0.34358094  0.24485765  0.50336344  1  -1.284334  0  -0.559319  -0.750584  0  2.199641  0
O  O199  1  0.15641928  0.25514282  0.00336352  1  -1.284316  0  -0.559319  -0.750578  0  2.199649  0
O  O200  1  0.71981766  0.62681794  0.34768570  1  -1.292408  0  -0.59355  -0.76759  0  2.038162  0
O  O201  1  0.78018223  0.87318282  0.84768478  1  -1.292381  0  -0.593551  -0.767572  0  2.03816  0
O  O202  1  0.28018274  0.37318302  0.65231403  1  -1.292372  0  -0.593548  -0.767584  0  2.038159  0
O  O203  1  0.21981781  0.12681735  0.15231433  1  -1.292382  0  -0.593546  -0.767579  0  2.038133  0
O  O204  1  0.48129278  0.56337484  0.56119502  1  -1.282069  0  -0.564689  -0.781737  0  2.312122  0
O  O205  1  0.01870648  0.93662495  0.06119533  1  -1.282073  0  -0.564739  -0.781851  0  2.312193  0
O  O206  1  0.51870605  0.43662455  0.43880532  1  -1.282085  0  -0.564721  -0.781835  0  2.312065  0
O  O207  1  0.98129406  0.06337444  0.93880501  1  -1.282064  0  -0.564713  -0.781797  0  2.312173  0
O  O208  1  0.71447165  0.31813083  0.33467713  1  -1.213063  0  -0.573427  -0.771263  0  2.034387  0
O  O209  1  0.78552930  0.18187060  0.83467704  1  -1.21311  0  -0.573429  -0.771255  0  2.034386  0
O  O210  1  0.28552790  0.68187013  0.66532322  1  -1.213097  0  -0.573425  -0.771249  0  2.03441  0
O  O211  1  0.21447160  0.81812958  0.16532269  1  -1.213099  0  -0.573435  -0.77128  0  2.034397  0
O  O212  1  0.53666149  0.19982824  0.44793678  1  -1.222119  0  -0.580713  -0.744494  0  2.029936  0
O  O213  1  0.96333851  0.30017231  0.94793680  1  -1.222118  0  -0.580728  -0.744511  0  2.029921  0
O  O214  1  0.46333820  0.80017114  0.55206295  1  -1.222191  0  -0.580709  -0.74454  0  2.029914  0
O  O215  1  0.03666275  0.69982865  0.05206231  1  -1.221912  0  -0.580713  -0.744524  0  2.029911  0
O  O216  1  0.73667400  0.13396223  0.43679638  1  -1.232301  0  -0.565207  -0.72219  0  2.097043  0
O  O217  1  0.76332597  0.36603833  0.93679544  1  -1.232306  0  -0.565211  -0.722207  0  2.09707  0
O  O218  1  0.26332483  0.86603715  0.56320397  1  -1.232295  0  -0.56519  -0.722208  0  2.097093  0
O  O219  1  0.23667492  0.63396184  0.06320429  1  -1.232277  0  -0.565205  -0.722207  0  2.097057  0
O  O220  1  0.93215493  0.87522725  0.50082129  1  -1.236343  0  -0.574223  -0.763833  0  2.163641  0
O  O221  1  0.56784636  0.62477298  0.00082077  1  -1.236345  0  -0.574183  -0.763753  0  2.163633  0
O  O222  1  0.06784512  0.12477293  0.49917906  1  -1.236431  0  -0.574191  -0.76377  0  2.163627  0
O  O223  1  0.43215368  0.37522720  0.99917896  1  -1.236411  0  -0.574195  -0.763755  0  2.16363  0
O  O224  1  0.85918806  0.99173451  0.64103736  1  -1.224377  0  -0.552221  -0.722574  0  1.998944  0
O  O225  1  0.64081100  0.50826561  0.14103706  1  -1.224373  0  -0.55226  -0.722624  0  1.998878  0
O  O226  1  0.14080992  0.00826487  0.35896299  1  -1.224379  0  -0.55223  -0.722627  0  1.998879  0
O  O227  1  0.35918905  0.49173457  0.85896328  1  -1.224412  0  -0.55222  -0.722604  0  1.998837  0
