# generated using pymatgen
data_ZnH7C13NO4
_symmetry_space_group_name_H-M   'P 1'
_cell_length_a   8.00227304
_cell_length_b   11.74835118
_cell_length_c   14.57483094
_cell_angle_alpha   78.89160367
_cell_angle_beta   74.08214553
_cell_angle_gamma   70.11062116
_symmetry_Int_Tables_number   1
_chemical_formula_structural   ZnH7C13NO4
_chemical_formula_sum   'Zn4 H28 C52 N4 O16'
_cell_volume   1231.58960872
_cell_formula_units_Z   4
loop_
 _symmetry_equiv_pos_site_id
 _symmetry_equiv_pos_as_xyz
  1  'x, y, z'
loop_
 _atom_site_type_symbol
 _atom_site_label
 _atom_site_symmetry_multiplicity
 _atom_site_fract_x
 _atom_site_fract_y
 _atom_site_fract_z
 _atom_site_occupancy
 _atom_site_hle17_bader_spin_density
 _atom_site_hle17_ddec_charge
 _atom_site_hle17_ddec_spin_density
 _atom_site_hle17_ddec_sum_bond_order
 _atom_site_hle17_magmom
 _atom_site_hse06_10hf_bader_spin_density
 _atom_site_hse06_10hf_ddec_charge
 _atom_site_hse06_10hf_ddec_spin_density
 _atom_site_hse06_10hf_ddec_sum_bond_order
 _atom_site_hse06_10hf_magmom
 _atom_site_hse06_bader_spin_density
 _atom_site_hse06_ddec_charge
 _atom_site_hse06_ddec_spin_density
 _atom_site_hse06_ddec_sum_bond_order
 _atom_site_hse06_magmom
 _atom_site_pbe_bader_spin_density
 _atom_site_pbe_cm5_charge
 _atom_site_pbe_ddec_charge
 _atom_site_pbe_ddec_spin_density
 _atom_site_pbe_ddec_sum_bond_order
 _atom_site_pbe_magmom
Zn  Zn0  1  0.84131093  0.81084348  0.66867250  1  0  1.088688  0  1.77453  0  0  0.906821  0  2.250904  0  0  0.958832  0  2.189194  0  0  0.695502  0.870449  0  2.292854  0
Zn  Zn1  1  0.32073655  0.68922184  0.83137979  1  0  1.088284  0  1.775343  0  0  0.90618  0  2.251588  0  0  0.958208  0  2.189881  0  0  0.695456  0.869687  0  2.293925  0
Zn  Zn2  1  0.15868954  0.18915970  0.33132706  1  0  1.088689  0  1.774567  0  0  0.906808  0  2.250944  0  0  0.958819  0  2.18923  0  0  0.695511  0.870439  0  2.292893  0
Zn  Zn3  1  0.67926617  0.31077406  0.16862014  1  0  1.088232  0  1.775416  0  0  0.906114  0  2.251657  0  0  0.958145  0  2.18995  0  0  0.695426  0.869616  0  2.293989  0
H  H4  1  0.70566164  0.70914763  0.42842196  1  0  0.095916  0  0.947244  0  0  0.105916  0  1.008223  0  0  0.109276  0  1.005991  0  0  0.102984  0.103408  0  1.010031  0
H  H5  1  0.84373365  0.79102837  0.07172750  1  0  0.095462  0  0.947646  0  0  0.105541  0  1.008587  0  0  0.109005  0  1.006341  0  0  0.102871  0.10307  0  1.010302  0
H  H6  1  0.29433635  0.29085554  0.57157877  1  0  0.095885  0  0.947204  0  0  0.105914  0  1.008159  0  0  0.109274  0  1.005926  0  0  0.102968  0.103405  0  1.009969  0
H  H7  1  0.15626329  0.20896842  0.92827382  1  0  0.095364  0  0.947561  0  0  0.105428  0  1.008541  0  0  0.108891  0  1.006296  0  0  0.102839  0.102954  0  1.010259  0
H  H8  1  0.68719583  0.57708703  0.31776912  1  0  0.099202  0  0.925338  0  0  0.112276  0  0.977517  0  0  0.115494  0  0.976297  0  0  0.107055  0.109923  0  0.978547  0
H  H9  1  0.58257076  0.92297788  0.18231130  1  0  0.099471  0  0.92665  0  0  0.11296  0  0.978338  0  0  0.116166  0  0.977118  0  0  0.107052  0.11066  0  0.979259  0
H  H10  1  0.31279691  0.42291977  0.68223230  1  0  0.099207  0  0.925434  0  0  0.112318  0  0.977556  0  0  0.115532  0  0.976342  0  0  0.107098  0.109964  0  0.978589  0
H  H11  1  0.41742728  0.07701891  0.81769022  1  0  0.099453  0  0.92672  0  0  0.112929  0  0.978418  0  0  0.116134  0  0.977197  0  0  0.107041  0.110619  0  0.979349  0
H  H12  1  0.80584805  0.40174091  0.63975308  1  0  0.100908  0  0.951213  0  0  0.109562  0  1.016518  0  0  0.11306  0  1.014204  0  0  0.1062  0.107069  0  1.018157  0
H  H13  1  0.84696064  0.09828172  0.86012392  1  0  0.100131  0  0.951249  0  0  0.10884  0  1.016561  0  0  0.112322  0  1.014339  0  0  0.10515  0.106315  0  1.01834  0
H  H14  1  0.19415010  0.59825863  0.36024686  1  0  0.100903  0  0.951213  0  0  0.109555  0  1.01652  0  0  0.113054  0  1.014208  0  0  0.106185  0.107061  0  1.018159  0
H  H15  1  0.15303671  0.90171506  0.13987828  1  0  0.100085  0  0.951231  0  0  0.108804  0  1.016547  0  0  0.112285  0  1.014325  0  0  0.105121  0.106278  0  1.018325  0
H  H16  1  0.60111518  0.21481329  0.46946226  1  0  0.11762  0  0.951997  0  0  0.127829  0  1.010528  0  0  0.130751  0  1.010107  0  0  0.111605  0.125798  0  1.010934  0
H  H17  1  0.28542791  0.28504410  0.03062930  1  0  0.117979  0  0.951537  0  0  0.128548  0  1.009533  0  0  0.131472  0  1.009063  0  0  0.112414  0.126383  0  1.010098  0
H  H18  1  0.39888556  0.78519081  0.53053654  1  0  0.117645  0  0.951982  0  0  0.127842  0  1.010518  0  0  0.130763  0  1.010099  0  0  0.111615  0.12581  0  1.010924  0
H  H19  1  0.71457328  0.71495451  0.96937199  1  0  0.117939  0  0.951468  0  0  0.128481  0  1.00949  0  0  0.131406  0  1.009019  0  0  0.112353  0.126317  0  1.010056  0
H  H20  1  0.64871292  0.99581213  0.52968925  1  0  0.083172  0  0.925568  0  0  0.095906  0  0.981344  0  0  0.098617  0  0.978679  0  0  0.121093  0.094061  0  0.983041  0
H  H21  1  0.17406203  0.50396558  0.97045132  1  0  0.084316  0  0.92482  0  0  0.096629  0  0.980807  0  0  0.099339  0  0.978152  0  0  0.121093  0.094549  0  0.982943  0
H  H22  1  0.35128739  0.00419199  0.47030867  1  0  0.08311  0  0.925633  0  0  0.09585  0  0.981413  0  0  0.098561  0  0.978748  0  0  0.121092  0.094008  0  0.98311  0
H  H23  1  0.82593628  0.49603212  0.02954945  1  0  0.084295  0  0.924824  0  0  0.096617  0  0.980806  0  0  0.099326  0  0.978151  0  0  0.121071  0.094534  0  0.982943  0
H  H24  1  0.01377461  0.99329836  0.68482664  1  0  0.106308  0  0.949639  0  0  0.11509  0  1.010115  0  0  0.118339  0  1.007012  0  0  0.121822  0.11268  0  1.012445  0
H  H25  1  0.69119199  0.50679500  0.81487804  1  0  0.105166  0  0.94859  0  0  0.114236  0  1.009023  0  0  0.117515  0  1.005867  0  0  0.121808  0.111843  0  1.011257  0
H  H26  1  0.98622586  0.00670302  0.31517129  1  0  0.106317  0  0.949608  0  0  0.115084  0  1.010106  0  0  0.118334  0  1.007004  0  0  0.121808  0.112674  0  1.012435  0
H  H27  1  0.30881157  0.49319998  0.18512285  1  0  0.105179  0  0.94863  0  0  0.114252  0  1.009047  0  0  0.117531  0  1.00589  0  0  0.121825  0.111859  0  1.011281  0
H  H28  1  0.99481699  0.21019475  0.62402727  1  0  0.111709  0  0.939691  0  0  0.124654  0  0.993605  0  0  0.127779  0  0.992734  0  0  0.112171  0.122523  0  0.994379  0
H  H29  1  0.82854025  0.28991007  0.87548274  1  0  0.111889  0  0.940295  0  0  0.125472  0  0.993338  0  0  0.128623  0  0.992424  0  0  0.112367  0.123157  0  0.994219  0
H  H30  1  0.00518500  0.78980662  0.37597175  1  0  0.111725  0  0.939668  0  0  0.124666  0  0.993588  0  0  0.127791  0  0.992718  0  0  0.112177  0.122535  0  0.994361  0
H  H31  1  0.17146083  0.71008489  0.12451932  1  0  0.111888  0  0.940224  0  0  0.125436  0  0.993308  0  0  0.128588  0  0.992391  0  0  0.112337  0.123122  0  0.994189  0
C  C32  1  0.78829938  0.63529546  0.60466081  1  0  0.637886  0  3.914512  0  0  0.589498  0  4.207022  0  0  0.623571  0  4.200757  0  0  0.197748  0.566395  0  4.210613  0
C  C33  1  0.02829187  0.86489744  0.89532101  1  0  0.636851  0  3.916106  0  0  0.58843  0  4.208372  0  0  0.621459  0  4.201988  0  0  0.198159  0.565296  0  4.211945  0
C  C34  1  0.21169835  0.36470678  0.39534068  1  0  0.637785  0  3.914458  0  0  0.589423  0  4.206942  0  0  0.623492  0  4.200677  0  0  0.197742  0.566322  0  4.210532  0
C  C35  1  0.97171085  0.13509756  0.10467811  1  0  0.636911  0  3.916027  0  0  0.588451  0  4.208362  0  0  0.621471  0  4.201972  0  0  0.198187  0.565314  0  4.211934  0
C  C36  1  0.76135340  0.56163785  0.53987708  1  0  -0.040998  0  3.744947  0  0  -0.020022  0  3.982846  0  0  -0.026557  0  4.00485  0  0  -0.01079  -0.01587  0  3.968077  0
C  C37  1  0.86286727  0.93843041  0.96008623  1  0  -0.040478  0  3.743949  0  0  -0.018842  0  3.98073  0  0  -0.021594  0  3.997323  0  0  -0.011521  -0.014691  0  3.966016  0
C  C38  1  0.23864391  0.43836441  0.46012353  1  0  -0.040895  0  3.744905  0  0  -0.019946  0  3.982838  0  0  -0.026478  0  4.004844  0  0  -0.010765  -0.015798  0  3.968077  0
C  C39  1  0.13713560  0.06156456  0.03991534  1  0  -0.040402  0  3.743843  0  0  -0.018788  0  3.980693  0  0  -0.0215  0  3.997232  0  0  -0.011473  -0.014635  0  3.965979  0
C  C40  1  0.72362602  0.61246858  0.44996474  1  0  -0.063796  0  3.724161  0  0  -0.091806  0  3.983108  0  0  -0.091726  0  4.002728  0  0  -0.080056  -0.091956  0  3.97018  0
C  C41  1  0.78632896  0.88764445  0.05007497  1  0  -0.062968  0  3.724659  0  0  -0.091446  0  3.983866  0  0  -0.092674  0  4.002619  0  0  -0.079967  -0.091184  0  3.970334  0
C  C42  1  0.27636977  0.38753549  0.55003641  1  0  -0.06377  0  3.724143  0  0  -0.091811  0  3.983113  0  0  -0.091728  0  4.002728  0  0  -0.080033  -0.09196  0  3.970184  0
C  C43  1  0.21367171  0.11235143  0.94992702  1  0  -0.062945  0  3.724562  0  0  -0.091409  0  3.9838  0  0  -0.09265  0  4.002544  0  0  -0.080026  -0.091147  0  3.970265  0
C  C44  1  0.71330569  0.53903680  0.38866609  1  0  -0.052598  0  3.722088  0  0  -0.075686  0  3.974966  0  0  -0.077124  0  3.994963  0  0  -0.0784  -0.074722  0  3.961628  0
C  C45  1  0.64126222  0.96101031  0.11134680  1  0  -0.054328  0  3.724402  0  0  -0.078032  0  3.977383  0  0  -0.079552  0  3.997749  0  0  -0.078173  -0.077042  0  3.963646  0
C  C46  1  0.28669079  0.46096728  0.61133437  1  0  -0.052636  0  3.722214  0  0  -0.075752  0  3.975097  0  0  -0.077187  0  3.995098  0  0  -0.078411  -0.074786  0  3.961757  0
C  C47  1  0.35873692  0.03898648  0.88865492  1  0  -0.05423  0  3.724418  0  0  -0.077892  0  3.977387  0  0  -0.079411  0  3.997755  0  0  -0.078064  -0.076895  0  3.963652  0
C  C48  1  0.74529139  0.41373537  0.41468732  1  0  -0.079538  0  3.702987  0  0  -0.063917  0  3.936829  0  0  -0.069477  0  3.958094  0  0  -0.002973  -0.060393  0  3.922783  0
C  C49  1  0.57374662  0.08626560  0.08524909  1  0  -0.078976  0  3.701471  0  0  -0.062475  0  3.934444  0  0  -0.068029  0  3.955582  0  0  -0.003414  -0.058877  0  3.920317  0
C  C50  1  0.25470756  0.58626783  0.58531116  1  0  -0.079504  0  3.702783  0  0  -0.063853  0  3.936638  0  0  -0.069415  0  3.957902  0  0  -0.002973  -0.060322  0  3.922596  0
C  C51  1  0.42625294  0.91373028  0.91475270  1  0  -0.078959  0  3.701518  0  0  -0.062523  0  3.934561  0  0  -0.068077  0  3.9557  0  0  -0.003442  -0.058923  0  3.920434  0
C  C52  1  0.77616171  0.36206756  0.50682816  1  0  0.018591  0  3.759302  0  0  0.02772  0  3.993734  0  0  0.025849  0  4.017926  0  0  -0.004524  0.028814  0  3.977396  0
C  C53  1  0.64496448  0.13792644  0.99307773  1  0  0.019442  0  3.757216  0  0  0.028236  0  3.991876  0  0  0.02629  0  4.016283  0  0  -0.003306  0.029552  0  3.97538  0
C  C54  1  0.22384123  0.63793474  0.49316941  1  0  0.01868  0  3.759149  0  0  0.027754  0  3.993589  0  0  0.025884  0  4.017782  0  0  -0.004523  0.028851  0  3.977249  0
C  C55  1  0.35503729  0.86207033  0.00692527  1  0  0.019449  0  3.757264  0  0  0.028276  0  3.991936  0  0  0.026327  0  4.016349  0  0  -0.003289  0.02959  0  3.975443  0
C  C56  1  0.78339093  0.43788006  0.56796548  1  0  -0.084896  0  3.678934  0  0  -0.118908  0  3.93143  0  0  -0.119438  0  3.951194  0  0  -0.072976  -0.118149  0  3.917824  0
C  C57  1  0.78904877  0.06214685  0.93194495  1  0  -0.084675  0  3.678071  0  0  -0.118865  0  3.930261  0  0  -0.120553  0  3.949059  0  0  -0.072063  -0.118432  0  3.917032  0
C  C58  1  0.21661258  0.56211950  0.43203299  1  0  -0.084973  0  3.67892  0  0  -0.118975  0  3.931435  0  0  -0.119513  0  3.951206  0  0  -0.072989  -0.118216  0  3.91783  0
C  C59  1  0.21095506  0.93784995  0.06805599  1  0  -0.084654  0  3.678024  0  0  -0.118843  0  3.930204  0  0  -0.120542  0  3.948992  0  0  -0.072034  -0.118409  0  3.916976  0
C  C60  1  0.76334883  0.33961341  0.33761708  1  0  0.673663  0  3.885876  0  0  0.621381  0  4.176779  0  0  0.657553  0  4.166969  0  0  0.226247  0.596689  0  4.182923  0
C  C61  1  0.44067900  0.16030188  0.16233777  1  0  0.671528  0  3.882829  0  0  0.6185  0  4.174484  0  0  0.654688  0  4.16461  0  0  0.22546  0.593787  0  4.18058  0
C  C62  1  0.23665080  0.66039069  0.66238152  1  0  0.67362  0  3.885881  0  0  0.621288  0  4.176887  0  0  0.657467  0  4.167071  0  0  0.226201  0.596576  0  4.183055  0
C  C63  1  0.55932151  0.83969672  0.83766421  1  0  0.671508  0  3.88286  0  0  0.618501  0  4.174507  0  0  0.65469  0  4.164635  0  0  0.225508  0.593784  0  4.18061  0
C  C64  1  0.79584262  0.23254371  0.54113981  1  0  0.108027  0  3.764269  0  0  0.11782  0  3.999086  0  0  0.12319  0  4.021176  0  0  0.015757  0.114365  0  3.984176  0
C  C65  1  0.56935903  0.26740040  0.95873926  1  0  0.109683  0  3.76402  0  0  0.118899  0  3.99981  0  0  0.124298  0  4.021833  0  0  0.016554  0.115409  0  3.984525  0
C  C66  1  0.20416211  0.76745770  0.45885646  1  0  0.107985  0  3.764414  0  0  0.117893  0  3.999081  0  0  0.123269  0  4.021157  0  0  0.015733  0.114435  0  3.984175  0
C  C67  1  0.43064053  0.73259727  0.04126416  1  0  0.109628  0  3.76406  0  0  0.118798  0  3.999896  0  0  0.124196  0  4.021919  0  0  0.016504  0.115311  0  3.984602  0
C  C68  1  0.69723692  0.16970268  0.51522928  1  0  -0.15931  0  3.703451  0  0  -0.17804  0  3.951972  0  0  -0.186344  0  3.973715  0  0  -0.0808  -0.172612  0  3.937234  0
C  C69  1  0.38209597  0.33017435  0.98476801  1  0  -0.158858  0  3.704834  0  0  -0.177406  0  3.953048  0  0  -0.185718  0  3.974832  0  0  -0.081904  -0.172483  0  3.93857  0
C  C70  1  0.30276739  0.83029964  0.48476692  1  0  -0.159354  0  3.703646  0  0  -0.178092  0  3.95212  0  0  -0.186401  0  3.973866  0  0  -0.080783  -0.172663  0  3.937383  0
C  C71  1  0.61790318  0.66982243  0.01523371  1  0  -0.158792  0  3.704824  0  0  -0.177294  0  3.953026  0  0  -0.185603  0  3.974809  0  0  -0.081773  -0.172372  0  3.93855  0
C  C72  1  0.72094707  0.04791850  0.54934829  1  0  0.128897  0  3.725393  0  0  0.098295  0  3.975374  0  0  0.105337  0  3.994154  0  0  0.048444  0.093886  0  3.961975  0
C  C73  1  0.31803226  0.45196167  0.95076161  1  0  0.125378  0  3.728205  0  0  0.095125  0  3.978045  0  0  0.102127  0  3.996871  0  0  0.046838  0.090676  0  3.965559  0
C  C74  1  0.27905629  0.95208379  0.45065017  1  0  0.129014  0  3.725399  0  0  0.098389  0  3.97539  0  0  0.10543  0  3.994166  0  0  0.048475  0.093976  0  3.961995  0
C  C75  1  0.68196631  0.54803696  0.04923840  1  0  0.125441  0  3.728175  0  0  0.095193  0  3.977988  0  0  0.102194  0  3.996814  0  0  0.04687  0.090746  0  3.9655  0
C  C76  1  0.92664461  0.04579178  0.63549166  1  0  0.135004  0  3.674219  0  0  0.103257  0  3.924682  0  0  0.110948  0  3.941822  0  0  0.049346  0.098326  0  3.913053  0
C  C77  1  0.60738423  0.45423177  0.86428279  1  0  0.136535  0  3.672925  0  0  0.10465  0  3.923634  0  0  0.112329  0  3.940848  0  0  0.04937  0.09984  0  3.911568  0
C  C78  1  0.07335654  0.95421051  0.36450640  1  0  0.134977  0  3.673942  0  0  0.103227  0  3.924428  0  0  0.110915  0  3.941564  0  0  0.049331  0.098297  0  3.912798  0
C  C79  1  0.39261822  0.54576321  0.13571790  1  0  0.136599  0  3.673  0  0  0.104708  0  3.923712  0  0  0.112389  0  3.940925  0  0  0.049409  0.099898  0  3.911647  0
C  C80  1  0.91201616  0.16720509  0.60303877  1  0  -0.155799  0  3.697053  0  0  -0.173808  0  3.944469  0  0  -0.181774  0  3.964918  0  0  -0.078948  -0.168905  0  3.930847  0
C  C81  1  0.68185856  0.33283502  0.89670782  1  0  -0.158904  0  3.697297  0  0  -0.17742  0  3.94519  0  0  -0.185426  0  3.965636  0  0  -0.080477  -0.171923  0  3.931241  0
C  C82  1  0.08798747  0.83279722  0.39695812  1  0  -0.155825  0  3.696846  0  0  -0.173863  0  3.944239  0  0  -0.181831  0  3.964687  0  0  -0.078958  -0.16896  0  3.930617  0
C  C83  1  0.31814253  0.66715994  0.10329424  1  0  -0.158977  0  3.697252  0  0  -0.177438  0  3.945154  0  0  -0.185441  0  3.965599  0  0  -0.080515  -0.171942  0  3.931206  0
N  N84  1  0.83355471  0.98653360  0.60820602  1  0  -0.344352  0  3.310245  0  0  -0.264072  0  3.588839  0  0  -0.283822  0  3.604654  0  0  -0.334237  -0.250609  0  3.577648  0
N  N85  1  0.42787029  0.51342877  0.89176175  1  0  -0.340812  0  3.311976  0  0  -0.260644  0  3.590026  0  0  -0.280402  0  3.605947  0  0  -0.331972  -0.247459  0  3.578991  0
N  N86  1  0.16644576  0.01346959  0.39179354  1  0  -0.344327  0  3.310043  0  0  -0.264027  0  3.588623  0  0  -0.283768  0  3.604428  0  0  -0.334231  -0.250566  0  3.577436  0
N  N87  1  0.57212996  0.48656712  0.10823936  1  0  -0.340875  0  3.311979  0  0  -0.260727  0  3.590051  0  0  -0.280486  0  3.605975  0  0  -0.33203  -0.24754  0  3.579011  0
O  O88  1  0.84599210  0.58502532  0.67858860  1  0  -0.609796  0  1.928054  0  0  -0.562922  0  2.151584  0  0  -0.586799  0  2.14298  0  0  -0.316393  -0.546554  0  2.157138  0
O  O89  1  0.10961636  0.91528778  0.82148483  1  0  -0.609172  0  1.931272  0  0  -0.562362  0  2.154605  0  0  -0.586253  0  2.146457  0  0  -0.316534  -0.545753  0  2.160101  0
O  O90  1  0.15400563  0.41497692  0.32141289  1  0  -0.609793  0  1.928129  0  0  -0.56293  0  2.151651  0  0  -0.586806  0  2.14305  0  0  -0.316395  -0.54656  0  2.157203  0
O  O91  1  0.89038373  0.08471174  0.17851708  1  0  -0.609227  0  1.931279  0  0  -0.562395  0  2.154638  0  0  -0.586288  0  2.146491  0  0  -0.316538  -0.545786  0  2.160133  0
O  O92  1  0.75638198  0.75182141  0.57717784  1  0  -0.672007  0  1.994857  0  0  -0.604006  0  2.266906  0  0  -0.634081  0  2.251604  0  0  -0.342644  -0.582793  0  2.276281  0
O  O93  1  0.08537740  0.74833771  0.92272318  1  0  -0.672108  0  1.995194  0  0  -0.604073  0  2.267098  0  0  -0.63432  0  2.252414  0  0  -0.342671  -0.582828  0  2.276777  0
O  O94  1  0.24361712  0.24818085  0.42282228  1  0  -0.671995  0  1.994818  0  0  -0.603986  0  2.266838  0  0  -0.634071  0  2.251558  0  0  -0.342686  -0.582775  0  2.276212  0
O  O95  1  0.91461965  0.25165734  0.07727250  1  0  -0.672047  0  1.995097  0  0  -0.603993  0  2.267018  0  0  -0.634241  0  2.252335  0  0  -0.342651  -0.582747  0  2.276692  0
O  O96  1  0.63279430  0.37292637  0.29461341  1  0  -0.607168  0  2.048264  0  0  -0.538023  0  2.313043  0  0  -0.567442  0  2.299328  0  0  -0.304533  -0.517512  0  2.321875  0
O  O97  1  0.30071784  0.12675626  0.20547896  1  0  -0.605892  0  2.047689  0  0  -0.536816  0  2.312691  0  0  -0.566244  0  2.299052  0  0  -0.303715  -0.516131  0  2.321346  0
O  O98  1  0.36720164  0.62707408  0.70538694  1  0  -0.607156  0  2.048348  0  0  -0.538031  0  2.313196  0  0  -0.567461  0  2.299495  0  0  -0.30453  -0.517514  0  2.322038  0
O  O99  1  0.69928100  0.87324419  0.79452110  1  0  -0.605884  0  2.047729  0  0  -0.536816  0  2.312727  0  0  -0.566244  0  2.299086  0  0  -0.303718  -0.516129  0  2.321382  0
O  O100  1  0.90584525  0.25127470  0.31415368  1  0  -0.635075  0  2.132364  0  0  -0.564574  0  2.416535  0  0  -0.593808  0  2.398976  0  0  -0.308609  -0.544238  0  2.428064  0
O  O101  1  0.47116476  0.24884065  0.18569819  1  0  -0.63521  0  2.130896  0  0  -0.564088  0  2.414864  0  0  -0.593261  0  2.397169  0  0  -0.308965  -0.543469  0  2.426185  0
O  O102  1  0.09415959  0.74873125  0.68584263  1  0  -0.635009  0  2.132268  0  0  -0.5645  0  2.416474  0  0  -0.593724  0  2.398891  0  0  -0.308559  -0.544156  0  2.428011  0
O  O103  1  0.52883450  0.75115888  0.81430194  1  0  -0.635274  0  2.130864  0  0  -0.564137  0  2.414806  0  0  -0.593313  0  2.397114  0  0  -0.309043  -0.543518  0  2.426132  0
