# generated using pymatgen
data_ZnH2(CO)4
_symmetry_space_group_name_H-M   'P 1'
_cell_length_a   10.95270150
_cell_length_b   10.88473331
_cell_length_c   10.99217155
_cell_angle_alpha   98.40491002
_cell_angle_beta   99.84995038
_cell_angle_gamma   90.97680349
_symmetry_Int_Tables_number   1
_chemical_formula_structural   ZnH2(CO)4
_chemical_formula_sum   'Zn4 H8 C16 O16'
_cell_volume   1276.08259951
_cell_formula_units_Z   4
loop_
 _symmetry_equiv_pos_site_id
 _symmetry_equiv_pos_as_xyz
  1  'x, y, z'
loop_
 _atom_site_type_symbol
 _atom_site_label
 _atom_site_symmetry_multiplicity
 _atom_site_fract_x
 _atom_site_fract_y
 _atom_site_fract_z
 _atom_site_occupancy
 _atom_site_pbe_bader_charge
 _atom_site_pbe_bader_spin_density
 _atom_site_pbe_cm5_charge
 _atom_site_pbe_ddec_charge
 _atom_site_pbe_ddec_spin_density
 _atom_site_pbe_ddec_sum_bond_order
 _atom_site_pbe_magmom
Zn  Zn0  1  0.60828650  0.39631352  0.60213327  1  1.315512  0  0.678434  0.967291  0  2.357627  0
Zn  Zn1  1  0.42370628  0.62233319  0.60992130  1  1.324996  0  0.685831  0.988804  0  2.323175  0
Zn  Zn2  1  0.37420641  0.39796167  0.37552060  1  1.316673  0  0.67841  0.975839  0  2.328389  0
Zn  Zn3  1  0.60847462  0.58564671  0.41126179  1  1.313784  0  0.677885  0.957285  0  2.396058  0
H  H4  1  0.01598132  0.40488154  0.59760914  1  0.122096  0  0.119864  0.145698  0  0.965124  0
H  H5  1  0.99079423  0.60413984  0.42163919  1  0.133084  0  0.127034  0.149072  0  0.958974  0
H  H6  1  0.26124449  0.02388958  0.34659833  1  0.103416  0  0.114197  0.058381  0  0.95213  0
H  H7  1  0.65625464  0.07595136  0.68881633  1  0.10635  0  0.117277  0.061038  0  0.934458  0
H  H8  1  0.28962382  0.34408207  0.99190952  1  0.102527  0  0.110757  0.055753  0  0.961372  0
H  H9  1  0.70628990  0.63340904  0.96778899  1  0.053526  0  0.101294  0.140245  0  0.98073  0
H  H10  1  0.62658311  0.68374745  0.09426540  1  0.113605  0  0.116176  0.170438  0  0.954572  0
H  H11  1  0.71633814  0.55223159  0.09959880  1  0.08309  0  0.112939  0.166334  0  0.966428  0
C  C12  1  0.53362867  0.82882627  0.51536401  1  1.663819  0  0.2339  0.611933  0  4.218318  0
C  C13  1  0.97288125  0.47045429  0.53900424  1  0.016431  0  -0.089715  -0.21627  0  3.913381  0
C  C14  1  0.03790802  0.53869540  0.47839395  1  -0.081248  0  -0.057146  -0.133114  0  3.856447  0
C  C15  1  0.44875764  0.02982066  0.45886275  1  0.082489  0  -0.018709  -0.159501  0  3.905638  0
C  C16  1  0.33392545  0.96350068  0.38548215  1  0.92374  0  0.107866  0.304817  0  3.932081  0
C  C17  1  0.66084218  0.02847163  0.59310879  1  0.988461  0  0.111951  0.300067  0  3.944676  0
C  C18  1  0.35448199  0.38881889  0.94281782  1  0.878051  0  0.098571  0.299847  0  3.956131  0
C  C19  1  0.65485231  0.60218233  0.03568645  1  -0.07541  0  -0.223329  -0.40687  0  3.921877  0
C  C20  1  0.54046738  0.96729632  0.51872134  1  -0.119992  0  0.041671  -0.004724  0  3.764188  0
C  C21  1  0.46032436  0.46236040  0.02438155  1  0.030589  0  -0.034019  -0.215379  0  3.904254  0
C  C22  1  0.54334526  0.52205551  0.97123694  1  -0.02851  0  0.054386  0.147913  0  3.766835  0
C  C23  1  0.46316328  0.16732106  0.46625687  1  1.584008  0  0.231507  0.617373  0  4.175706  0
C  C24  1  0.52793478  0.51270281  0.83133663  1  1.633041  0  0.230613  0.594788  0  4.215264  0
C  C25  1  0.47068011  0.46872372  0.16196412  1  1.56981  0  0.228686  0.623853  0  4.172811  0
C  C26  1  0.17437861  0.53071807  0.48324308  1  1.604833  0  0.242063  0.667685  0  4.144933  0
C  C27  1  0.83708245  0.48039207  0.52907271  1  1.545681  0  0.222082  0.647444  0  4.176826  0
O  O28  1  0.50088346  0.49930929  0.50002912  1  -1.233101  0  -0.570107  -1.034175  0  2.519632  0
O  O29  1  0.24261962  0.60807368  0.56586830  1  -1.15435  0  -0.303042  -0.531013  0  2.288048  0
O  O30  1  0.78318998  0.55208974  0.45622582  1  -1.177884  0  -0.318295  -0.558008  0  2.337406  0
O  O31  1  0.20807232  0.44819957  0.40267159  1  -1.165557  0  -0.309249  -0.541786  0  2.288587  0
O  O32  1  0.78470638  0.41505365  0.59493389  1  -1.159052  0  -0.313659  -0.542301  0  2.29034  0
O  O33  1  0.31862952  0.84998051  0.36929319  1  -1.04176  0  -0.253309  -0.345676  0  2.110007  0
O  O34  1  0.75742477  0.01594494  0.55266406  1  -1.051237  0  -0.251719  -0.327395  0  2.074224  0
O  O35  1  0.33745247  0.37717804  0.82810790  1  -1.034096  0  -0.260908  -0.357088  0  2.127816  0
O  O36  1  0.58906889  0.42907665  0.77821570  1  -1.157964  0  -0.311288  -0.537595  0  2.332379  0
O  O37  1  0.56124444  0.53398173  0.23077092  1  -1.178771  0  -0.30654  -0.537974  0  2.390365  0
O  O38  1  0.48536615  0.79221015  0.60173955  1  -1.154673  0  -0.308136  -0.537092  0  2.308486  0
O  O39  1  0.38098562  0.22024953  0.39779620  1  -1.154498  0  -0.301772  -0.533748  0  2.314097  0
O  O40  1  0.58772242  0.76647813  0.43538471  1  -1.147933  0  -0.297297  -0.514965  0  2.334321  0
O  O41  1  0.55833878  0.21968568  0.54061552  1  -1.166273  0  -0.292622  -0.52979  0  2.373351  0
O  O42  1  0.47138391  0.60098257  0.78573684  1  -1.160694  0  -0.308206  -0.532765  0  2.326788  0
O  O43  1  0.38793471  0.40756688  0.20090796  1  -1.166612  0  -0.314328  -0.55467  0  2.318871  0
