# generated using pymatgen
data_AgH14C20ClO4
_symmetry_space_group_name_H-M   'P 1'
_cell_length_a   7.99695648
_cell_length_b   19.17076528
_cell_length_c   20.39277550
_cell_angle_alpha   92.94084939
_cell_angle_beta   89.98104672
_cell_angle_gamma   102.01049087
_symmetry_Int_Tables_number   1
_chemical_formula_structural   AgH14C20ClO4
_chemical_formula_sum   'Ag6 H84 C120 Cl6 O24'
_cell_volume   3053.73480104
_cell_formula_units_Z   6
loop_
 _symmetry_equiv_pos_site_id
 _symmetry_equiv_pos_as_xyz
  1  'x, y, z'
loop_
 _atom_site_type_symbol
 _atom_site_label
 _atom_site_symmetry_multiplicity
 _atom_site_fract_x
 _atom_site_fract_y
 _atom_site_fract_z
 _atom_site_occupancy
 _atom_site_pbe_bader_charge
 _atom_site_pbe_bader_spin_density
 _atom_site_pbe_cm5_charge
 _atom_site_pbe_ddec_charge
 _atom_site_pbe_ddec_spin_density
 _atom_site_pbe_ddec_sum_bond_order
 _atom_site_pbe_magmom
Ag  Ag0  1  0.54582846  0.60098215  0.74470514  1  0.645916  0  0.505124  0.526738  0  1.840683  0
Ag  Ag1  1  0.18679054  0.81046866  0.02279810  1  0.589074  0  0.491399  0.470164  0  1.801032  0
Ag  Ag2  1  0.43745890  0.25190814  0.23425196  1  0.577218  0  0.488641  0.457052  0  1.851587  0
Ag  Ag3  1  0.05446107  0.60070183  0.24451102  1  0.641728  0  0.504929  0.525657  0  1.842147  0
Ag  Ag4  1  0.62339155  0.81025935  0.52262624  1  0.583157  0  0.490837  0.470805  0  1.7972  0
Ag  Ag5  1  0.81463318  0.25195849  0.73407923  1  0.581356  0  0.488516  0.457438  0  1.848933  0
H  H6  1  0.82599223  0.69282284  0.77076455  1  0.131853  0  0.110556  0.134917  0  0.984435  0
H  H7  1  0.87770612  0.56850714  0.76847976  1  0.101834  0  0.102606  0.111177  0  1.016841  0
H  H8  1  0.80417131  0.49436727  0.86509644  1  0.080196  0  0.096603  0.101558  0  1.019257  0
H  H9  1  0.67874433  0.54361870  0.96510713  1  0.118043  0  0.101803  0.114984  0  1.023175  0
H  H10  1  0.24565087  0.65385977  0.01965756  1  0.14386  0  0.10845  0.134532  0  1.002527  0
H  H11  1  0.00824375  0.69086907  0.96046457  1  0.120385  0  0.101396  0.115956  0  1.043541  0
H  H12  1  0.07045716  0.76708559  0.86402617  1  0.043648  0  0.100225  0.105648  0  1.008265  0
H  H13  1  0.36590871  0.79688791  0.81981552  1  0.098348  0  0.103708  0.118857  0  1.004345  0
H  H14  1  0.77250812  0.74550652  0.09604364  1  0.159147  0  0.108636  0.132549  0  1.003764  0
H  H15  1  0.96487274  0.86666665  0.10491163  1  0.104938  0  0.105203  0.115217  0  0.989345  0
H  H16  1  0.02913669  0.93837211  0.00596906  1  0.121134  0  0.098097  0.098967  0  1.050097  0
H  H17  1  0.89476159  0.89098194  0.89767437  1  0.077782  0  0.105487  0.111951  0  0.982995  0
H  H18  1  0.68392336  0.78869279  0.83206073  1  0.060148  0  0.110054  0.106927  0  0.952152  0
H  H19  1  0.56994079  0.64952324  0.02219774  1  0.093617  0  0.112661  0.117466  0  0.961415  0
H  H20  1  0.41969889  0.89544509  0.12792643  1  0.114551  0  0.100732  0.119213  0  1.030492  0
H  H21  1  0.53051281  0.84062250  0.02784745  1  0.098496  0  0.096963  0.101345  0  1.047741  0
H  H22  1  0.52679343  0.89586712  0.92028067  1  0.071155  0  0.098685  0.100153  0  1.018729  0
H  H23  1  0.43937679  0.01314994  0.91361837  1  0.098989  0  0.103754  0.117751  0  1.00244  0
H  H24  1  0.97084341  0.99719263  0.18830473  1  0.076862  0  0.100677  0.100522  0  0.996144  0
H  H25  1  0.70972700  0.02467733  0.13757452  1  0.059153  0  0.095413  0.096696  0  1.019405  0
H  H26  1  0.72839433  0.08461192  0.03189414  1  0.117638  0  0.097931  0.106693  0  1.045504  0
H  H27  1  0.00521829  0.11741873  0.97532594  1  0.105412  0  0.102594  0.113427  0  0.994268  0
H  H28  1  0.53131841  0.10400721  0.23444529  1  0.124712  0  0.103021  0.123919  0  1.01769  0
H  H29  1  0.74137352  0.21768162  0.22042592  1  0.117135  0  0.098239  0.106068  0  1.032842  0
H  H30  1  0.74159788  0.28226854  0.11718672  1  0.084776  0  0.09897  0.102336  0  1.016815  0
H  H31  1  0.55441624  0.22663489  0.02254292  1  0.116544  0  0.100594  0.119007  0  1.025114  0
H  H32  1  0.33288916  0.11696519  0.97504798  1  0.107075  0  0.109313  0.106295  0  0.966789  0
H  H33  1  0.29827193  0.00176746  0.17946223  1  0.037273  0  0.110105  0.101505  0  0.944278  0
H  H34  1  0.03530137  0.22829657  0.33447902  1  0.100947  0  0.1126  0.12797  0  0.973586  0
H  H35  1  0.12825447  0.14827047  0.24753014  1  0.072853  0  0.107734  0.116168  0  0.984537  0
H  H36  1  0.17422658  0.18749198  0.13310657  1  0.109887  0  0.09895  0.099126  0  1.057757  0
H  H37  1  0.12812783  0.30726582  0.10453560  1  0.061068  0  0.108829  0.116545  0  0.97688  0
H  H38  1  0.62060143  0.34746517  0.35790164  1  0.139246  0  0.10679  0.128422  0  1.002482  0
H  H39  1  0.37681693  0.37457660  0.29284643  1  0.086888  0  0.097789  0.102588  0  1.034727  0
H  H40  1  0.42207473  0.41037636  0.17734841  1  0.102516  0  0.101652  0.106617  0  1.005602  0
H  H41  1  0.71245977  0.42978763  0.12917032  1  0.091308  0  0.104407  0.123116  0  1.010702  0
H  H42  1  0.16939298  0.45951452  0.41119285  1  0.053978  0  0.107429  0.112536  0  0.982  0
H  H43  1  0.37981711  0.57116138  0.38863073  1  0.087248  0  0.102317  0.11096  0  1.009231  0
H  H44  1  0.42850319  0.60916441  0.27422599  1  0.111572  0  0.109602  0.123253  0  0.986946  0
H  H45  1  0.27291101  0.53417897  0.18047310  1  0.12407  0  0.114416  0.139162  0  0.972004  0
H  H46  1  0.03153372  0.42479312  0.14366920  1  0.082702  0  0.113585  0.113698  0  0.947427  0
H  H47  1  0.94491905  0.34867801  0.36389447  1  0.069624  0  0.113534  0.111784  0  0.946903  0
H  H48  1  0.86630895  0.69280667  0.27073409  1  0.098535  0  0.110648  0.134991  0  0.983982  0
H  H49  1  0.69035469  0.56852305  0.26853391  1  0.109269  0  0.102079  0.110437  0  1.016962  0
H  H50  1  0.69045166  0.49429798  0.36503388  1  0.078939  0  0.096833  0.101398  0  1.020062  0
H  H51  1  0.86548901  0.54344667  0.46492105  1  0.119695  0  0.102218  0.11535  0  1.022057  0
H  H52  1  0.40866884  0.65369493  0.51924539  1  0.131636  0  0.108361  0.133597  0  1.002042  0
H  H53  1  0.68302065  0.69082504  0.45999976  1  0.123159  0  0.101362  0.116505  0  1.043364  0
H  H54  1  0.69663242  0.76706534  0.36358932  1  0.075214  0  0.100194  0.105907  0  1.009223  0
H  H55  1  0.43088156  0.79683244  0.31950086  1  0.112789  0  0.103369  0.118351  0  1.004331  0
H  H56  1  0.97335059  0.74528708  0.59592767  1  0.153922  0  0.108808  0.13277  0  1.004142  0
H  H57  1  0.90151511  0.86637050  0.60488123  1  0.100577  0  0.10518  0.115596  0  0.988995  0
H  H58  1  0.90893398  0.93818831  0.50601018  1  0.083729  0  0.09781  0.097969  0  1.050925  0
H  H59  1  0.99641006  0.89093260  0.39769995  1  0.07894  0  0.105288  0.11154  0  0.983404  0
H  H60  1  0.10456278  0.78857832  0.33189493  1  0.062875  0  0.110113  0.106663  0  0.952758  0
H  H61  1  0.08007291  0.64931108  0.52192482  1  0.074736  0  0.112799  0.117645  0  0.961691  0
H  H62  1  0.47623161  0.89566680  0.62801313  1  0.115988  0  0.10053  0.118865  0  1.029893  0
H  H63  1  0.31020654  0.84089957  0.52804869  1  0.095081  0  0.097098  0.101391  0  1.04754  0
H  H64  1  0.36906022  0.89604477  0.42043966  1  0.065367  0  0.098695  0.100359  0  1.019423  0
H  H65  1  0.57403013  0.01317278  0.41357851  1  0.095648  0  0.103466  0.117598  0  1.002049  0
H  H66  1  0.02561071  0.99726306  0.68837752  1  0.077124  0  0.1008  0.100697  0  0.995166  0
H  H67  1  0.31429186  0.02442398  0.63763262  1  0.068047  0  0.095555  0.097035  0  1.019923  0
H  H68  1  0.35592558  0.08419357  0.53188748  1  0.111616  0  0.097628  0.106449  0  1.04581  0
H  H69  1  0.11228100  0.11728107  0.47528710  1  0.073858  0  0.102807  0.113715  0  0.994282  0
H  H70  1  0.57237731  0.10430559  0.73441745  1  0.133367  0  0.103022  0.124081  0  1.018467  0
H  H71  1  0.47618182  0.21807694  0.72035592  1  0.098166  0  0.098327  0.105694  0  1.034322  0
H  H72  1  0.54078741  0.28260725  0.61711246  1  0.077433  0  0.099036  0.102319  0  1.017265  0
H  H73  1  0.67249567  0.22689563  0.52250415  1  0.113167  0  0.10064  0.119371  0  1.025703  0
H  H74  1  0.78420712  0.11708896  0.47500971  1  0.110156  0  0.109554  0.10616  0  0.966519  0
H  H75  1  0.70311939  0.00199104  0.67946814  1  0.040035  0  0.110325  0.101429  0  0.944354  0
H  H76  1  0.19317715  0.22820881  0.83396539  1  0.104352  0  0.112292  0.127989  0  0.972513  0
H  H77  1  0.02078638  0.14830442  0.74683916  1  0.078106  0  0.107645  0.116064  0  0.984919  0
H  H78  1  0.01400132  0.18785235  0.63255272  1  0.116982  0  0.098837  0.099131  0  1.058091  0
H  H79  1  0.17909113  0.30781314  0.60426056  1  0.092211  0  0.108629  0.11642  0  0.976905  0
H  H80  1  0.72684061  0.34725839  0.85748991  1  0.143882  0  0.106837  0.128142  0  1.002904  0
H  H81  1  0.99804288  0.37475467  0.79255344  1  0.085342  0  0.097825  0.102527  0  1.035619  0
H  H82  1  0.98866451  0.41084668  0.67713887  1  0.108622  0  0.102065  0.107624  0  1.006007  0
H  H83  1  0.71779972  0.43024038  0.62899762  1  0.128799  0  0.10467  0.123534  0  1.011544  0
H  H84  1  0.29101129  0.45892166  0.91132581  1  0.047334  0  0.107597  0.11277  0  0.982236  0
H  H85  1  0.19188296  0.57073246  0.88940842  1  0.099715  0  0.10243  0.111144  0  1.008217  0
H  H86  1  0.18053063  0.60922030  0.77522579  1  0.105964  0  0.109944  0.123587  0  0.987824  0
H  H87  1  0.26092533  0.53467433  0.68102809  1  0.120879  0  0.114396  0.139347  0  0.972642  0
H  H88  1  0.39326764  0.42526273  0.64360773  1  0.083553  0  0.113128  0.113702  0  0.946881  0
H  H89  1  0.40408233  0.34830161  0.86351698  1  0.074926  0  0.113792  0.112531  0  0.947446  0
C  C90  1  0.78090433  0.65828407  0.81091735  1  -0.143386  0  -0.130318  -0.183995  0  4.069851  0
C  C91  1  0.81489711  0.58854327  0.81071268  1  -0.095792  0  -0.107954  -0.103231  0  4.027069  0
C  C92  1  0.77581844  0.54754589  0.86574453  1  -0.024735  0  -0.094697  -0.080484  0  4.000058  0
C  C93  1  0.70446938  0.57465324  0.92156699  1  -0.061392  0  -0.084777  -0.110244  0  3.959903  0
C  C94  1  0.66999531  0.64307237  0.92185774  1  0.002214  0  -0.004194  0.047329  0  3.91297  0
C  C95  1  0.70559934  0.68432596  0.86675403  1  -0.052537  0  -0.007916  0.046547  0  3.919223  0
C  C96  1  0.27304289  0.68543084  0.97647563  1  -0.06821  0  -0.098157  -0.140956  0  3.963565  0
C  C97  1  0.13961198  0.70939096  0.94466408  1  -0.18107  0  -0.128172  -0.125897  0  4.060862  0
C  C98  1  0.17450280  0.74980658  0.88862104  1  0.024026  0  -0.09815  -0.088113  0  4.004926  0
C  C99  1  0.34026151  0.76662307  0.86379071  1  -0.030127  0  -0.091211  -0.125724  0  3.985989  0
C  C100  1  0.47078310  0.74266117  0.89518014  1  -0.049355  0  -0.003308  0.050886  0  3.910934  0
C  C101  1  0.43758527  0.70225263  0.95109202  1  -0.01492  0  -0.006901  0.040861  0  3.929275  0
C  C102  1  0.79961292  0.77697796  0.05282890  1  -0.039943  0  -0.083928  -0.110357  0  3.922181  0
C  C103  1  0.91279120  0.84423601  0.05714348  1  -0.107948  0  -0.113325  -0.102708  0  4.02776  0
C  C104  1  0.94776719  0.88512032  0.00132221  1  -0.072363  0  -0.105369  -0.101641  0  4.033601  0
C  C105  1  0.86920214  0.85903416  0.94074822  1  -0.118134  0  -0.093163  -0.138712  0  4.006647  0
C  C106  1  0.75720061  0.79292331  0.93680108  1  -0.019248  0  -0.005808  0.03829  0  3.935594  0
C  C107  1  0.72314041  0.75185207  0.99259805  1  -0.047097  0  -0.003373  0.047422  0  3.912207  0
C  C108  1  0.65883126  0.75727066  0.87571441  1  -0.017819  0  -0.068586  -0.094895  0  3.88232  0
C  C109  1  0.59600886  0.68127759  0.97886684  1  -0.009895  0  -0.066508  -0.09404  0  3.860605  0
C  C110  1  0.41779902  0.92012563  0.08099427  1  -0.02445  0  -0.104637  -0.147394  0  3.994432  0
C  C111  1  0.47479222  0.88759294  0.02377456  1  -0.120438  0  -0.12405  -0.11851  0  4.06553  0
C  C112  1  0.47969264  0.92077874  0.96365816  1  -0.047841  0  -0.093015  -0.079318  0  4.003112  0
C  C113  1  0.43068526  0.98631932  0.95972045  1  -0.006568  0  -0.08853  -0.123154  0  3.964338  0
C  C114  1  0.37656833  0.01854750  0.01637246  1  -0.062839  0  0.000252  0.057651  0  3.908672  0
C  C115  1  0.36786147  0.98510266  0.07639578  1  -0.073458  0  -0.009356  0.036396  0  3.936073  0
C  C116  1  0.97890343  0.02353466  0.14184352  1  -0.094952  0  -0.095894  -0.141961  0  4.024314  0
C  C117  1  0.83241321  0.03906080  0.11331726  1  -0.072366  0  -0.095061  -0.073888  0  4.003656  0
C  C118  1  0.84216352  0.07262115  0.05394638  1  -0.005378  0  -0.092958  -0.07109  0  3.980836  0
C  C119  1  0.99882110  0.09125652  0.02182907  1  -0.068885  0  -0.09139  -0.131276  0  3.98065  0
C  C120  1  0.14429716  0.07561079  0.04997234  1  -0.101845  0  -0.013448  0.027158  0  3.960993  0
C  C121  1  0.13438953  0.04179601  0.10994551  1  -0.012983  0  -0.014501  0.029477  0  3.960156  0
C  C122  1  0.53268964  0.13081909  0.18849664  1  -0.070988  0  -0.101697  -0.144643  0  3.984101  0
C  C123  1  0.64668340  0.19729205  0.18179881  1  -0.159904  0  -0.129899  -0.119889  0  4.073332  0
C  C124  1  0.65166609  0.23181462  0.12225181  1  -0.082983  0  -0.09564  -0.082616  0  4.000401  0
C  C125  1  0.54722305  0.20064276  0.06905227  1  -0.009841  0  -0.089503  -0.123949  0  3.960478  0
C  C126  1  0.43905009  0.13431192  0.07540181  1  -0.089974  0  -7.6e-05  0.057022  0  3.908181  0
C  C127  1  0.43001347  0.10017532  0.13514435  1  0.023247  0  -0.009855  0.034345  0  3.940191  0
C  C128  1  0.32408964  0.09073866  0.02173315  1  -0.04798  0  -0.06827  -0.100109  0  3.8831  0
C  C129  1  0.30571444  0.02814598  0.13276174  1  0.021585  0  -0.068668  -0.092073  0  3.904409  0
C  C130  1  0.05768144  0.24604291  0.28469706  1  -0.032153  0  -0.085381  -0.118514  0  3.949339  0
C  C131  1  0.11360954  0.20157692  0.23588355  1  -0.10145  0  -0.106276  -0.092849  0  4.018243  0
C  C132  1  0.13969581  0.22373469  0.17122395  1  -0.03064  0  -0.105551  -0.102496  0  4.031919  0
C  C133  1  0.10973349  0.29054243  0.15485076  1  -0.021621  0  -0.090322  -0.135279  0  3.994129  0
C  C134  1  0.05425824  0.33401425  0.20306808  1  -0.085605  0  -0.005317  0.042315  0  3.93477  0
C  C135  1  0.02868697  0.31185877  0.26794501  1  -0.038988  0  -0.004789  0.040857  0  3.928936  0
C  C136  1  0.64055789  0.36579713  0.30822872  1  -0.079152  0  -0.097558  -0.137979  0  3.978509  0
C  C137  1  0.50168377  0.37738321  0.27028335  1  -0.090638  0  -0.127554  -0.125432  0  4.076289  0
C  C138  1  0.52878415  0.40013952  0.20582495  1  -0.121652  0  -0.095926  -0.080761  0  3.999194  0
C  C139  1  0.69232627  0.41117862  0.17864598  1  -0.013123  0  -0.089996  -0.127489  0  3.980929  0
C  C140  1  0.82825173  0.39994785  0.21638551  1  -0.008473  0  -0.003938  0.048907  0  3.920344  0
C  C141  1  0.80282827  0.37753963  0.28085118  1  -0.052063  0  -0.007055  0.042448  0  3.928294  0
C  C142  1  0.18959476  0.47633164  0.36097626  1  0.012312  0  -0.087348  -0.127701  0  3.990878  0
C  C143  1  0.30763624  0.53905870  0.34836980  1  -0.050654  0  -0.090655  -0.076821  0  3.992413  0
C  C144  1  0.33443199  0.56106252  0.28412852  1  -0.10369  0  -0.099282  -0.09163  0  3.997774  0
C  C145  1  0.24229171  0.52003661  0.23097501  1  -0.114131  0  -0.121779  -0.170724  0  4.041899  0
C  C146  1  0.12259722  0.45771607  0.24436150  1  -0.064501  0  -0.011237  0.03951  0  3.925049  0
C  C147  1  0.09720131  0.43597416  0.30905758  1  -0.010172  0  -0.008816  0.034461  0  3.943339  0
C  C148  1  0.01267977  0.40704663  0.19382998  1  -0.011088  0  -0.068405  -0.096045  0  3.88148  0
C  C149  1  0.96567881  0.36623686  0.31372006  1  0.016756  0  -0.065025  -0.09241  0  3.878817  0
C  C150  1  0.87711549  0.65823918  0.31084250  1  -0.14992  0  -0.129677  -0.182073  0  4.067363  0
C  C151  1  0.77346669  0.58851251  0.31067055  1  -0.06211  0  -0.10771  -0.102789  0  4.026454  0
C  C152  1  0.77191743  0.54746276  0.36565450  1  -0.052319  0  -0.095351  -0.08124  0  4.002615  0
C  C153  1  0.87059185  0.57451003  0.42139850  1  -0.041278  0  -0.085025  -0.110315  0  3.959606  0
C  C154  1  0.97338095  0.64292098  0.42165050  1  -0.009195  0  -0.003557  0.048538  0  3.910805  0
C  C155  1  0.97873840  0.68422456  0.36659312  1  -0.0344  0  -0.008265  0.044855  0  3.918074  0
C  C156  1  0.41272146  0.68528977  0.47608682  1  -0.020426  0  -0.097941  -0.13968  0  3.96182  0
C  C157  1  0.57006441  0.70929887  0.44423309  1  -0.123392  0  -0.127587  -0.126602  0  4.063319  0
C  C158  1  0.57537740  0.74973140  0.38821788  1  -0.125441  0  -0.098073  -0.089063  0  4.008443  0
C  C159  1  0.42633768  0.76652810  0.36344805  1  0.019143  0  -0.09041  -0.123388  0  3.982376  0
C  C160  1  0.27191513  0.74252472  0.39486252  1  -0.066449  0  -0.003818  0.049201  0  3.909039  0
C  C161  1  0.26490803  0.70207012  0.45076632  1  -0.043197  0  -0.006999  0.041585  0  3.927095  0
C  C162  1  0.97751449  0.77675667  0.55272021  1  -0.043735  0  -0.084023  -0.109697  0  3.921183  0
C  C163  1  0.93129715  0.84398726  0.55708874  1  -0.104321  0  -0.11312  -0.104716  0  4.028731  0
C  C164  1  0.93719541  0.88493588  0.50131007  1  -0.045974  0  -0.104973  -0.09925  0  4.033234  0
C  C165  1  0.98986960  0.85891318  0.44071185  1  -0.067377  0  -0.093144  -0.138657  0  4.006506  0
C  C166  1  0.03579485  0.79278656  0.43667221  1  -0.054274  0  -0.005465  0.039214  0  3.934551  0
C  C167  1  0.02889039  0.75167355  0.49244410  1  -0.034325  0  -0.003306  0.047172  0  3.909029  0
C  C168  1  0.09841564  0.75714417  0.37552223  1  -0.017389  0  -0.069069  -0.095078  0  3.883139  0
C  C169  1  0.08560560  0.68109261  0.47862169  1  0.005144  0  -0.067561  -0.095639  0  3.861205  0
C  C170  1  0.50254956  0.92032896  0.58105413  1  -0.093798  0  -0.103404  -0.145331  0  3.992591  0
C  C171  1  0.41291896  0.88780530  0.52389735  1  -0.121064  0  -0.124735  -0.118806  0  4.067162  0
C  C172  1  0.44116927  0.92095028  0.46376007  1  -0.019684  0  -0.093586  -0.081465  0  4.007794  0
C  C173  1  0.55579849  0.98642937  0.45973738  1  -0.012058  0  -0.087717  -0.121752  0  3.964915  0
C  C174  1  0.64209906  0.01870349  0.51635385  1  -0.061268  0  0.001004  0.058214  0  3.90867  0
C  C175  1  0.61728484  0.98529125  0.57639614  1  -0.019519  0  -0.009366  0.035517  0  3.936894  0
C  C176  1  0.04415737  0.02358535  0.64190281  1  -0.082088  0  -0.095899  -0.141083  0  4.0234  0
C  C177  1  0.20616473  0.03892161  0.61337779  1  -0.10246  0  -0.09544  -0.075103  0  4.004771  0
C  C178  1  0.23017428  0.07240694  0.55396910  1  0.033724  0  -0.09226  -0.070354  0  3.978459  0
C  C179  1  0.09234477  0.09116989  0.52183159  1  -0.049963  0  -0.092322  -0.132449  0  3.981571  0
C  C180  1  0.93119967  0.07569100  0.54998213  1  -0.065021  0  -0.013684  0.027678  0  3.961323  0
C  C181  1  0.90712889  0.04194334  0.60997502  1  -0.077273  0  -0.014142  0.028393  0  3.959631  0
C  C182  1  0.59783839  0.13108879  0.68845246  1  -0.065831  0  -0.102601  -0.146065  0  3.987314  0
C  C183  1  0.55043892  0.19760813  0.68174060  1  -0.071126  0  -0.129787  -0.119688  0  4.073897  0
C  C184  1  0.58014260  0.23210885  0.62218493  1  -0.119977  0  -0.096032  -0.082514  0  4.000916  0
C  C185  1  0.65345836  0.20088673  0.56899523  1  -0.011388  0  -0.089191  -0.124447  0  3.960651  0
C  C186  1  0.69512898  0.13449644  0.57534121  1  -0.076671  0  -0.000407  0.058107  0  3.905394  0
C  C187  1  0.66988044  0.10038339  0.63510028  1  -0.031556  0  -0.009542  0.034825  0  3.939692  0
C  C188  1  0.76663811  0.09088039  0.52170330  1  -0.025816  0  -0.06878  -0.10084  0  3.882829  0
C  C189  1  0.72217203  0.02834592  0.63275828  1  0.018366  0  -0.069151  -0.091804  0  3.903191  0
C  C190  1  0.18862489  0.24604865  0.78421863  1  0.010411  0  -0.084377  -0.117057  0  3.948219  0
C  C191  1  0.08847159  0.20168121  0.73533175  1  -0.10372  0  -0.106325  -0.09331  0  4.018689  0
C  C192  1  0.08453828  0.22403303  0.67074235  1  -0.106344  0  -0.105177  -0.102968  0  4.032843  0
C  C193  1  0.18098828  0.29093197  0.65451054  1  0.014899  0  -0.090029  -0.134235  0  3.994325  0
C  C194  1  0.27988374  0.33427509  0.70278355  1  -0.101842  0  -0.00545  0.042291  0  3.935025  0
C  C195  1  0.28337466  0.31188894  0.76756777  1  -0.081147  0  -0.004928  0.040243  0  3.930315  0
C  C196  1  0.72537764  0.36569550  0.80785981  1  -0.063335  0  -0.097592  -0.137536  0  3.979993  0
C  C197  1  0.87598014  0.37750741  0.76997206  1  -0.152686  0  -0.126974  -0.124146  0  4.075424  0
C  C198  1  0.87165599  0.40043392  0.70557975  1  -0.053262  0  -0.096549  -0.083403  0  3.99726  0
C  C199  1  0.71914289  0.41146808  0.67841606  1  0.004197  0  -0.090776  -0.128129  0  3.977776  0
C  C200  1  0.57186776  0.40007637  0.71611967  1  -0.09384  0  -0.003576  0.050711  0  3.917427  0
C  C201  1  0.57486521  0.37744543  0.78051321  1  -0.050849  0  -0.006607  0.042416  0  3.931258  0
C  C202  1  0.28725890  0.47598914  0.86121001  1  -0.027176  0  -0.088155  -0.128579  0  3.988683  0
C  C203  1  0.23181062  0.53878661  0.84896084  1  -0.027887  0  -0.089818  -0.076186  0  3.989862  0
C  C204  1  0.22670248  0.56106995  0.78482194  1  -0.078599  0  -0.099904  -0.092207  0  4.000753  0
C  C205  1  0.27774185  0.52028706  0.73143240  1  -0.083394  0  -0.121623  -0.171438  0  4.043085  0
C  C206  1  0.33529725  0.45786096  0.74446390  1  -0.099202  0  -0.011543  0.03964  0  3.923358  0
C  C207  1  0.33913122  0.43585106  0.80905299  1  -0.02244  0  -0.008415  0.035804  0  3.942316  0
C  C208  1  0.39446918  0.40732913  0.69370079  1  0.001802  0  -0.068396  -0.09779  0  3.880729  0
C  C209  1  0.40080221  0.36605435  0.81342073  1  0.012356  0  -0.066032  -0.094645  0  3.884226  0
Cl  Cl210  1  0.76666353  0.58937819  0.60669062  1  3.011987  0  0.720189  1.289832  0  6.776089  0
Cl  Cl211  1  0.31488770  0.74045351  0.17052124  1  2.995174  0  0.720422  1.2969  0  6.750719  0
Cl  Cl212  1  0.54466892  0.17931325  0.38214412  1  3.014038  0  0.714765  1.292212  0  6.794359  0
Cl  Cl213  1  0.82261917  0.58916764  0.10663304  1  3.007903  0  0.719004  1.286989  0  6.772838  0
Cl  Cl214  1  0.42442238  0.74062610  0.67045967  1  3.028584  0  0.719521  1.29468  0  6.753991  0
Cl  Cl215  1  0.63436017  0.17895565  0.88195193  1  3.033521  0  0.713349  1.291753  0  6.799883  0
O  O216  1  0.61060698  0.55056130  0.63948179  1  -0.912527  0  -0.341356  -0.55152  0  2.204534  0
O  O217  1  0.86911049  0.63918903  0.65486838  1  -0.986353  0  -0.313126  -0.499314  0  2.075617  0
O  O218  1  0.71387177  0.62714835  0.55310257  1  -1.010157  0  -0.301764  -0.483927  0  2.142845  0
O  O219  1  0.86358669  0.53721405  0.58156427  1  -0.987498  0  -0.322484  -0.502909  0  2.03524  0
O  O220  1  0.18541875  0.76904348  0.13488607  1  -0.9546  0  -0.334358  -0.529246  0  2.194802  0
O  O221  1  0.35801169  0.68018940  0.13340434  1  -0.992107  0  -0.302392  -0.476873  0  2.064673  0
O  O222  1  0.46593046  0.79652931  0.18368090  1  -0.975245  0  -0.318193  -0.485734  0  2.013377  0
O  O223  1  0.23886792  0.71693859  0.23397117  1  -0.937712  0  -0.32644  -0.533427  0  2.241252  0
O  O224  1  0.41230669  0.20271260  0.34264811  1  -0.941694  0  -0.349378  -0.551156  0  2.183624  0
O  O225  1  0.63394672  0.13474727  0.34067190  1  -0.99762  0  -0.327362  -0.513528  0  2.039666  0
O  O226  1  0.66728382  0.24223140  0.40826396  1  -0.985691  0  -0.327615  -0.520618  0  2.048988  0
O  O227  1  0.45898116  0.13904771  0.43531065  1  -0.991239  0  -0.303211  -0.486506  0  2.122566  0
O  O228  1  0.93927926  0.55006856  0.13942674  1  -0.943933  0  -0.341039  -0.55051  0  2.204358  0
O  O229  1  0.77056593  0.63920848  0.15478899  1  -0.978998  0  -0.312977  -0.498867  0  2.076433  0
O  O230  1  0.91356720  0.62673015  0.05301180  1  -0.984277  0  -0.301369  -0.482934  0  2.140918  0
O  O231  1  0.67317209  0.53726846  0.08158096  1  -0.984669  0  -0.32211  -0.502059  0  2.032611  0
O  O232  1  0.58238715  0.76909702  0.63471469  1  -0.943649  0  -0.334366  -0.529219  0  2.197347  0
O  O233  1  0.32092007  0.68038858  0.63341743  1  -0.979635  0  -0.30227  -0.476081  0  2.062388  0
O  O234  1  0.32960107  0.79679604  0.68366284  1  -1.001063  0  -0.317949  -0.485016  0  2.014647  0
O  O235  1  0.47708092  0.71713744  0.73389435  1  -0.968585  0  -0.32651  -0.533036  0  2.240675  0
O  O236  1  0.78985020  0.20237289  0.84231223  1  -0.935482  0  -0.348896  -0.550922  0  2.183544  0
O  O237  1  0.50062858  0.13415290  0.84067269  1  -0.993389  0  -0.327049  -0.512839  0  2.040741  0
O  O238  1  0.57420638  0.24185040  0.90797249  1  -1.006418  0  -0.327431  -0.520607  0  2.05117  0
O  O239  1  0.68035623  0.13891797  0.93518984  1  -1.000394  0  -0.303205  -0.487114  0  2.122936  0
