# generated using pymatgen
data_Zr6H25C50Br5O32
_symmetry_space_group_name_H-M   'P 1'
_cell_length_a   14.79083566
_cell_length_b   14.79656737
_cell_length_c   14.81091906
_cell_angle_alpha   60.04568826
_cell_angle_beta   59.99339357
_cell_angle_gamma   60.06952954
_symmetry_Int_Tables_number   1
_chemical_formula_structural   Zr6H25C50Br5O32
_chemical_formula_sum   'Zr6 H25 C50 Br5 O32'
_cell_volume   2293.91093700
_cell_formula_units_Z   1
loop_
 _symmetry_equiv_pos_site_id
 _symmetry_equiv_pos_as_xyz
  1  'x, y, z'
loop_
 _atom_site_type_symbol
 _atom_site_label
 _atom_site_symmetry_multiplicity
 _atom_site_fract_x
 _atom_site_fract_y
 _atom_site_fract_z
 _atom_site_occupancy
 _atom_site_pbe_bader_charge
 _atom_site_pbe_bader_spin_density
 _atom_site_pbe_cm5_charge
 _atom_site_pbe_ddec_charge
 _atom_site_pbe_ddec_spin_density
 _atom_site_pbe_ddec_sum_bond_order
 _atom_site_pbe_magmom
Zr  Zr0  1  0.87967971  0.88103922  0.61910211  1  2.63554  0  1.626886  2.370635  0  2.759406  0
Zr  Zr1  1  0.11978284  0.11857409  0.38126313  1  2.634748  0  1.628972  2.38105  0  2.760747  0
Zr  Zr2  1  0.11781086  0.87995746  0.62012924  1  2.63608  0  1.623229  2.377442  0  2.742443  0
Zr  Zr3  1  0.88030613  0.11982317  0.37998277  1  2.636086  0  1.628984  2.37149  0  2.764276  0
Zr  Zr4  1  0.11868532  0.88169891  0.37935079  1  2.637594  0  1.626299  2.377147  0  2.755039  0
Zr  Zr5  1  0.87982443  0.12085257  0.61803395  1  2.634303  0  1.625996  2.377062  0  2.753614  0
H  H6  1  0.09283602  0.71816559  0.59437601  1  0.609836  0  0.33098  0.422155  0  0.856698  0
H  H7  1  0.09445749  0.09404434  0.21772782  1  0.595623  0  0.331676  0.423737  0  0.854515  0
H  H8  1  0.09347750  0.09371196  0.59419040  1  0.600199  0  0.331284  0.423684  0  0.854088  0
H  H9  1  0.71690216  0.09496121  0.59334676  1  0.589447  0  0.331034  0.422485  0  0.857319  0
H  H10  1  0.85154713  0.58308858  0.64282029  1  0.1213  0  0.11069  0.116333  0  0.995105  0
H  H11  1  0.14274261  0.59300389  0.35417433  1  0.140776  0  0.105134  0.120171  0  1.02207  0
H  H12  1  0.86029879  0.41271435  0.63540159  1  0.090145  0  0.107984  0.114263  0  1.0105  0
H  H13  1  0.58334808  0.85142406  0.92285219  1  0.096337  0  0.110143  0.115603  0  0.997182  0
H  H14  1  0.59493979  0.14095273  0.91221411  1  0.095119  0  0.104322  0.11945  0  1.024739  0
H  H15  1  0.41469154  0.85848114  0.09356527  1  0.089144  0  0.10703  0.112439  0  1.013875  0
H  H16  1  0.14170973  0.85367817  0.08154726  1  0.073087  0  0.111711  0.119876  0  0.987058  0
H  H17  1  0.85111254  0.14240883  0.09377238  1  0.103028  0  0.10909  0.124608  0  1.009325  0
H  H18  1  0.13386927  0.86248143  0.91151322  1  0.141207  0  0.108021  0.113501  0  1.00945  0
H  H19  1  0.58324852  0.42505869  0.63975927  1  0.104649  0  0.112056  0.11938  0  0.986291  0
H  H20  1  0.59300381  0.41150841  0.35205888  1  0.102089  0  0.108893  0.123838  0  1.011361  0
H  H21  1  0.41391696  0.59476407  0.63103342  1  0.148477  0  0.107767  0.11403  0  1.012172  0
H  H22  1  0.14018107  0.41818266  0.08765128  1  0.108087  0  0.098241  0.101362  0  1.032349  0
H  H23  1  0.14048452  0.58676065  0.91994497  1  0.089712  0  0.10664  0.114417  0  0.992964  0
H  H24  1  0.74247511  0.62917127  0.95808479  1  0.043304  0  0.097498  0.107727  0  0.987747  0
H  H25  1  0.82951091  0.54411688  0.87263780  1  0.041684  0  0.09694  0.106442  0  0.98778  0
H  H26  1  0.82841269  0.37386442  0.04241318  1  0.058538  0  0.095704  0.105889  0  0.991592  0
H  H27  1  0.74163304  0.45891018  0.12790740  1  0.046948  0  0.096235  0.107355  0  0.992141  0
H  H28  1  0.58195340  0.14222350  0.35152555  1  0.106  0  0.112564  0.121132  0  0.985107  0
H  H29  1  0.59386855  0.85292362  0.64144603  1  0.143465  0  0.109062  0.125531  0  1.004877  0
H  H30  1  0.41222055  0.13323795  0.36078814  1  0.136451  0  0.10438  0.108214  0  1.027855  0
C  C31  1  0.99432714  0.70037989  0.49807016  1  1.575996  0  0.238209  0.641641  0  4.095  0
C  C32  1  0.30732666  0.99959363  0.19954798  1  1.553587  0  0.234977  0.647806  0  4.09533  0
C  C33  1  0.00023106  0.30676128  0.49397454  1  1.574607  0  0.23516  0.648181  0  4.094596  0
C  C34  1  0.69900013  0.99592272  0.80589600  1  1.538697  0  0.238492  0.641823  0  4.091621  0
C  C35  1  0.99639272  0.70028942  0.80640754  1  1.526457  0  0.236586  0.645835  0  4.104427  0
C  C36  1  0.69912885  0.99876832  0.49457271  1  1.564286  0  0.238738  0.642429  0  4.094764  0
C  C37  1  0.99641091  0.30526319  0.19996239  1  1.548312  0  0.236033  0.645812  0  4.101964  0
C  C38  1  0.30590055  0.99230349  0.50181783  1  1.588034  0  0.236094  0.649436  0  4.091182  0
C  C39  1  0.30596181  0.69980094  0.49218020  1  1.575398  0  0.236426  0.650143  0  4.091678  0
C  C40  1  0.99213008  0.00156512  0.80620856  1  1.59845  0  0.23561  0.648766  0  4.092188  0
C  C41  1  0.69932540  0.30785465  0.49695572  1  1.551997  0  0.238491  0.640226  0  4.09831  0
C  C42  1  0.99734730  0.99600162  0.19897539  1  1.574384  0  0.239108  0.641618  0  4.097526  0
C  C43  1  0.00447933  0.40741772  0.49096835  1  -0.00899  0  -0.014716  -0.082149  0  3.90507  0
C  C44  1  0.99621987  0.59862982  0.49762131  1  -0.000336  0  -0.009404  -0.01257  0  3.956136  0
C  C45  1  0.08534943  0.45876450  0.41165632  1  -0.093321  0  -0.002032  0.109326  0  3.900142  0
C  C46  1  0.91636526  0.54789489  0.57827663  1  -0.03069  0  -0.081643  -0.09701  0  3.970169  0
C  C47  1  0.08051985  0.55343610  0.41528219  1  -0.009626  0  -0.087515  -0.149021  0  3.961107  0
C  C48  1  0.92126433  0.45393225  0.57400950  1  0.00238  0  -0.07685  -0.076144  0  3.962982  0
C  C49  1  0.40867874  0.00336212  0.09840766  1  -0.000709  0  -0.014155  -0.082104  0  3.906629  0
C  C50  1  0.59893238  0.99609998  0.90788180  1  -0.017717  0  -0.009519  -0.011453  0  3.954589  0
C  C51  1  0.46030067  0.08393617  0.04592911  1  -0.120546  0  -0.00215  0.109215  0  3.900453  0
C  C52  1  0.54864369  0.91579172  0.95821434  1  -0.001728  0  -0.08116  -0.097752  0  3.972134  0
C  C53  1  0.55464646  0.07944938  0.95212332  1  0.070611  0  -0.087912  -0.14942  0  3.961358  0
C  C54  1  0.45531229  0.92005694  0.05213640  1  0.015002  0  -0.07724  -0.074541  0  3.963172  0
C  C55  1  0.98888078  0.00580328  0.90695974  1  -0.070604  0  -0.013851  -0.081714  0  3.903929  0
C  C56  1  0.99600345  0.99749161  0.09790904  1  0.011622  0  -0.008968  -0.012167  0  3.9579  0
C  C57  1  0.90917531  0.08604350  0.95883774  1  -0.070753  0  -0.003166  0.106941  0  3.903799  0
C  C58  1  0.07676507  0.91806739  0.04685292  1  -0.021932  0  -0.080303  -0.09624  0  3.966818  0
C  C59  1  0.91296953  0.08104960  0.05342510  1  -0.020707  0  -0.087798  -0.151567  0  3.964914  0
C  C60  1  0.07226728  0.92303642  0.95305039  1  0.033253  0  -0.075591  -0.072944  0  3.958441  0
C  C61  1  0.40755900  0.59885302  0.48805649  1  0.010755  0  -0.014624  -0.082903  0  3.904348  0
C  C62  1  0.59845411  0.40900346  0.49542889  1  -0.023933  0  -0.009172  -0.012904  0  3.958119  0
C  C63  1  0.45902070  0.54591301  0.40887730  1  -0.099235  0  -0.003201  0.107123  0  3.902508  0
C  C64  1  0.54818433  0.45966944  0.57525908  1  -0.005  0  -0.07997  -0.092993  0  3.964958  0
C  C65  1  0.55343204  0.45233308  0.41295912  1  0.038583  0  -0.087532  -0.150829  0  3.964549  0
C  C66  1  0.45451645  0.55314003  0.57053464  1  -0.080533  0  -0.075655  -0.07499  0  3.960387  0
C  C67  1  0.99568577  0.59989621  0.90636754  1  -0.034531  0  -0.014106  -0.085485  0  3.974452  0
C  C68  1  0.99539376  0.40556432  0.09983220  1  -0.073942  0  -0.013469  -0.08228  0  3.965556  0
C  C69  1  0.91627056  0.54943559  0.95520479  1  -0.029524  0  -0.00198  0.065996  0  3.876215  0
C  C70  1  0.07672940  0.45552614  0.05032124  1  0.005701  0  -0.084038  -0.097258  0  3.982092  0
C  C71  1  0.91604688  0.45488072  0.04929134  1  0.052999  0  -0.002424  0.065733  0  3.871348  0
C  C72  1  0.07684096  0.54975856  0.95654974  1  -0.043219  0  -0.083836  -0.095593  0  3.975054  0
C  C73  1  0.81503364  0.55508187  0.94747632  1  0.020136  0  -0.150489  -0.198058  0  3.877512  0
C  C74  1  0.81458155  0.44809832  0.05408869  1  -0.039268  0  -0.150031  -0.196961  0  3.872707  0
C  C75  1  0.40712035  0.98910525  0.50516765  1  -0.041613  0  -0.014298  -0.082589  0  3.904693  0
C  C76  1  0.59813396  0.99717083  0.49598075  1  0.041345  0  -0.009546  -0.014892  0  3.960137  0
C  C77  1  0.45908197  0.90985987  0.58525802  1  -0.080367  0  -0.003202  0.107665  0  3.906195  0
C  C78  1  0.54725979  0.07730170  0.41637488  1  -0.066362  0  -0.079862  -0.094252  0  3.961961  0
C  C79  1  0.55363441  0.91414888  0.57997385  1  -0.019121  0  -0.088351  -0.150216  0  3.962978  0
C  C80  1  0.45341657  0.07230524  0.42168377  1  -0.021765  0  -0.075014  -0.071188  0  3.955943  0
Br  Br81  1  0.20779919  0.40915853  0.29405588  1  -0.041714  0  0.028957  -0.056901  0  1.445948  0
Br  Br82  1  0.41109854  0.20582479  0.09139670  1  -0.038478  0  0.028679  -0.057281  0  1.444502  0
Br  Br83  1  0.79053082  0.20777554  0.91041089  1  -0.04348  0  0.03232  -0.058849  0  1.427859  0
Br  Br84  1  0.40959436  0.59017893  0.29127863  1  -0.042468  0  0.032285  -0.059133  0  1.42657  0
Br  Br85  1  0.41019098  0.79152420  0.70741414  1  -0.049049  0  0.026527  -0.063454  0  1.407654  0
O  O86  1  0.91812796  0.73791182  0.57625769  1  -1.191468  0  -0.353247  -0.616206  0  2.274181  0
O  O87  1  0.26601084  0.07327462  0.24320269  1  -1.18062  0  -0.3631  -0.621378  0  2.392078  0
O  O88  1  0.07610616  0.26356073  0.41998825  1  -1.184624  0  -0.361488  -0.619576  0  2.393823  0
O  O89  1  0.73637891  0.91988525  0.76616239  1  -1.174414  0  -0.353742  -0.617198  0  2.272917  0
O  O90  1  0.07411437  0.73927867  0.76611742  1  -1.186911  0  -0.361379  -0.624653  0  2.278367  0
O  O91  1  0.73668469  0.07701239  0.41862744  1  -1.182572  0  -0.352148  -0.615136  0  2.269016  0
O  O92  1  0.91986461  0.26510033  0.23872896  1  -1.17381  0  -0.358388  -0.615813  0  2.272987  0
O  O93  1  0.26351732  0.91717006  0.57665069  1  -1.1782  0  -0.364762  -0.623947  0  2.38914  0
O  O94  1  0.26394810  0.74252695  0.41688543  1  -1.172822  0  -0.365004  -0.623235  0  2.389803  0
O  O95  1  0.91785872  0.07722260  0.76326925  1  -1.18361  0  -0.363375  -0.621334  0  2.39077  0
O  O96  1  0.73717328  0.26853424  0.57482574  1  -1.176884  0  -0.353277  -0.616637  0  2.269619  0
O  O97  1  0.07555773  0.91997898  0.23639542  1  -1.180915  0  -0.3528  -0.615464  0  2.271193  0
O  O98  1  0.06956023  0.92334463  0.76952415  1  -1.179896  0  -0.345391  -0.612268  0  2.268495  0
O  O99  1  0.73898536  0.26753975  0.42092930  1  -1.178401  0  -0.35174  -0.612724  0  2.290183  0
O  O100  1  0.92080432  0.07216956  0.23921784  1  -1.184445  0  -0.352838  -0.614872  0  2.29053  0
O  O101  1  0.26758628  0.73537215  0.57138653  1  -1.176458  0  -0.344549  -0.610439  0  2.268992  0
O  O102  1  0.91971140  0.73986129  0.76668455  1  -1.175221  0  -0.351198  -0.61224  0  2.272525  0
O  O103  1  0.26811812  0.07082165  0.42491926  1  -1.177682  0  -0.345376  -0.608513  0  2.284261  0
O  O104  1  0.07327871  0.26548774  0.23927509  1  -1.18274  0  -0.352675  -0.615039  0  2.291641  0
O  O105  1  0.73909268  0.92232397  0.57089500  1  -1.182683  0  -0.353989  -0.614704  0  2.290144  0
O  O106  1  0.73827913  0.07302747  0.76529971  1  -1.177907  0  -0.351668  -0.611387  0  2.297145  0
O  O107  1  0.07007577  0.74105847  0.42096388  1  -1.178853  0  -0.352429  -0.612698  0  2.296799  0
O  O108  1  0.26821840  0.92371701  0.23458897  1  -1.171848  0  -0.346622  -0.611677  0  2.271304  0
O  O109  1  0.92162578  0.27016719  0.57110234  1  -1.185243  0  -0.348392  -0.615039  0  2.271792  0
O  O110  1  0.79714702  0.06822807  0.56653568  1  -1.220441  0  -0.694187  -1.070124  0  2.360423  0
O  O111  1  0.06648738  0.06703064  0.56761422  1  -1.228958  0  -0.694303  -1.0651  0  2.361589  0
O  O112  1  0.06739125  0.06687940  0.29787860  1  -1.224765  0  -0.695219  -1.069672  0  2.364744  0
O  O113  1  0.06613884  0.79834166  0.56703785  1  -1.237725  0  -0.693447  -1.066813  0  2.361734  0
O  O114  1  0.14752805  0.94998432  0.45104667  1  -1.198139  0  -0.791534  -1.1469  0  2.130363  0
O  O115  1  0.94971641  0.95085623  0.45008646  1  -1.199905  0  -0.791334  -1.14998  0  2.127399  0
O  O116  1  0.95023938  0.14870180  0.45004292  1  -1.194832  0  -0.792812  -1.149917  0  2.133931  0
O  O117  1  0.94919424  0.95124895  0.64812757  1  -1.197342  0  -0.790951  -1.147672  0  2.129717  0
