# generated using pymatgen
data_Sm2H14C14N4O15
_symmetry_space_group_name_H-M   'P 1'
_cell_length_a   10.22338050
_cell_length_b   11.35201679
_cell_length_c   22.09895434
_cell_angle_alpha   89.99978758
_cell_angle_beta   97.39831533
_cell_angle_gamma   89.99998902
_symmetry_Int_Tables_number   1
_chemical_formula_structural   Sm2H14C14N4O15
_chemical_formula_sum   'Sm8 H56 C56 N16 O60'
_cell_volume   2543.36456739
_cell_formula_units_Z   4
loop_
 _symmetry_equiv_pos_site_id
 _symmetry_equiv_pos_as_xyz
  1  'x, y, z'
loop_
 _atom_site_type_symbol
 _atom_site_label
 _atom_site_symmetry_multiplicity
 _atom_site_fract_x
 _atom_site_fract_y
 _atom_site_fract_z
 _atom_site_occupancy
 _atom_site_pbe_bader_charge
 _atom_site_pbe_bader_spin_density
 _atom_site_pbe_cm5_charge
 _atom_site_pbe_ddec_charge
 _atom_site_pbe_ddec_spin_density
 _atom_site_pbe_ddec_sum_bond_order
 _atom_site_pbe_magmom
Sm  Sm0  1  0.61161828  0.18535473  0.22978978  1  2.209159  0  1.484923  1.97163  0  2.179521  0
Sm  Sm1  1  0.88837963  0.68535558  0.27020738  1  2.209036  0  1.484927  1.97166  0  2.17942  0
Sm  Sm2  1  0.38837976  0.81464451  0.77020899  1  2.2091  0  1.484907  1.971621  0  2.179432  0
Sm  Sm3  1  0.11161940  0.31464541  0.72979100  1  2.209148  0  1.484914  1.971618  0  2.179532  0
Sm  Sm4  1  0.23732546  0.42544263  0.43710825  1  2.257125  0  1.522891  2.236157  0  2.039657  0
Sm  Sm5  1  0.26267225  0.92544148  0.06289138  1  2.257058  0  1.522913  2.236151  0  2.039726  0
Sm  Sm6  1  0.76266962  0.57455572  0.56289126  1  2.257061  0  1.522942  2.236198  0  2.039683  0
Sm  Sm7  1  0.73732678  0.07455512  0.93710835  1  2.257136  0  1.522895  2.236169  0  2.039692  0
H  H8  1  0.94803956  0.41196766  0.37244511  1  0.656399  0  0.298966  0.405421  0  0.929198  0
H  H9  1  0.55196212  0.91196784  0.12755366  1  0.656406  0  0.298973  0.405444  0  0.929172  0
H  H10  1  0.05196045  0.58803333  0.62755333  1  0.656405  0  0.298993  0.405477  0  0.92913  0
H  H11  1  0.44804085  0.08803227  0.87244586  1  0.656436  0  0.298974  0.40545  0  0.92916  0
H  H12  1  0.97802007  0.28626478  0.40300810  1  0.598181  0  0.339133  0.4318  0  0.847712  0
H  H13  1  0.52197875  0.78626430  0.09699073  1  0.598204  0  0.339136  0.431828  0  0.847667  0
H  H14  1  0.02197797  0.71373710  0.59699022  1  0.598188  0  0.339112  0.431771  0  0.847737  0
H  H15  1  0.47802127  0.21373582  0.90300770  1  0.598178  0  0.339141  0.431817  0  0.847681  0
H  H16  1  0.26207922  0.17752792  0.48358241  1  0.614502  0  0.329682  0.414141  0  0.872332  0
H  H17  1  0.23792362  0.67752446  0.01641890  1  0.614487  0  0.329716  0.414133  0  0.87238  0
H  H18  1  0.73792376  0.82247484  0.51641846  1  0.614524  0  0.329709  0.414148  0  0.872367  0
H  H19  1  0.76207837  0.32247037  0.98358237  1  0.614511  0  0.329695  0.41416  0  0.872318  0
H  H20  1  0.29692215  0.19840815  0.41728027  1  0.637924  0  0.303305  0.394321  0  0.932132  0
H  H21  1  0.20308067  0.69840158  0.08272146  1  0.637911  0  0.303312  0.394336  0  0.932113  0
H  H22  1  0.70307984  0.80159813  0.58272100  1  0.637866  0  0.303321  0.39435  0  0.93209  0
H  H23  1  0.79692231  0.30159061  0.91728033  1  0.637922  0  0.303295  0.39431  0  0.93215  0
H  H24  1  0.07026688  0.59350417  0.50511062  1  0.636894  0  0.314701  0.406776  0  0.907189  0
H  H25  1  0.42972851  0.09349870  0.99489138  1  0.636821  0  0.314695  0.406686  0  0.907264  0
H  H26  1  0.92972821  0.40650123  0.49489070  1  0.636896  0  0.314719  0.406763  0  0.907175  0
H  H27  1  0.57026560  0.90649612  0.00511123  1  0.63688  0  0.314707  0.406761  0  0.907209  0
H  H28  1  0.03665364  0.62663774  0.43554560  1  0.635379  0  0.304836  0.401219  0  0.934087  0
H  H29  1  0.46333839  0.12663538  0.06445516  1  0.635434  0  0.304824  0.401209  0  0.934122  0
H  H30  1  0.96333652  0.37336590  0.56445497  1  0.635449  0  0.304843  0.401231  0  0.934094  0
H  H31  1  0.53665374  0.87336034  0.93554598  1  0.635376  0  0.304826  0.401226  0  0.934077  0
H  H32  1  0.15211691  0.48474851  0.16195319  1  0.4788  0  0.346598  0.313307  0  0.881138  0
H  H33  1  0.34788569  0.98474976  0.33804390  1  0.479931  0  0.346608  0.313299  0  0.881138  0
H  H34  1  0.84788606  0.51525072  0.83804361  1  0.479931  0  0.346609  0.313311  0  0.881141  0
H  H35  1  0.65212024  0.01525300  0.66195444  1  0.478862  0  0.346607  0.313326  0  0.88109  0
H  H36  1  0.13155230  0.11175929  0.16004119  1  0.526268  0  0.325809  0.292839  0  0.957275  0
H  H37  1  0.36844862  0.61175700  0.33996330  1  0.526285  0  0.325783  0.292836  0  0.957347  0
H  H38  1  0.86844674  0.88824259  0.83996307  1  0.526245  0  0.325802  0.292813  0  0.957348  0
H  H39  1  0.63155239  0.38824047  0.66004063  1  0.526272  0  0.325808  0.292825  0  0.9573  0
H  H40  1  0.42700175  0.35129316  0.08983724  1  0.105969  0  0.116636  0.17898  0  0.970324  0
H  H41  1  0.07300293  0.85129747  0.41016430  1  0.106016  0  0.116674  0.178992  0  0.97035  0
H  H42  1  0.57300419  0.64870255  0.91016472  1  0.106022  0  0.11666  0.178967  0  0.970417  0
H  H43  1  0.92700103  0.14870705  0.58983346  1  0.10595  0  0.116651  0.178959  0  0.970359  0
H  H44  1  0.27091021  0.42198994  0.07068021  1  0.045804  0  0.099304  0.143336  0  0.994697  0
H  H45  1  0.22909343  0.92199407  0.42932023  1  0.045965  0  0.099329  0.143379  0  0.994719  0
H  H46  1  0.72909376  0.57800577  0.92932072  1  0.045941  0  0.099348  0.143414  0  0.994761  0
H  H47  1  0.77091053  0.07801133  0.57068071  1  0.04581  0  0.099285  0.143314  0  0.99472  0
H  H48  1  0.28089717  0.26555074  0.07877775  1  0.114404  0  0.110563  0.174488  0  0.996372  0
H  H49  1  0.21910658  0.76555582  0.42121982  1  0.114467  0  0.110522  0.17445  0  0.996293  0
H  H50  1  0.71910778  0.73444409  0.92122053  1  0.114484  0  0.110532  0.17445  0  0.996291  0
H  H51  1  0.78089541  0.23444870  0.57878054  1  0.114413  0  0.110547  0.174504  0  0.996314  0
H  H52  1  0.97096890  0.20657007  0.29767010  1  0.100398  0  0.110481  0.166856  0  1.019162  0
H  H53  1  0.52903196  0.70657059  0.20233262  1  0.100605  0  0.110479  0.166868  0  1.019212  0
H  H54  1  0.02903606  0.79343093  0.70233451  1  0.100318  0  0.110464  0.166848  0  1.01927  0
H  H55  1  0.47096707  0.29342953  0.79766938  1  0.100408  0  0.110455  0.166824  0  1.019161  0
H  H56  1  0.12903201  0.17043039  0.27556477  1  0.0448  0  0.096343  0.141088  0  1.013314  0
H  H57  1  0.37096491  0.67043157  0.22443576  1  0.044765  0  0.096329  0.141092  0  1.013289  0
H  H58  1  0.87096801  0.82957061  0.72443639  1  0.044807  0  0.096346  0.141089  0  1.013332  0
H  H59  1  0.62903215  0.32956943  0.77556477  1  0.044801  0  0.09634  0.141099  0  1.013292  0
H  H60  1  0.01639177  0.05746891  0.29154451  1  0.098588  0  0.107757  0.167225  0  0.992956  0
H  H61  1  0.48360623  0.55746931  0.20845855  1  0.098637  0  0.107777  0.167296  0  0.99292  0
H  H62  1  0.98360924  0.94253296  0.70845942  1  0.098656  0  0.107772  0.167258  0  0.992915  0
H  H63  1  0.51639182  0.44253080  0.79154430  1  0.098577  0  0.107748  0.167222  0  0.992953  0
C  C64  1  0.16144233  0.50630284  0.28223482  1  1.608576  0  0.22706  0.617829  0  4.251205  0
C  C65  1  0.33855570  0.00630291  0.21776337  1  1.608578  0  0.227058  0.617757  0  4.251114  0
C  C66  1  0.83855374  0.49369728  0.71776248  1  1.608655  0  0.227019  0.617736  0  4.251222  0
C  C67  1  0.66144333  0.99369897  0.78223501  1  1.608691  0  0.227085  0.617882  0  4.250965  0
C  C68  1  0.23979205  0.42647925  0.24812410  1  0.441954  0  0.082341  -0.01625  0  3.949706  0
C  C69  1  0.26021059  0.92648026  0.25187492  1  0.441934  0  0.082393  -0.016174  0  3.949668  0
C  C70  1  0.76020994  0.57352175  0.75187582  1  0.441957  0  0.082409  -0.016201  0  3.949673  0
C  C71  1  0.73979435  0.07352338  0.74812336  1  0.441989  0  0.082415  -0.016266  0  3.94974  0
C  C72  1  0.34371732  0.34800855  0.26193831  1  0.389849  0  0.084381  -0.004634  0  4.032743  0
C  C73  1  0.15628440  0.84800968  0.23806215  1  0.389913  0  0.084305  -0.004828  0  4.032931  0
C  C74  1  0.65628369  0.65199244  0.73806199  1  0.389844  0  0.084366  -0.004659  0  4.03285  0
C  C75  1  0.84372055  0.15199308  0.76193975  1  0.389985  0  0.084327  -0.00473  0  4.032712  0
C  C76  1  0.40798905  0.30131795  0.32106551  1  1.626388  0  0.229355  0.629106  0  4.21986  0
C  C77  1  0.09201467  0.80131775  0.17893472  1  1.626427  0  0.229388  0.629217  0  4.219857  0
C  C78  1  0.59200998  0.69867952  0.67893559  1  1.626359  0  0.229339  0.629171  0  4.219764  0
C  C79  1  0.90799028  0.19868500  0.82106764  1  1.626326  0  0.229438  0.629243  0  4.219742  0
C  C80  1  0.31221706  0.36223106  0.16259073  1  0.997327  0  0.242787  0.44293  0  3.944754  0
C  C81  1  0.18778169  0.86224115  0.33740908  1  0.997374  0  0.242738  0.442774  0  3.944824  0
C  C82  1  0.68778394  0.63776025  0.83740958  1  0.997511  0  0.242781  0.442957  0  3.944788  0
C  C83  1  0.81222523  0.13776601  0.66259067  1  0.997713  0  0.242748  0.442836  0  3.944923  0
C  C84  1  0.32266131  0.34978329  0.09667867  1  -0.054646  0  -0.223788  -0.479679  0  3.894538  0
C  C85  1  0.17734238  0.84978938  0.40332191  1  -0.054849  0  -0.22382  -0.479679  0  3.894448  0
C  C86  1  0.67734265  0.65020890  0.90332226  1  -0.054863  0  -0.223802  -0.479677  0  3.894606  0
C  C87  1  0.82266158  0.15021514  0.59667812  1  -0.054672  0  -0.223762  -0.479627  0  3.894495  0
C  C88  1  0.69021577  0.15293809  0.08821211  1  1.60221  0  0.23896  0.633456  0  4.168081  0
C  C89  1  0.80978315  0.65294498  0.41178472  1  1.602262  0  0.238932  0.633439  0  4.168284  0
C  C90  1  0.30978524  0.84705851  0.91178729  1  1.602219  0  0.238919  0.633325  0  4.168254  0
C  C91  1  0.19021588  0.34706307  0.58821366  1  1.602176  0  0.238944  0.633407  0  4.16818  0
C  C92  1  0.82359220  0.15249662  0.12343245  1  0.486118  0  0.090877  0.009541  0  4.001147  0
C  C93  1  0.67640771  0.65250026  0.37656671  1  0.486003  0  0.09089  0.009478  0  4.001236  0
C  C94  1  0.17640782  0.84750174  0.87656825  1  0.485993  0  0.090857  0.00952  0  4.001254  0
C  C95  1  0.32359230  0.34750338  0.62343264  1  0.486129  0  0.090896  0.009524  0  4.001115  0
C  C96  1  0.94769043  0.13475092  0.10523551  1  0.336607  0  0.095194  -0.006467  0  3.913847  0
C  C97  1  0.55230950  0.63475534  0.39476413  1  0.336902  0  0.095155  -0.00648  0  3.913798  0
C  C98  1  0.05230762  0.86524831  0.89476463  1  0.336892  0  0.09515  -0.006546  0  3.913824  0
C  C99  1  0.44769151  0.36524653  0.60523617  1  0.336952  0  0.095158  -0.006495  0  3.913728  0
C  C100  1  0.00151439  0.12042865  0.04662303  1  1.642508  0  0.240076  0.651498  0  4.221844  0
C  C101  1  0.49849341  0.62042464  0.45337461  1  1.642836  0  0.23995  0.651306  0  4.221999  0
C  C102  1  0.99848957  0.87957322  0.95337428  1  1.642702  0  0.240079  0.651545  0  4.221921  0
C  C103  1  0.50151449  0.37956666  0.54662475  1  1.642927  0  0.240119  0.651575  0  4.221783  0
C  C104  1  0.96386955  0.14668412  0.20681997  1  0.974108  0  0.241793  0.443565  0  3.921175  0
C  C105  1  0.53612544  0.64668222  0.29318162  1  0.974163  0  0.241842  0.44362  0  3.920998  0
C  C106  1  0.03612653  0.85331952  0.79318231  1  0.974148  0  0.241836  0.443622  0  3.921084  0
C  C107  1  0.46386965  0.35331877  0.70682015  1  0.974219  0  0.24184  0.443572  0  3.92122  0
C  C108  1  0.02464383  0.14544983  0.27150830  1  -0.049911  0  -0.229837  -0.48068  0  3.89994  0
C  C109  1  0.47535509  0.64545185  0.22849238  1  -0.050106  0  -0.229822  -0.480773  0  3.899877  0
C  C110  1  0.97535619  0.85455029  0.72849240  1  -0.049859  0  -0.22981  -0.480697  0  3.899986  0
C  C111  1  0.52464395  0.35455179  0.77150826  1  -0.049909  0  -0.229809  -0.480665  0  3.899925  0
C  C112  1  0.76649919  0.94950685  0.28199850  1  1.609731  0  0.209578  0.499151  0  4.265715  0
C  C113  1  0.73349852  0.44950959  0.21799996  1  1.610446  0  0.209662  0.499334  0  4.265576  0
C  C114  1  0.23349590  0.05048798  0.71800236  1  1.610173  0  0.209674  0.499197  0  4.265583  0
C  C115  1  0.26649952  0.55049229  0.78199836  1  1.609727  0  0.209555  0.499035  0  4.265737  0
C  C116  1  0.70160078  0.90483837  0.21884675  1  1.578943  0  0.215425  0.481321  0  4.218088  0
C  C117  1  0.79839992  0.40483976  0.28115287  1  1.579119  0  0.215446  0.481303  0  4.218141  0
C  C118  1  0.29840220  0.09515910  0.78115367  1  1.578963  0  0.215362  0.481242  0  4.218001  0
C  C119  1  0.20160108  0.59516212  0.71884698  1  1.578941  0  0.215394  0.4813  0  4.218132  0
N  N120  1  0.22194106  0.43215953  0.18523835  1  -1.281745  0  -0.369214  -0.284841  0  3.612646  0
N  N121  1  0.27805961  0.93216536  0.31475963  1  -1.282192  0  -0.369187  -0.284758  0  3.612544  0
N  N122  1  0.77806093  0.56783706  0.81476065  1  -1.282406  0  -0.369292  -0.284952  0  3.612601  0
N  N123  1  0.72194632  0.06784004  0.68523916  1  -1.281743  0  -0.369244  -0.284798  0  3.612678  0
N  N124  1  0.38746330  0.30958385  0.20875743  1  -1.201248  0  -0.378229  -0.464331  0  3.365764  0
N  N125  1  0.11253845  0.80958989  0.29124220  1  -1.202056  0  -0.378177  -0.464194  0  3.36593  0
N  N126  1  0.61253869  0.69041010  0.79124293  1  -1.20194  0  -0.378183  -0.464294  0  3.365901  0
N  N127  1  0.88746551  0.19041375  0.70875737  1  -1.201801  0  -0.37821  -0.464271  0  3.365855  0
N  N128  1  0.83601553  0.16052404  0.18617811  1  -1.167477  0  -0.391964  -0.47096  0  3.397948  0
N  N129  1  0.66398142  0.66052638  0.31382266  1  -1.167526  0  -0.392002  -0.470968  0  3.397771  0
N  N130  1  0.16398252  0.83947520  0.81382519  1  -1.167461  0  -0.391929  -0.470906  0  3.397937  0
N  N131  1  0.33601564  0.33947814  0.68617786  1  -1.167573  0  -0.39193  -0.470863  0  3.397956  0
N  N132  1  0.03300922  0.13103517  0.15879893  1  -1.271135  0  -0.366184  -0.2785  0  3.602118  0
N  N133  1  0.46698872  0.63103286  0.34120263  1  -1.271524  0  -0.366147  -0.278457  0  3.602274  0
N  N134  1  0.96698784  0.86897023  0.84120295  1  -1.271486  0  -0.366194  -0.278468  0  3.602183  0
N  N135  1  0.53300932  0.36896550  0.65879841  1  -1.271553  0  -0.366231  -0.278541  0  3.602211  0
O  O136  1  0.07000981  0.55995951  0.24943801  1  -1.171946  0  -0.375552  -0.627635  0  2.324157  0
O  O137  1  0.42999410  0.05995581  0.25055907  1  -1.171973  0  -0.3756  -0.627631  0  2.324075  0
O  O138  1  0.92999415  0.44004413  0.75056021  1  -1.171971  0  -0.375609  -0.627661  0  2.324037  0
O  O139  1  0.57000986  0.94004343  0.74943825  1  -1.171995  0  -0.375559  -0.627624  0  2.32402  0
O  O140  1  0.19283608  0.52157216  0.33968040  1  -1.220123  0  -0.400378  -0.712744  0  2.309125  0
O  O141  1  0.30716292  0.02157618  0.16031781  1  -1.220131  0  -0.400364  -0.712659  0  2.309147  0
O  O142  1  0.80716394  0.47842355  0.66031894  1  -1.220208  0  -0.400326  -0.712612  0  2.309259  0
O  O143  1  0.69283709  0.97842922  0.83968108  1  -1.220108  0  -0.400405  -0.712761  0  2.309001  0
O  O144  1  0.34595438  0.31092842  0.36779309  1  -1.220237  0  -0.412543  -0.716082  0  2.33989  0
O  O145  1  0.15405328  0.81093030  0.13220780  1  -1.220363  0  -0.412551  -0.716129  0  2.339832  0
O  O146  1  0.65404761  0.68906906  0.63220818  1  -1.2202  0  -0.412557  -0.716146  0  2.339712  0
O  O147  1  0.84595463  0.18907157  0.86779382  1  -1.220266  0  -0.412552  -0.716096  0  2.339965  0
O  O148  1  0.51772760  0.25131097  0.32125824  1  -1.15911  0  -0.356924  -0.574208  0  2.208695  0
O  O149  1  0.98227618  0.75131335  0.17874050  1  -1.158988  0  -0.356925  -0.574202  0  2.208737  0
O  O150  1  0.48227340  0.74868738  0.67874116  1  -1.159088  0  -0.356929  -0.574243  0  2.208763  0
O  O151  1  0.01773074  0.24869117  0.82125835  1  -1.1591  0  -0.356984  -0.57429  0  2.208603  0
O  O152  1  0.59216459  0.17564233  0.11684565  1  -1.184479  0  -0.349747  -0.593821  0  2.257539  0
O  O153  1  0.90783431  0.67564324  0.38315113  1  -1.184581  0  -0.349768  -0.593828  0  2.257705  0
O  O154  1  0.40783345  0.82435515  0.88315403  1  -1.184517  0  -0.349705  -0.593757  0  2.257709  0
O  O155  1  0.09216472  0.32435863  0.61684679  1  -1.184515  0  -0.349739  -0.593808  0  2.25757  0
O  O156  1  0.67595326  0.12740891  0.03185556  1  -1.218103  0  -0.417147  -0.698173  0  2.345458  0
O  O157  1  0.82404963  0.62742244  0.46814291  1  -1.217954  0  -0.417108  -0.698131  0  2.345392  0
O  O158  1  0.32405070  0.87259033  0.96814402  1  -1.217976  0  -0.417147  -0.698105  0  2.345412  0
O  O159  1  0.17595138  0.37259353  0.53185694  1  -1.218056  0  -0.417165  -0.69817  0  2.345431  0
O  O160  1  0.93117549  0.14413988  0.99685395  1  -1.204058  0  -0.403164  -0.687729  0  2.316745  0
O  O161  1  0.56881987  0.64413742  0.50314456  1  -1.20401  0  -0.403046  -0.687578  0  2.316754  0
O  O162  1  0.06882058  0.85586112  0.00314335  1  -1.203955  0  -0.403119  -0.687705  0  2.316727  0
O  O163  1  0.43117817  0.35585388  0.49685512  1  -1.204009  0  -0.403162  -0.687784  0  2.316646  0
O  O164  1  0.12150223  0.08711472  0.05118688  1  -1.200604  0  -0.415917  -0.685568  0  2.30267  0
O  O165  1  0.37849870  0.58711781  0.44881314  1  -1.20088  0  -0.415872  -0.685498  0  2.302547  0
O  O166  1  0.87849384  0.91287306  0.94881359  1  -1.200837  0  -0.415934  -0.685608  0  2.302558  0
O  O167  1  0.62150625  0.41287085  0.55118695  1  -1.200986  0  -0.415929  -0.685582  0  2.302626  0
O  O168  1  0.73228939  0.04973628  0.29926154  1  -1.171453  0  -0.382479  -0.579107  0  2.258491  0
O  O169  1  0.76769876  0.54973853  0.20073802  1  -1.171805  0  -0.382431  -0.579105  0  2.258606  0
O  O170  1  0.26769879  0.95025855  0.70073936  1  -1.171795  0  -0.38242  -0.579015  0  2.258534  0
O  O171  1  0.23228745  0.45026158  0.79926187  1  -1.171474  0  -0.382448  -0.579044  0  2.258458  0
O  O172  1  0.84959958  0.88083876  0.31095543  1  -1.180737  0  -0.378562  -0.609675  0  2.315003  0
O  O173  1  0.65039226  0.38083203  0.18903964  1  -1.180891  0  -0.378635  -0.609834  0  2.314831  0
O  O174  1  0.15039156  0.11916752  0.68904112  1  -1.180822  0  -0.378608  -0.609764  0  2.314792  0
O  O175  1  0.34960183  0.61915839  0.81095618  1  -1.180729  0  -0.378591  -0.60965  0  2.31501  0
O  O176  1  0.62718968  0.97705474  0.18629711  1  -1.187453  0  -0.337355  -0.579777  0  2.376678  0
O  O177  1  0.87280801  0.47705588  0.31369857  1  -1.187746  0  -0.337365  -0.579766  0  2.376903  0
O  O178  1  0.37281132  0.02294450  0.81370002  1  -1.187476  0  -0.337354  -0.579731  0  2.376769  0
O  O179  1  0.12719003  0.52294688  0.68629703  1  -1.187393  0  -0.337322  -0.579752  0  2.376681  0
O  O180  1  0.72489060  0.80067896  0.20384336  1  -1.170372  0  -0.358629  -0.567203  0  2.325423  0
O  O181  1  0.77510229  0.30067407  0.29615419  1  -1.170357  0  -0.358686  -0.567263  0  2.325305  0
O  O182  1  0.27510350  0.19932556  0.79615518  1  -1.170348  0  -0.358637  -0.5672  0  2.325228  0
O  O183  1  0.22489082  0.69932252  0.70384429  1  -1.170378  0  -0.358625  -0.567191  0  2.325444  0
O  O184  1  0.00223077  0.36902811  0.40789101  1  -1.245367  0  -0.617252  -0.865166  0  2.028668  0
O  O185  1  0.49776699  0.86902847  0.09210918  1  -1.245404  0  -0.617252  -0.865214  0  2.028636  0
O  O186  1  0.99776333  0.63097377  0.59210798  1  -1.245368  0  -0.617256  -0.86518  0  2.028671  0
O  O187  1  0.50223204  0.13097253  0.90789101  1  -1.245403  0  -0.617256  -0.865211  0  2.028615  0
O  O188  1  0.22258832  0.19319401  0.44186198  1  -1.234519  0  -0.604809  -0.807974  0  1.942051  0
O  O189  1  0.27741450  0.69319025  0.05813885  1  -1.234437  0  -0.604832  -0.807966  0  1.942117  0
O  O190  1  0.77741466  0.80680874  0.55813889  1  -1.234469  0  -0.604839  -0.808001  0  1.942072  0
O  O191  1  0.72258749  0.30680722  0.94186152  1  -1.234526  0  -0.604804  -0.807972  0  1.942032  0
O  O192  1  0.10640839  0.59136900  0.46611612  1  -1.260224  0  -0.640141  -0.856834  0  2.06663  0
O  O193  1  0.39358859  0.09136599  0.03388591  1  -1.260192  0  -0.64012  -0.856738  0  2.066806  0
O  O194  1  0.89358966  0.40863640  0.53388537  1  -1.260293  0  -0.64015  -0.856818  0  2.066723  0
O  O195  1  0.60640945  0.90862884  0.96611649  1  -1.260227  0  -0.640137  -0.856824  0  2.066639  0
