# generated using pymatgen
data_CoH20C16(NO3)2
_symmetry_space_group_name_H-M   'P 1'
_cell_length_a   8.65497451
_cell_length_b   9.39039440
_cell_length_c   9.88511703
_cell_angle_alpha   103.15321796
_cell_angle_beta   90.50733011
_cell_angle_gamma   90.47065990
_symmetry_Int_Tables_number   1
_chemical_formula_structural   CoH20C16(NO3)2
_chemical_formula_sum   'Co2 H40 C32 N4 O12'
_cell_volume   782.24829088
_cell_formula_units_Z   2
loop_
 _symmetry_equiv_pos_site_id
 _symmetry_equiv_pos_as_xyz
  1  'x, y, z'
loop_
 _atom_site_type_symbol
 _atom_site_label
 _atom_site_symmetry_multiplicity
 _atom_site_fract_x
 _atom_site_fract_y
 _atom_site_fract_z
 _atom_site_occupancy
 _atom_site_hse06_10hf_ddec_charge
 _atom_site_hse06_10hf_ddec_spin_density
 _atom_site_hse06_10hf_ddec_sum_bond_order
 _atom_site_hse06_10hf_magmom
 _atom_site_hse06_ddec_charge
 _atom_site_hse06_ddec_spin_density
 _atom_site_hse06_ddec_sum_bond_order
 _atom_site_hse06_magmom
 _atom_site_pbe_cm5_charge
 _atom_site_pbe_ddec_charge
 _atom_site_pbe_ddec_spin_density
 _atom_site_pbe_ddec_sum_bond_order
 _atom_site_pbe_magmom
Co  Co0  1  0.00000000  0.00000000  0.00000000  1  0.724166  -1.077523  2.784038  -0.972  0.795327  -1.070219  2.707653  -0.973  0.625626  0.687497  -1.085293  2.828715  -0.967
Co  Co1  1  0.49999937  0.49999974  0.49999898  1  0.949319  2.920644  2.343795  2.667  1.015098  2.947814  2.283955  2.73  0.658866  0.895485  2.900045  2.397899  2.612
H  H2  1  0.88945739  0.82764556  0.79071664  1  0.365693  0.00014  0.988891  0.0  0.377114  0.000206  0.97217  0.0  0.281847  0.357793  7e-05  1.000302  0.0
H  H3  1  0.38273293  0.66723924  0.70013556  1  0.372857  0.00011  0.979252  0.0  0.38477  -3e-06  0.962066  0.0  0.283576  0.364645  0.000244  0.990798  0.001
H  H4  1  0.11054251  0.17235390  0.20928334  1  0.365702  0.00014  0.988881  0.0  0.377125  0.000206  0.972156  0.0  0.281851  0.357803  7e-05  1.000291  0.0
H  H5  1  0.61726465  0.33276022  0.29986341  1  0.372885  0.00011  0.979218  0.0  0.3848  -4e-06  0.96203  0.0  0.283582  0.364676  0.000244  0.990761  0.001
H  H6  1  0.06157779  0.82667073  0.72749515  1  0.37345  -0.00042  0.970682  -0.001  0.384086  -0.000272  0.955314  0.0  0.284097  0.366205  -0.000569  0.981046  -0.001
H  H7  1  0.56080295  0.67135517  0.76171994  1  0.384101  0.000247  0.951777  0.0  0.395252  0.000108  0.935689  0.0  0.289479  0.376135  0.000389  0.963068  0.001
H  H8  1  0.93842095  0.17332653  0.27250534  1  0.373472  -0.00042  0.970661  -0.001  0.384112  -0.000272  0.955287  0.0  0.284096  0.366227  -0.000569  0.981025  -0.001
H  H9  1  0.43919464  0.32864428  0.23828003  1  0.384079  0.000247  0.951807  0.0  0.395232  0.000108  0.935715  0.0  0.289469  0.376113  0.000388  0.963098  0.001
H  H10  1  0.71567772  0.05996670  0.37239304  1  0.120434  -2.2e-05  1.040647  0.0  0.124016  -1.5e-05  1.038113  0.0  0.105007  0.117349  -7.1e-05  1.043738  0.0
H  H11  1  0.20776631  0.45688792  0.12483176  1  0.121149  2.2e-05  1.027591  0.0  0.124819  -1.1e-05  1.024515  0.0  0.105064  0.117633  0.000107  1.03207  0.0
H  H12  1  0.28432104  0.94003383  0.62760920  1  0.120416  -2.2e-05  1.040641  0.0  0.123996  -1.6e-05  1.038109  0.0  0.104988  0.117331  -7.1e-05  1.043733  0.0
H  H13  1  0.79223358  0.54311155  0.87516721  1  0.121119  2.2e-05  1.027525  0.0  0.124789  -1.1e-05  1.024448  0.0  0.105049  0.117603  0.000107  1.032005  0.0
H  H14  1  0.71814113  0.74162719  0.62514325  1  0.087327  0.000101  1.053498  0.001  0.090635  4.7e-05  1.049457  0.001  0.11689  0.08443  0.000125  1.057074  0.001
H  H15  1  0.21549338  0.77942274  0.87573582  1  0.094051  0.000204  1.048241  0.0  0.097317  0.000132  1.043706  0.0  0.12044  0.090693  0.000244  1.05298  0.0
H  H16  1  0.28185762  0.25837336  0.37485697  1  0.087307  0.000101  1.05348  0.001  0.090603  4.7e-05  1.049453  0.001  0.116878  0.084411  0.000125  1.057057  0.001
H  H17  1  0.78450884  0.22057783  0.12426442  1  0.094023  0.000204  1.048264  0.0  0.09729  0.000131  1.043724  0.0  0.120425  0.090663  0.000244  1.053002  0.0
H  H18  1  0.53992730  0.70599789  0.04046821  1  0.116693  4.5e-05  0.990944  0.0  0.11771  -4e-06  0.991665  0.0  0.101644  0.116764  7.6e-05  0.989522  0.0
H  H19  1  0.03518841  0.80066311  0.46137468  1  0.118307  0.000213  0.993911  0.0  0.119556  0.000151  0.994444  0.0  0.101036  0.117648  0.000224  0.993489  0.0
H  H20  1  0.46007148  0.29400483  0.95953453  1  0.116707  4.5e-05  0.990982  0.0  0.11773  -4e-06  0.991706  0.0  0.101652  0.11678  7.6e-05  0.98956  0.0
H  H21  1  0.96481264  0.19933637  0.53862430  1  0.118307  0.000213  0.993902  0.0  0.11955  0.000151  0.994433  0.0  0.101027  0.117648  0.000224  0.993483  0.0
H  H22  1  0.45761820  0.83726050  0.96403842  1  0.111024  0.000219  1.029853  0.0  0.112622  0.000153  1.029856  0.0  0.100964  0.109475  0.000348  1.030991  0.0
H  H23  1  0.94763846  0.66403228  0.52779676  1  0.116686  -0.00021  1.024194  0.0  0.118427  -0.000176  1.024206  0.0  0.102148  0.115196  -0.000281  1.024647  0.0
H  H24  1  0.54238172  0.16274114  0.03596307  1  0.111016  0.000219  1.029875  0.0  0.11262  0.000153  1.029876  0.0  0.100958  0.109467  0.000348  1.031019  0.0
H  H25  1  0.05236259  0.33596720  0.47220222  1  0.116692  -0.00021  1.024221  0.0  0.118428  -0.000177  1.024232  0.0  0.102156  0.115204  -0.000281  1.024669  0.0
H  H26  1  0.43809944  0.66535028  0.27468315  1  0.092027  0.000423  1.019191  0.001  0.094363  0.000302  1.017458  0.001  0.112805  0.09027  0.00058  1.020665  0.001
H  H27  1  0.93467076  0.84926327  0.22047551  1  0.102323  0.000111  1.019759  0.0  0.104811  5.8e-05  1.017259  0.0  0.117634  0.100429  0.000108  1.021821  0.0
H  H28  1  0.56190162  0.33464919  0.72531684  1  0.092  0.000422  1.019212  0.001  0.094336  0.000302  1.017478  0.001  0.112794  0.090241  0.00058  1.020689  0.001
H  H29  1  0.06532914  0.15073510  0.77952423  1  0.102315  0.000111  1.019769  0.0  0.104802  5.9e-05  1.01727  0.0  0.117631  0.100418  0.000108  1.021843  0.0
H  H30  1  0.81541802  0.97644417  0.58357673  1  0.114331  0.000225  1.017171  0.0  0.117816  0.000167  1.015788  0.0  0.104176  0.111575  0.000278  1.018615  0.0
H  H31  1  0.31005458  0.54492929  0.91780106  1  0.115622  9.6e-05  1.011068  0.0  0.119004  5.6e-05  1.009803  0.0  0.105539  0.113182  0.000122  1.011796  0.0
H  H32  1  0.18458189  0.02355638  0.41642450  1  0.11434  0.000225  1.017176  0.0  0.117828  0.000166  1.015784  0.0  0.104165  0.111581  0.000278  1.018622  0.0
H  H33  1  0.68994532  0.45507018  0.08219892  1  0.115622  9.6e-05  1.011028  0.0  0.119003  5.7e-05  1.009762  0.0  0.105545  0.113182  0.000122  1.011756  0.0
H  H34  1  0.37453698  0.91248094  0.19012078  1  0.103837  6.9e-05  0.983704  0.0  0.103725  6.4e-05  0.985722  0.0  0.098345  0.104094  7e-05  0.982039  0.0
H  H35  1  0.86493881  0.60149561  0.29910940  1  0.100941  -0.000117  0.986328  0.0  0.10094  -0.000107  0.988332  0.0  0.096831  0.101052  -0.000113  0.98481  0.0
H  H36  1  0.62546294  0.08752180  0.80987994  1  0.103838  6.9e-05  0.983725  0.0  0.103727  6.3e-05  0.985741  0.0  0.098344  0.104096  7e-05  0.982058  0.0
H  H37  1  0.13506225  0.39850496  0.70088982  1  0.100943  -0.000116  0.986302  0.0  0.100944  -0.000107  0.988306  0.0  0.096837  0.101055  -0.000113  0.984785  0.0
H  H38  1  0.53346562  0.03091728  0.19017698  1  0.09921  7.5e-05  1.001832  0.0  0.100623  5.5e-05  1.001061  0.0  0.096839  0.097796  9.5e-05  1.002916  0.0
H  H39  1  0.01900073  0.47994659  0.29885721  1  0.101877  5.8e-05  0.997396  0.0  0.103319  2.7e-05  0.996837  0.0  0.096962  0.100478  8.9e-05  0.998347  0.0
H  H40  1  0.46653546  0.96908436  0.80982552  1  0.09922  7.5e-05  1.00185  0.0  0.100635  5.5e-05  1.001077  0.0  0.096829  0.097804  9.5e-05  1.002935  0.0
H  H41  1  0.98099802  0.52005396  0.70114301  1  0.101851  5.8e-05  0.997405  0.0  0.103294  2.8e-05  0.996847  0.0  0.096949  0.100453  8.9e-05  0.998354  0.0
C  C42  1  0.69991951  0.85049222  0.97863945  1  0.641755  0.001134  4.107705  0.001  0.678118  0.00039  4.101595  0.0  0.216982  0.616849  0.001709  4.110179  0.002
C  C43  1  0.18926516  0.64683655  0.51616072  1  0.65618  0.00042  4.11664  0.0  0.69076  0.000133  4.110141  0.0  0.216722  0.632469  0.00025  4.118338  -0.001
C  C44  1  0.30007925  0.14950831  0.02136279  1  0.641729  0.001134  4.10767  0.001  0.678101  0.00039  4.10156  0.0  0.216997  0.616826  0.001709  4.110141  0.002
C  C45  1  0.81073473  0.35316292  0.48383825  1  0.656152  0.000419  4.116684  0.0  0.690729  0.000133  4.110181  0.0  0.216698  0.63244  0.00025  4.118384  -0.001
C  C46  1  0.56974723  0.86892013  0.30602608  1  0.073686  0.002728  3.972662  0.004  0.068839  0.002565  3.997388  0.004  -0.007463  0.076682  0.002958  3.957324  0.005
C  C47  1  0.06354307  0.64643983  0.18970338  1  0.07781  -0.000865  3.96812  -0.001  0.072124  -0.000854  3.992153  -0.001  -0.003656  0.081796  -0.000752  3.952926  -0.001
C  C48  1  0.43025269  0.13108151  0.69397541  1  0.073692  0.002728  3.972637  0.004  0.068845  0.002563  3.997362  0.004  -0.007432  0.07669  0.002958  3.957299  0.005
C  C49  1  0.93645797  0.35355856  0.81029535  1  0.077789  -0.000865  3.968175  -0.001  0.072104  -0.000854  3.992209  -0.001  -0.003653  0.081778  -0.000752  3.952979  -0.001
C  C50  1  0.67736911  0.95679949  0.39450176  1  -0.092071  -0.004249  3.931891  -0.005  -0.088596  -0.003414  3.949462  -0.004  -0.075335  -0.096602  -0.00573  3.923208  -0.006
C  C51  1  0.17111950  0.56045789  0.10326757  1  -0.095526  0.003472  3.937863  0.004  -0.089788  0.002163  3.953535  0.003  -0.076771  -0.102582  0.005033  3.931287  0.006
C  C52  1  0.32263080  0.04320106  0.60549948  1  -0.092027  -0.004249  3.931795  -0.005  -0.088551  -0.003412  3.949363  -0.004  -0.075321  -0.096558  -0.005731  3.923112  -0.006
C  C53  1  0.82888155  0.43954050  0.89673116  1  -0.095433  0.003473  3.937742  0.004  -0.089694  0.002165  3.953413  0.003  -0.076705  -0.102488  0.005033  3.931165  0.006
C  C54  1  0.67838148  0.78072074  0.53569231  1  0.078588  -0.003223  3.975946  -0.004  0.086218  -0.003119  3.993059  -0.004  0.037101  0.071925  -0.004082  3.966614  -0.005
C  C55  1  0.17539616  0.73894377  0.96381576  1  0.066629  0.003357  3.942606  0.004  0.077552  0.002449  3.95704  0.003  0.035833  0.057697  0.004204  3.936884  0.005
C  C56  1  0.32161843  0.21927870  0.46430969  1  0.078639  -0.003223  3.975868  -0.004  0.086275  -0.00312  3.992989  -0.004  0.037117  0.071979  -0.004083  3.966532  -0.005
C  C57  1  0.82460490  0.26105570  0.03618423  1  0.066696  0.003357  3.942492  0.004  0.077615  0.00245  3.956933  0.003  0.035871  0.057771  0.004204  3.936767  0.005
C  C58  1  0.54540459  0.82321105  0.04079847  1  -0.305792  0.000744  3.932987  0.001  -0.31274  0.000507  3.943251  0.001  -0.164869  -0.301041  0.000767  3.926119  0.001
C  C59  1  0.03667521  0.68211100  0.45469162  1  -0.310449  0.001793  3.928169  0.003  -0.316821  0.001251  3.937895  0.002  -0.166733  -0.305859  0.00234  3.921312  0.003
C  C60  1  0.45459533  0.17679058  0.95920402  1  -0.305788  0.000745  3.93294  0.001  -0.312758  0.000508  3.943232  0.001  -0.164879  -0.301043  0.000767  3.926068  0.001
C  C61  1  0.96332469  0.31788958  0.54530659  1  -0.310489  0.001794  3.928211  0.003  -0.316838  0.001251  3.937918  0.002  -0.166729  -0.3059  0.00234  3.921362  0.003
C  C62  1  0.52274591  0.73812661  0.33881126  1  0.032379  -0.003044  3.915126  -0.004  0.040152  -0.002667  3.931483  -0.004  0.03921  0.026587  -0.003263  3.90462  -0.004
C  C63  1  0.01818564  0.77761544  0.15765092  1  0.02146  0.003972  3.873675  0.005  0.032429  0.002634  3.887806  0.003  0.037844  0.013647  0.004656  3.865844  0.005
C  C64  1  0.47725401  0.26187503  0.66119022  1  0.032382  -0.003044  3.915186  -0.004  0.040157  -0.002667  3.931542  -0.004  0.039191  0.02659  -0.003263  3.904677  -0.004
C  C65  1  0.98181425  0.22238293  0.84234882  1  0.021455  0.003972  3.873761  0.005  0.032427  0.002631  3.887887  0.003  0.037831  0.013642  0.004657  3.865932  0.005
C  C66  1  0.73171554  0.91235347  0.51110305  1  -0.124238  0.002392  4.00493  0.003  -0.131375  0.002305  4.026139  0.003  -0.086638  -0.11944  0.002445  3.992479  0.004
C  C67  1  0.22702946  0.60776010  0.98911649  1  -0.124401  -0.000724  4.01532  -0.001  -0.132257  -0.000787  4.035687  -0.001  -0.086869  -0.118811  -0.000428  4.003156  -0.001
C  C68  1  0.26828666  0.08764382  0.48889544  1  -0.124277  0.002392  4.004881  0.003  -0.131411  0.002305  4.026086  0.003  -0.086613  -0.119476  0.002445  3.992435  0.004
C  C69  1  0.77297159  0.39223828  0.01088325  1  -0.124455  -0.000724  4.01526  -0.001  -0.132312  -0.000789  4.035626  -0.001  -0.086938  -0.118866  -0.000428  4.003095  -0.001
C  C70  1  0.50130810  0.91619533  0.18304107  1  -0.167731  0.000323  3.959029  0.0  -0.16735  0.000251  3.972744  0.0  -0.159268  -0.167772  0.000387  3.949905  0.0
C  C71  1  0.99135986  0.59568705  0.30894057  1  -0.166081  9.6e-05  3.959849  0.0  -0.166249  3.9e-05  3.974193  0.0  -0.158747  -0.165838  0.000181  3.95015  0.0
C  C72  1  0.49869299  0.08380740  0.81696167  1  -0.167745  0.000322  3.959012  0.0  -0.16736  0.00025  3.972732  0.0  -0.159263  -0.167786  0.000387  3.94989  0.0
C  C73  1  0.00864003  0.40431242  0.69105840  1  -0.165997  9.6e-05  3.959768  0.0  -0.166177  3.9e-05  3.974119  0.0  -0.158722  -0.165753  0.000181  3.950069  0.0
N  N74  1  0.57582060  0.69436040  0.45121106  1  -0.27019  0.028504  3.631363  0.043  -0.291955  0.024312  3.648318  0.036  -0.335571  -0.254615  0.0318  3.620177  0.048
N  N75  1  0.07206551  0.82340385  0.04638712  1  -0.199145  0.00493  3.676385  0.007  -0.225686  0.004155  3.693782  0.006  -0.343526  -0.184501  0.005613  3.666144  0.008
N  N76  1  0.42417932  0.30564123  0.54879043  1  -0.270186  0.028504  3.631295  0.043  -0.29195  0.024313  3.648246  0.036  -0.335559  -0.254612  0.031799  3.62011  0.048
N  N77  1  0.92793553  0.17659454  0.95361161  1  -0.199174  0.00493  3.676407  0.007  -0.225714  0.004156  3.693799  0.006  -0.343526  -0.184536  0.005612  3.666169  0.008
O  O78  1  0.72819917  0.77008761  0.85933422  1  -0.583636  0.000697  2.227683  0.001  -0.610645  0.000474  2.217202  0.001  -0.309898  -0.564339  0.00101  2.234233  0.002
O  O79  1  0.22215466  0.72234459  0.63828148  1  -0.59547  0.000667  2.239383  0.002  -0.622853  0.000231  2.22935  0.001  -0.31437  -0.575354  0.001083  2.244611  0.002
O  O80  1  0.27179959  0.22991292  0.14066802  1  -0.583659  0.000697  2.227693  0.001  -0.610673  0.000473  2.217215  0.001  -0.309911  -0.564362  0.00101  2.234241  0.002
O  O81  1  0.77784639  0.27765600  0.36171573  1  -0.595481  0.000667  2.239419  0.002  -0.622868  0.000231  2.229389  0.001  -0.314364  -0.575362  0.001083  2.244637  0.002
O  O82  1  0.78850182  0.95164984  0.04723176  1  -0.523669  0.000959  2.414485  0.003  -0.563217  0.001776  2.407272  0.005  -0.292652  -0.495303  2.8e-05  2.417198  0.001
O  O83  1  0.27233090  0.54511618  0.44763809  1  -0.573397  0.029489  2.312085  0.046  -0.606645  0.023432  2.303312  0.036  -0.308956  -0.546313  0.035711  2.316765  0.057
O  O84  1  0.21149809  0.04834960  0.95277025  1  -0.523625  0.00096  2.414496  0.003  -0.563173  0.001777  2.407278  0.005  -0.29264  -0.495263  2.8e-05  2.417217  0.001
O  O85  1  0.72766898  0.45488221  0.55235963  1  -0.573385  0.029489  2.312092  0.046  -0.606634  0.023432  2.303321  0.036  -0.308952  -0.546299  0.03571  2.31677  0.057
O  O86  1  0.97622587  0.89035558  0.77090192  1  -0.776877  -0.024439  2.138146  -0.037  -0.801591  -0.020165  2.104336  -0.03  -0.57898  -0.757915  -0.029339  2.160109  -0.044
O  O87  1  0.47519863  0.60738652  0.71467648  1  -0.788512  0.027718  2.15951  0.041  -0.814579  0.022204  2.124899  0.033  -0.576976  -0.765715  0.033914  2.182245  0.05
O  O88  1  0.02377286  0.10964280  0.22909579  1  -0.776894  -0.02444  2.138102  -0.037  -0.801613  -0.020164  2.104284  -0.03  -0.578982  -0.757935  -0.02934  2.160063  -0.044
O  O89  1  0.52480126  0.39261407  0.28532073  1  -0.788501  0.027719  2.159484  0.041  -0.814567  0.022206  2.124862  0.033  -0.576973  -0.765707  0.033915  2.182218  0.05
