# generated using pymatgen
data_CuH5C8(NO)2
_symmetry_space_group_name_H-M   'P 1'
_cell_length_a   7.14830626
_cell_length_b   7.67473543
_cell_length_c   12.89343572
_cell_angle_alpha   90.00001899
_cell_angle_beta   101.80483543
_cell_angle_gamma   89.99967039
_symmetry_Int_Tables_number   1
_chemical_formula_structural   CuH5C8(NO)2
_chemical_formula_sum   'Cu4 H20 C32 N8 O8'
_cell_volume   692.39101727
_cell_formula_units_Z   4
loop_
 _symmetry_equiv_pos_site_id
 _symmetry_equiv_pos_as_xyz
  1  'x, y, z'
loop_
 _atom_site_type_symbol
 _atom_site_label
 _atom_site_symmetry_multiplicity
 _atom_site_fract_x
 _atom_site_fract_y
 _atom_site_fract_z
 _atom_site_occupancy
 _atom_site_hle17_bader_spin_density
 _atom_site_hle17_ddec_charge
 _atom_site_hle17_ddec_spin_density
 _atom_site_hle17_ddec_sum_bond_order
 _atom_site_hle17_magmom
 _atom_site_hse06_10hf_bader_spin_density
 _atom_site_hse06_10hf_ddec_charge
 _atom_site_hse06_10hf_ddec_spin_density
 _atom_site_hse06_10hf_ddec_sum_bond_order
 _atom_site_hse06_10hf_magmom
 _atom_site_hse06_bader_spin_density
 _atom_site_hse06_ddec_charge
 _atom_site_hse06_ddec_spin_density
 _atom_site_hse06_ddec_sum_bond_order
 _atom_site_hse06_magmom
 _atom_site_pbe_bader_spin_density
 _atom_site_pbe_cm5_charge
 _atom_site_pbe_ddec_charge
 _atom_site_pbe_ddec_spin_density
 _atom_site_pbe_ddec_sum_bond_order
 _atom_site_pbe_magmom
Cu  Cu0  1  0.55242485  0.03138805  0.09803406  1  0  0.452871  0  1.780666  0  0  0.341192  0  2.252555  0  0  0.359352  0  2.191589  0  0  0.456839  0.331889  0  2.29217  0
Cu  Cu1  1  0.44757557  0.53139673  0.40196349  1  0  0.45277  0  1.78073  0  0  0.341087  0  2.252634  0  0  0.359218  0  2.191663  0  0  0.456854  0.331771  0  2.292346  0
Cu  Cu2  1  0.44756118  0.96859907  0.90196403  1  0  0.452922  0  1.780722  0  0  0.341257  0  2.252641  0  0  0.359365  0  2.191663  0  0  0.456883  0.331944  0  2.292325  0
Cu  Cu3  1  0.55242187  0.46860993  0.59803752  1  0  0.452806  0  1.780592  0  0  0.341153  0  2.252507  0  0  0.359303  0  2.19154  0  0  0.456845  0.33183  0  2.292254  0
H  H4  1  0.16152422  0.43526700  0.78467757  1  0  0.102613  0  0.955132  0  0  0.114989  0  1.013496  0  0  0.118412  0  1.011252  0  0  0.107592  0.112436  0  1.015344  0
H  H5  1  0.83843296  0.93527781  0.71533487  1  0  0.102634  0  0.95497  0  0  0.114984  0  1.01338  0  0  0.118388  0  1.011134  0  0  0.107578  0.112404  0  1.01525  0
H  H6  1  0.83846329  0.56473575  0.21531838  1  0  0.102657  0  0.955106  0  0  0.115011  0  1.013487  0  0  0.118432  0  1.011241  0  0  0.107588  0.112445  0  1.015361  0
H  H7  1  0.16158291  0.06474709  0.28467533  1  0  0.102581  0  0.955089  0  0  0.114928  0  1.013501  0  0  0.118346  0  1.011263  0  0  0.107545  0.112404  0  1.015312  0
H  H8  1  0.00732020  0.72580264  0.75674876  1  0  0.096178  0  0.963198  0  0  0.105372  0  1.026339  0  0  0.108217  0  1.024654  0  0  0.102741  0.103315  0  1.02763  0
H  H9  1  0.99265934  0.22580525  0.74326324  1  0  0.096015  0  0.963462  0  0  0.105281  0  1.026488  0  0  0.108113  0  1.024803  0  0  0.102738  0.103218  0  1.027779  0
H  H10  1  0.99268004  0.27420401  0.24325492  1  0  0.096158  0  0.963302  0  0  0.105359  0  1.026423  0  0  0.108198  0  1.024742  0  0  0.102767  0.103305  0  1.027723  0
H  H11  1  0.00736407  0.77421053  0.25672846  1  0  0.095942  0  0.963382  0  0  0.105202  0  1.026453  0  0  0.108034  0  1.024767  0  0  0.102739  0.103152  0  1.027746  0
H  H12  1  0.01272737  0.92523630  0.91055808  1  0  0.093419  0  0.948382  0  0  0.108777  0  1.002976  0  0  0.110758  0  1.002265  0  0  0.103391  0.10725  0  1.003796  0
H  H13  1  0.98729442  0.42521922  0.58944888  1  0  0.09341  0  0.948402  0  0  0.108761  0  1.002992  0  0  0.110741  0  1.002283  0  0  0.103391  0.107237  0  1.003816  0
H  H14  1  0.98727570  0.07476775  0.08944748  1  0  0.0934  0  0.948281  0  0  0.108754  0  1.00289  0  0  0.110735  0  1.002182  0  0  0.103395  0.107231  0  1.003711  0
H  H15  1  0.01272911  0.57478092  0.41053663  1  0  0.093388  0  0.948381  0  0  0.108738  0  1.002988  0  0  0.110719  0  1.002279  0  0  0.10334  0.107216  0  1.003817  0
H  H16  1  0.16922246  0.82723838  0.09336317  1  0  0.09579  0  0.955835  0  0  0.103192  0  1.026564  0  0  0.107845  0  1.02135  0  0  0.102871  0.099749  0  1.030571  0
H  H17  1  0.83083680  0.32722151  0.40663986  1  0  0.09569  0  0.955672  0  0  0.103074  0  1.02649  0  0  0.107724  0  1.021264  0  0  0.102808  0.099629  0  1.030514  0
H  H18  1  0.83079064  0.17275264  0.90664282  1  0  0.09584  0  0.955824  0  0  0.103283  0  1.026507  0  0  0.107925  0  1.021298  0  0  0.102869  0.099829  0  1.030531  0
H  H19  1  0.16916228  0.67276951  0.59335049  1  0  0.095644  0  0.955778  0  0  0.103131  0  1.02644  0  0  0.10777  0  1.021236  0  0  0.102819  0.09968  0  1.030466  0
H  H20  1  0.47705761  0.30226288  0.22295873  1  0  0.30759  0  0.893907  0  0  0.284637  0  0.964047  0  0  0.293978  0  0.955403  0  0  0.322859  0.277819  0  0.970625  0
H  H21  1  0.52297597  0.80226304  0.27704433  1  0  0.307702  0  0.894016  0  0  0.284688  0  0.964174  0  0  0.294032  0  0.955515  0  0  0.322896  0.277865  0  0.970751  0
H  H22  1  0.52294130  0.69772163  0.77704013  1  0  0.307657  0  0.893898  0  0  0.284686  0  0.964004  0  0  0.294024  0  0.955361  0  0  0.322923  0.277862  0  0.970587  0
H  H23  1  0.47703150  0.19773319  0.72295633  1  0  0.307658  0  0.894091  0  0  0.284666  0  0.964224  0  0  0.294009  0  0.955568  0  0  0.322903  0.277838  0  0.970804  0
C  C24  1  0.15770029  0.52116969  0.85129570  1  0  -0.064113  0  3.683164  0  0  -0.090218  0  3.93498  0  0  -0.090809  0  3.951936  0  0  -0.082593  -0.089925  0  3.923883  0
C  C25  1  0.84227867  0.02118110  0.64871546  1  0  -0.064225  0  3.683049  0  0  -0.090356  0  3.934881  0  0  -0.090915  0  3.951803  0  0  -0.082571  -0.090035  0  3.923785  0
C  C26  1  0.84229281  0.47883306  0.14870712  1  0  -0.064053  0  3.683006  0  0  -0.090194  0  3.934748  0  0  -0.090778  0  3.951697  0  0  -0.082468  -0.089893  0  3.923679  0
C  C27  1  0.15772303  0.97883598  0.35128684  1  0  -0.064028  0  3.683114  0  0  -0.090111  0  3.934996  0  0  -0.090696  0  3.951944  0  0  -0.082473  -0.089832  0  3.923899  0
C  C28  1  0.07422604  0.68450070  0.83639225  1  0  -0.028069  0  3.705575  0  0  -0.046737  0  3.965569  0  0  -0.045018  0  3.980124  0  0  -0.079402  -0.048118  0  3.956213  0
C  C29  1  0.92576662  0.18449458  0.66361666  1  0  -0.028012  0  3.705793  0  0  -0.046732  0  3.965833  0  0  -0.044993  0  3.980362  0  0  -0.079442  -0.048099  0  3.956463  0
C  C30  1  0.92577573  0.31549423  0.16360695  1  0  -0.028165  0  3.705798  0  0  -0.046813  0  3.965742  0  0  -0.045086  0  3.980291  0  0  -0.079488  -0.048201  0  3.956406  0
C  C31  1  0.07424522  0.81551860  0.33637987  1  0  -0.027924  0  3.705887  0  0  -0.046622  0  3.965903  0  0  -0.044884  0  3.980442  0  0  -0.079386  -0.048005  0  3.956566  0
C  C32  1  0.07766477  0.79646811  0.92312083  1  0  -0.065626  0  3.742171  0  0  -0.082881  0  4.00384  0  0  -0.081539  0  4.018022  0  0  -0.090147  -0.084192  0  3.994973  0
C  C33  1  0.92234895  0.29646061  0.57688672  1  0  -0.065576  0  3.741967  0  0  -0.082835  0  4.00364  0  0  -0.0815  0  4.017827  0  0  -0.090074  -0.084142  0  3.994787  0
C  C34  1  0.92233117  0.20353594  0.07688311  1  0  -0.065535  0  3.742336  0  0  -0.082806  0  4.004011  0  0  -0.081471  0  4.018205  0  0  -0.090138  -0.084118  0  3.995141  0
C  C35  1  0.07766874  0.70354474  0.42310430  1  0  -0.065463  0  3.742414  0  0  -0.082726  0  4.004099  0  0  -0.081392  0  4.018285  0  0  -0.09004  -0.084035  0  3.995247  0
C  C36  1  0.16298275  0.74289408  0.02476967  1  0  -0.078079  0  3.747346  0  0  -0.105173  0  4.010032  0  0  -0.103954  0  4.023359  0  0  -0.081907  -0.106332  0  4.00181  0
C  C37  1  0.83703666  0.24288247  0.47523713  1  0  -0.077815  0  3.747021  0  0  -0.104928  0  4.009682  0  0  -0.103692  0  4.023019  0  0  -0.08184  -0.106092  0  4.001499  0
C  C38  1  0.83701035  0.25709694  0.97523315  1  0  -0.078206  0  3.747317  0  0  -0.105329  0  4.010042  0  0  -0.104092  0  4.02337  0  0  -0.081938  -0.106485  0  4.001828  0
C  C39  1  0.16296375  0.75711767  0.52475803  1  0  -0.077849  0  3.747246  0  0  -0.105006  0  4.009918  0  0  -0.103766  0  4.023244  0  0  -0.081843  -0.106165  0  4.001734  0
C  C40  1  0.24479138  0.57627698  0.04071531  1  0  -0.064563  0  3.772082  0  0  -0.048621  0  3.99901  0  0  -0.053938  0  4.022266  0  0  -0.009781  -0.045294  0  3.983596  0
C  C41  1  0.75522600  0.07628158  0.45928427  1  0  -0.064543  0  3.77215  0  0  -0.048619  0  3.999011  0  0  -0.05394  0  4.02228  0  0  -0.009712  -0.0453  0  3.983635  0
C  C42  1  0.75520320  0.42371926  0.95928536  1  0  -0.064499  0  3.772224  0  0  -0.048669  0  3.999178  0  0  -0.053997  0  4.022443  0  0  -0.0098  -0.045331  0  3.983752  0
C  C43  1  0.24477145  0.92372117  0.54071597  1  0  -0.064536  0  3.772174  0  0  -0.048583  0  3.999107  0  0  -0.0539  0  4.022371  0  0  -0.009726  -0.04525  0  3.983715  0
C  C44  1  0.24169296  0.46386844  0.95367742  1  0  -0.036879  0  3.757412  0  0  -0.021737  0  3.984537  0  0  -0.024892  0  4.006981  0  0  -0.00665  -0.019835  0  3.969491  0
C  C45  1  0.75829432  0.96387443  0.54632852  1  0  -0.036776  0  3.757335  0  0  -0.021523  0  3.984169  0  0  -0.024681  0  4.006614  0  0  -0.006603  -0.01962  0  3.969144  0
C  C46  1  0.75829597  0.53612258  0.04631947  1  0  -0.03703  0  3.757559  0  0  -0.021702  0  3.98446  0  0  -0.024858  0  4.00691  0  0  -0.006675  -0.019801  0  3.969426  0
C  C47  1  0.24170303  0.03613353  0.45367636  1  0  -0.037015  0  3.757367  0  0  -0.021959  0  3.984523  0  0  -0.02512  0  4.006978  0  0  -0.006725  -0.020057  0  3.969518  0
C  C48  1  0.32614125  0.29072863  0.97070914  1  0  0.432349  0  3.914049  0  0  0.392339  0  4.189426  0  0  0.415828  0  4.199854  0  0  0.200752  0.376746  0  4.18184  0
C  C49  1  0.67384393  0.79074042  0.52929423  1  0  0.432072  0  3.914199  0  0  0.392113  0  4.189455  0  0  0.415605  0  4.199884  0  0  0.200651  0.376526  0  4.1819  0
C  C50  1  0.67384475  0.70926370  0.02929051  1  0  0.432436  0  3.914063  0  0  0.392354  0  4.189461  0  0  0.415842  0  4.199889  0  0  0.200848  0.376753  0  4.181895  0
C  C51  1  0.32614773  0.20927145  0.47070920  1  0  0.432294  0  3.914034  0  0  0.392407  0  4.189247  0  0  0.415896  0  4.199673  0  0  0.200775  0.376809  0  4.181712  0
C  C52  1  0.33783222  0.51801801  0.14626511  1  0  0.499033  0  3.860675  0  0  0.447248  0  4.146693  0  0  0.474201  0  4.151252  0  0  0.22663  0.429232  0  4.14298  0
C  C53  1  0.66220946  0.01799450  0.35374900  1  0  0.499294  0  3.859881  0  0  0.447422  0  4.14587  0  0  0.474341  0  4.150461  0  0  0.226561  0.429422  0  4.142141  0
C  C54  1  0.66217650  0.48198474  0.85374423  1  0  0.499098  0  3.860378  0  0  0.447357  0  4.146324  0  0  0.4743  0  4.150889  0  0  0.226684  0.429338  0  4.142601  0
C  C55  1  0.33778939  0.98200043  0.64625295  1  0  0.499179  0  3.859754  0  0  0.447333  0  4.145768  0  0  0.47425  0  4.150361  0  0  0.226557  0.429323  0  4.142041  0
N  N56  1  0.40573214  0.23934883  0.06909458  1  0  -0.328993  0  3.348449  0  0  -0.272443  0  3.661211  0  0  -0.290538  0  3.670772  0  0  -0.312441  -0.261112  0  3.654688  0
N  N57  1  0.59426868  0.73936559  0.43091155  1  0  -0.328708  0  3.348298  0  0  -0.272288  0  3.660934  0  0  -0.290387  0  3.670471  0  0  -0.312273  -0.260952  0  3.65446  0
N  N58  1  0.59425100  0.76063438  0.93090472  1  0  -0.329016  0  3.348669  0  0  -0.272544  0  3.6615  0  0  -0.29063  0  3.67103  0  0  -0.312543  -0.26121  0  3.655025  0
N  N59  1  0.40572007  0.26064367  0.56909386  1  0  -0.328957  0  3.348331  0  0  -0.272546  0  3.66103  0  0  -0.290647  0  3.670578  0  0  -0.312363  -0.261206  0  3.654585  0
N  N60  1  0.40630825  0.35328635  0.15181037  1  0  -0.254795  0  3.401945  0  0  -0.198838  0  3.641378  0  0  -0.216428  0  3.657292  0  0  -0.291001  -0.187317  0  3.631027  0
N  N61  1  0.59371662  0.85329911  0.34818777  1  0  -0.25503  0  3.40243  0  0  -0.198825  0  3.641627  0  0  -0.216379  0  3.657506  0  0  -0.291113  -0.187309  0  3.631279  0
N  N62  1  0.59368501  0.64670336  0.84818472  1  0  -0.25489  0  3.40217  0  0  -0.198809  0  3.64149  0  0  -0.21639  0  3.657387  0  0  -0.291057  -0.18729  0  3.631133  0
N  N63  1  0.40628215  0.14670754  0.65181805  1  0  -0.254801  0  3.402246  0  0  -0.198632  0  3.641445  0  0  -0.216194  0  3.657338  0  0  -0.29109  -0.18711  0  3.631088  0
O  O64  1  0.32368384  0.18934920  0.89027641  1  0  -0.57285  0  2.193254  0  0  -0.507007  0  2.488425  0  0  -0.533877  0  2.475522  0  0  -0.351379  -0.488567  0  2.496275  0
O  O65  1  0.67629451  0.68935846  0.60973079  1  0  -0.572731  0  2.193145  0  0  -0.506905  0  2.488271  0  0  -0.533778  0  2.475381  0  0  -0.35126  -0.488418  0  2.496047  0
O  O66  1  0.67630651  0.81064443  0.10972065  1  0  -0.57281  0  2.19335  0  0  -0.506942  0  2.488545  0  0  -0.533818  0  2.475657  0  0  -0.351377  -0.488502  0  2.49637  0
O  O67  1  0.32369562  0.31065471  0.39027710  1  0  -0.572799  0  2.193352  0  0  -0.506962  0  2.488456  0  0  -0.533831  0  2.475553  0  0  -0.351356  -0.488474  0  2.496213  0
O  O68  1  0.35662526  0.61264796  0.22815837  1  0  -0.585777  0  2.070264  0  0  -0.524047  0  2.333975  0  0  -0.547548  0  2.322975  0  0  -0.31846  -0.507726  0  2.340819  0
O  O69  1  0.64342944  0.11266228  0.27183015  1  0  -0.586236  0  2.06896  0  0  -0.524444  0  2.332618  0  0  -0.547927  0  2.321621  0  0  -0.318489  -0.508114  0  2.339443  0
O  O70  1  0.64339520  0.38733524  0.77183764  1  0  -0.585877  0  2.069608  0  0  -0.524226  0  2.333349  0  0  -0.547714  0  2.322344  0  0  -0.318513  -0.507901  0  2.340198  0
O  O71  1  0.35657514  0.88733786  0.72817171  1  0  -0.586238  0  2.069045  0  0  -0.524437  0  2.332687  0  0  -0.547907  0  2.321683  0  0  -0.318494  -0.508106  0  2.339523  0
