# generated using pymatgen
data_MgH16(C3O4)2
_symmetry_space_group_name_H-M   'P 1'
_cell_length_a   4.70807691
_cell_length_b   9.65889089
_cell_length_c   11.78837151
_cell_angle_alpha   90.00001467
_cell_angle_beta   99.07645133
_cell_angle_gamma   89.99998185
_symmetry_Int_Tables_number   1
_chemical_formula_structural   MgH16(C3O4)2
_chemical_formula_sum   'Mg2 H32 C12 O16'
_cell_volume   529.36152342
_cell_formula_units_Z   2
loop_
 _symmetry_equiv_pos_site_id
 _symmetry_equiv_pos_as_xyz
  1  'x, y, z'
loop_
 _atom_site_type_symbol
 _atom_site_label
 _atom_site_symmetry_multiplicity
 _atom_site_fract_x
 _atom_site_fract_y
 _atom_site_fract_z
 _atom_site_occupancy
 _atom_site_hle17_bader_spin_density
 _atom_site_hle17_ddec_charge
 _atom_site_hle17_ddec_spin_density
 _atom_site_hle17_ddec_sum_bond_order
 _atom_site_hle17_magmom
 _atom_site_hse06_10hf_bader_spin_density
 _atom_site_hse06_10hf_ddec_charge
 _atom_site_hse06_10hf_ddec_spin_density
 _atom_site_hse06_10hf_ddec_sum_bond_order
 _atom_site_hse06_10hf_magmom
 _atom_site_hse06_bader_spin_density
 _atom_site_hse06_ddec_charge
 _atom_site_hse06_ddec_spin_density
 _atom_site_hse06_ddec_sum_bond_order
 _atom_site_hse06_magmom
 _atom_site_pbe_bader_spin_density
 _atom_site_pbe_cm5_charge
 _atom_site_pbe_ddec_charge
 _atom_site_pbe_ddec_spin_density
 _atom_site_pbe_ddec_sum_bond_order
 _atom_site_pbe_magmom
Mg  Mg0  1  0.99999832  0.99999991  0.49999998  1  0  1.515494  0  1.097004  0  0  1.406739  0  1.34899  0  0  1.429714  0  1.313083  0  0  0.797538  1.390345  0  1.374479  0
Mg  Mg1  1  0.99999985  0.50000047  0.00000004  1  0  1.515482  0  1.097038  0  0  1.406738  0  1.349031  0  0  1.42971  0  1.313129  0  0  0.79753  1.39034  0  1.374519  0
H  H2  1  0.34920037  0.03014425  0.17823781  1  0  0.09944  0  0.932805  0  0  0.114907  0  0.991575  0  0  0.1171  0  0.990811  0  0  0.097879  0.113387  0  0.992065  0
H  H3  1  0.65080022  0.53014576  0.32176227  1  0  0.099435  0  0.932795  0  0  0.114916  0  0.991548  0  0  0.117109  0  0.990784  0  0  0.097891  0.113386  0  0.992049  0
H  H4  1  0.65080042  0.96985471  0.82176243  1  0  0.099437  0  0.932753  0  0  0.114907  0  0.991523  0  0  0.1171  0  0.990759  0  0  0.097876  0.113391  0  0.992011  0
H  H5  1  0.34919843  0.46985527  0.67823699  1  0  0.099431  0  0.932796  0  0  0.114902  0  0.991557  0  0  0.117095  0  0.990793  0  0  0.097882  0.113384  0  0.992046  0
H  H6  1  0.72362785  0.88315621  0.02335956  1  0  0.066434  0  0.943359  0  0  0.084955  0  1.005386  0  0  0.086079  0  1.005395  0  0  0.09145  0.083929  0  1.005765  0
H  H7  1  0.27637039  0.38315688  0.47663960  1  0  0.066398  0  0.943366  0  0  0.084915  0  1.005404  0  0  0.086038  0  1.005413  0  0  0.091434  0.083886  0  1.005781  0
H  H8  1  0.27637079  0.11684481  0.97664054  1  0  0.066426  0  0.943358  0  0  0.084943  0  1.005394  0  0  0.086067  0  1.005404  0  0  0.091446  0.083918  0  1.00577  0
H  H9  1  0.72362825  0.61684311  0.52336051  1  0  0.066424  0  0.943382  0  0  0.084942  0  1.005414  0  0  0.086066  0  1.005424  0  0  0.091442  0.083917  0  1.005789  0
H  H10  1  0.77827694  0.05569061  0.07004186  1  0  0.065361  0  0.943304  0  0  0.085589  0  1.001643  0  0  0.086357  0  1.002207  0  0  0.088454  0.084826  0  1.001565  0
H  H11  1  0.22172364  0.55569015  0.42995823  1  0  0.065352  0  0.943305  0  0  0.085578  0  1.001643  0  0  0.086346  0  1.002206  0  0  0.088458  0.084814  0  1.001566  0
H  H12  1  0.22172170  0.94430938  0.92995825  1  0  0.065361  0  0.943311  0  0  0.08561  0  1.001627  0  0  0.086378  0  1.002191  0  0  0.088451  0.084848  0  1.00155  0
H  H13  1  0.77827501  0.44430984  0.57004188  1  0  0.065372  0  0.943298  0  0  0.085602  0  1.001632  0  0  0.08637  0  1.002195  0  0  0.088463  0.084841  0  1.001553  0
H  H14  1  0.32834353  0.85366737  0.13806814  1  0  0.118738  0  0.929887  0  0  0.132302  0  0.990836  0  0  0.134955  0  0.989683  0  0  0.104548  0.130422  0  0.991719  0
H  H15  1  0.67165688  0.35366794  0.36193200  1  0  0.118728  0  0.929898  0  0  0.132291  0  0.990852  0  0  0.134944  0  0.9897  0  0  0.104548  0.13041  0  0.991735  0
H  H16  1  0.67165512  0.14633366  0.86193196  1  0  0.118751  0  0.929875  0  0  0.13232  0  0.990818  0  0  0.134974  0  0.989665  0  0  0.104555  0.130441  0  0.991702  0
H  H17  1  0.32834393  0.64633308  0.63806740  1  0  0.118723  0  0.929901  0  0  0.132284  0  0.990848  0  0  0.134939  0  0.989694  0  0  0.104546  0.130408  0  0.991725  0
H  H18  1  0.88436388  0.19705992  0.62474132  1  0  0.427798  0  0.874723  0  0  0.38988  0  0.948636  0  0  0.402183  0  0.930657  0  0  0.295807  0.381194  0  0.961329  0
H  H19  1  0.11563513  0.69705946  0.87525805  1  0  0.427831  0  0.874681  0  0  0.389916  0  0.948589  0  0  0.40222  0  0.930608  0  0  0.295816  0.38123  0  0.961281  0
H  H20  1  0.11563477  0.80293903  0.37525879  1  0  0.427815  0  0.874705  0  0  0.389897  0  0.948617  0  0  0.402201  0  0.930636  0  0  0.295807  0.381209  0  0.961313  0
H  H21  1  0.88436782  0.30293950  0.12474148  1  0  0.427822  0  0.874696  0  0  0.389897  0  0.948621  0  0  0.402201  0  0.93064  0  0  0.295796  0.381209  0  0.961316  0
H  H22  1  0.59181283  0.17978569  0.52919728  1  0  0.436952  0  0.842623  0  0  0.408528  0  0.908193  0  0  0.4184  0  0.893729  0  0  0.310412  0.40147  0  0.918586  0
H  H23  1  0.40818619  0.67978521  0.97080209  1  0  0.436973  0  0.842608  0  0  0.408551  0  0.908162  0  0  0.418425  0  0.893696  0  0  0.310427  0.401494  0  0.918552  0
H  H24  1  0.40818581  0.82021326  0.47080283  1  0  0.436981  0  0.842602  0  0  0.408558  0  0.908157  0  0  0.41843  0  0.893692  0  0  0.310431  0.401501  0  0.918548  0
H  H25  1  0.59181677  0.32021374  0.02919745  1  0  0.436971  0  0.842602  0  0  0.408544  0  0.908175  0  0  0.418417  0  0.893709  0  0  0.310414  0.401487  0  0.918566  0
H  H26  1  0.80672901  0.80685148  0.64598177  1  0  0.436329  0  0.863665  0  0  0.401459  0  0.932606  0  0  0.412591  0  0.916473  0  0  0.295241  0.393632  0  0.943928  0
H  H27  1  0.19326992  0.30685212  0.85401932  1  0  0.436335  0  0.863657  0  0  0.401449  0  0.932627  0  0  0.41258  0  0.916495  0  0  0.295243  0.393621  0  0.94395  0
H  H28  1  0.19326963  0.19314955  0.35401834  1  0  0.436361  0  0.863622  0  0  0.401487  0  0.93257  0  0  0.41262  0  0.916434  0  0  0.295246  0.393663  0  0.94389  0
H  H29  1  0.80672872  0.69314890  0.14598163  1  0  0.436295  0  0.863697  0  0  0.401412  0  0.932661  0  0  0.412545  0  0.916527  0  0  0.295222  0.393584  0  0.943987  0
H  H30  1  0.58463050  0.93335877  0.62410952  1  0  0.424096  0  0.885779  0  0  0.389067  0  0.956392  0  0  0.400333  0  0.939996  0  0  0.296917  0.381145  0  0.967907  0
H  H31  1  0.41536838  0.43335835  0.87588990  1  0  0.424104  0  0.885772  0  0  0.389085  0  0.956362  0  0  0.400351  0  0.939966  0  0  0.296929  0.381168  0  0.967868  0
H  H32  1  0.41536815  0.06664122  0.37589059  1  0  0.424087  0  0.885803  0  0  0.389058  0  0.956402  0  0  0.400326  0  0.940004  0  0  0.296907  0.381143  0  0.967907  0
H  H33  1  0.58463028  0.56664060  0.12410936  1  0  0.42411  0  0.885763  0  0  0.389092  0  0.956357  0  0  0.400357  0  0.939962  0  0  0.296928  0.381179  0  0.967858  0
C  C34  1  0.69927775  0.90623447  0.25925859  1  0  0.74022  0  3.781201  0  0  0.685269  0  4.086242  0  0  0.718982  0  4.077528  0  0  0.229068  0.662509  0  4.091308  0
C  C35  1  0.30072261  0.40623506  0.24074326  1  0  0.740262  0  3.78109  0  0  0.68529  0  4.086173  0  0  0.719  0  4.077462  0  0  0.229108  0.662524  0  4.091244  0
C  C36  1  0.30072305  0.09376552  0.74074166  1  0  0.740205  0  3.781181  0  0  0.685227  0  4.086262  0  0  0.718937  0  4.077553  0  0  0.229071  0.662461  0  4.091333  0
C  C37  1  0.69927603  0.59376493  0.75925685  1  0  0.740284  0  3.781071  0  0  0.685326  0  4.086134  0  0  0.719035  0  4.077423  0  0  0.229139  0.662559  0  4.091207  0
C  C38  1  0.47698372  0.94176340  0.15629775  1  0  -0.283355  0  3.676703  0  0  -0.323262  0  3.935414  0  0  -0.329333  0  3.943207  0  0  -0.169794  -0.31912  0  3.929893  0
C  C39  1  0.52301449  0.44176399  0.34370142  1  0  -0.283338  0  3.676632  0  0  -0.323247  0  3.935373  0  0  -0.329321  0  3.943165  0  0  -0.169782  -0.319094  0  3.929857  0
C  C40  1  0.52301277  0.05823763  0.84370222  1  0  -0.283345  0  3.676649  0  0  -0.323248  0  3.935371  0  0  -0.329322  0  3.943168  0  0  -0.169774  -0.319106  0  3.929854  0
C  C41  1  0.47698416  0.55823704  0.65629784  1  0  -0.283316  0  3.676679  0  0  -0.323199  0  3.935373  0  0  -0.329276  0  3.943172  0  0  -0.16978  -0.319059  0  3.929854  0
C  C42  1  0.61257572  0.97523409  0.04953627  1  0  -0.081982  0  3.681821  0  0  -0.123121  0  3.943404  0  0  -0.123957  0  3.958211  0  0  -0.165471  -0.122338  0  3.93352  0
C  C43  1  0.38742462  0.47523473  0.45046389  1  0  -0.081921  0  3.681782  0  0  -0.123045  0  3.943349  0  0  -0.123878  0  3.958155  0  0  -0.165469  -0.122261  0  3.933458  0
C  C44  1  0.38742293  0.02476591  0.95046384  1  0  -0.081986  0  3.681831  0  0  -0.123133  0  3.943405  0  0  -0.123967  0  3.958212  0  0  -0.16548  -0.122352  0  3.93352  0
C  C45  1  0.61257618  0.52476630  0.54953636  1  0  -0.082012  0  3.681835  0  0  -0.123149  0  3.9434  0  0  -0.123985  0  3.958207  0  0  -0.165479  -0.122372  0  3.933514  0
O  O46  1  0.88068689  0.81017063  0.25161922  1  0  -0.638745  0  1.956787  0  0  -0.569501  0  2.169069  0  0  -0.595902  0  2.158133  0  0  -0.301274  -0.551295  0  2.176055  0
O  O47  1  0.11931353  0.31017125  0.24838261  1  0  -0.638804  0  1.956799  0  0  -0.569531  0  2.169072  0  0  -0.595932  0  2.158138  0  0  -0.3013  -0.551327  0  2.176059  0
O  O48  1  0.11931175  0.18982832  0.74838089  1  0  -0.638738  0  1.956792  0  0  -0.569489  0  2.169092  0  0  -0.595884  0  2.158158  0  0  -0.30127  -0.551279  0  2.17608  0
O  O49  1  0.88068727  0.68982770  0.75161763  1  0  -0.638804  0  1.956754  0  0  -0.569554  0  2.169038  0  0  -0.595951  0  2.158103  0  0  -0.301328  -0.551344  0  2.176023  0
O  O50  1  0.69893870  0.97661420  0.35167835  1  0  -0.743686  0  2.048984  0  0  -0.669139  0  2.279722  0  0  -0.694953  0  2.267062  0  0  -0.350422  -0.651271  0  2.28789  0
O  O51  1  0.30106163  0.47661476  0.14832266  1  0  -0.74367  0  2.048871  0  0  -0.66916  0  2.279657  0  0  -0.694966  0  2.266995  0  0  -0.350452  -0.651288  0  2.287832  0
O  O52  1  0.30106209  0.02338682  0.64832189  1  0  -0.743698  0  2.048946  0  0  -0.669134  0  2.279693  0  0  -0.694945  0  2.267034  0  0  -0.350436  -0.65126  0  2.287858  0
O  O53  1  0.69893702  0.52338523  0.85167745  1  0  -0.743692  0  2.048881  0  0  -0.669192  0  2.279661  0  0  -0.694996  0  2.266998  0  0  -0.350459  -0.651317  0  2.287835  0
O  O54  1  0.80291706  0.18082513  0.54177898  1  0  -0.896314  0  1.857617  0  0  -0.838607  0  2.050526  0  0  -0.856742  0  2.016954  0  0  -0.612409  -0.825722  0  2.074208  0
O  O55  1  0.19708195  0.68082468  0.95822124  1  0  -0.896385  0  1.8576  0  0  -0.838671  0  2.050491  0  0  -0.856809  0  2.016917  0  0  -0.61243  -0.825784  0  2.074174  0
O  O56  1  0.19708159  0.81917486  0.45822028  1  0  -0.896362  0  1.85759  0  0  -0.838651  0  2.050488  0  0  -0.856785  0  2.016912  0  0  -0.61242  -0.825761  0  2.074172  0
O  O57  1  0.80292099  0.31917427  0.04177915  1  0  -0.896361  0  1.857573  0  0  -0.838648  0  2.050478  0  0  -0.856783  0  2.016902  0  0  -0.612394  -0.825757  0  2.07416  0
O  O58  1  0.73487485  0.88162404  0.58949899  1  0  -0.929015  0  1.882101  0  0  -0.871691  0  2.079558  0  0  -0.89095  0  2.045348  0  0  -0.609183  -0.857949  0  2.103565  0
O  O59  1  0.26512405  0.38162469  0.91050126  1  0  -0.929034  0  1.882115  0  0  -0.871684  0  2.079574  0  0  -0.890942  0  2.045367  0  0  -0.609185  -0.857945  0  2.103582  0
O  O60  1  0.26512379  0.11837492  0.41050196  1  0  -0.929043  0  1.882133  0  0  -0.871706  0  2.079612  0  0  -0.890966  0  2.045399  0  0  -0.609162  -0.857947  0  2.103569  0
O  O61  1  0.73487676  0.61837427  0.08949814  1  0  -0.929012  0  1.882139  0  0  -0.87167  0  2.079579  0  0  -0.890929  0  2.045373  0  0  -0.609167  -0.857925  0  2.103566  0
