# generated using pymatgen
data_UH16C26S(NO4)2
_symmetry_space_group_name_H-M   'P 1'
_cell_length_a   8.70241660
_cell_length_b   14.35530972
_cell_length_c   20.26278030
_cell_angle_alpha   94.76685634
_cell_angle_beta   90.00006717
_cell_angle_gamma   89.99995717
_symmetry_Int_Tables_number   1
_chemical_formula_structural   UH16C26S(NO4)2
_chemical_formula_sum   'U4 H64 C104 S4 N8 O32'
_cell_volume   2522.59009390
_cell_formula_units_Z   4
loop_
 _symmetry_equiv_pos_site_id
 _symmetry_equiv_pos_as_xyz
  1  'x, y, z'
loop_
 _atom_site_type_symbol
 _atom_site_label
 _atom_site_symmetry_multiplicity
 _atom_site_fract_x
 _atom_site_fract_y
 _atom_site_fract_z
 _atom_site_occupancy
 _atom_site_pbe_bader_charge
 _atom_site_pbe_bader_spin_density
 _atom_site_pbe_cm5_charge
 _atom_site_pbe_ddec_charge
 _atom_site_pbe_ddec_spin_density
 _atom_site_pbe_ddec_sum_bond_order
 _atom_site_pbe_magmom
U  U0  1  0.26671322  0.27584094  0.08961693  1  2.848596  0  2.152425  2.263858  0  4.904078  0
U  U1  1  0.76671013  0.72415481  0.41038742  1  2.848741  0  2.152426  2.263821  0  4.904731  0
U  U2  1  0.73328447  0.72416194  0.91038123  1  2.848264  0  2.152446  2.263875  0  4.904386  0
U  U3  1  0.23329675  0.27584950  0.58960540  1  2.84925  0  2.152292  2.263662  0  4.904283  0
H  H4  1  0.79805860  0.38799898  0.04507627  1  0.141198  0  0.115773  0.131876  0  0.995045  0
H  H5  1  0.29805883  0.61199888  0.45492231  1  0.141254  0  0.115769  0.13186  0  0.995093  0
H  H6  1  0.20194024  0.61200041  0.95492218  1  0.141224  0  0.115755  0.131806  0  0.995135  0
H  H7  1  0.70194806  0.38799910  0.54507753  1  0.141234  0  0.115746  0.131793  0  0.995158  0
H  H8  1  0.17574535  0.53713602  0.17805109  1  0.117011  0  0.118221  0.135717  0  1.004159  0
H  H9  1  0.67574464  0.46286538  0.32194912  1  0.116983  0  0.11821  0.135707  0  1.00418  0
H  H10  1  0.82425579  0.46286546  0.82194896  1  0.116988  0  0.118214  0.135723  0  1.004141  0
H  H11  1  0.32425421  0.53713540  0.67805039  1  0.117002  0  0.118202  0.135697  0  1.004166  0
H  H12  1  0.00874101  0.50675780  0.05575892  1  0.139339  0  0.119833  0.123652  0  1.001168  0
H  H13  1  0.50873945  0.49323948  0.44423899  1  0.139514  0  0.119844  0.123692  0  1.001171  0
H  H14  1  0.99126243  0.49324089  0.94423948  1  0.139524  0  0.119849  0.123692  0  1.001175  0
H  H15  1  0.49126399  0.50675642  0.55575924  1  0.139355  0  0.119836  0.123669  0  1.00119  0
H  H16  1  0.48693597  0.31842001  0.95538699  1  0.128872  0  0.12936  0.096626  0  0.985848  0
H  H17  1  0.98693653  0.68158009  0.54461289  1  0.128924  0  0.129361  0.096613  0  0.985837  0
H  H18  1  0.51306402  0.68158078  0.04461252  1  0.128931  0  0.129352  0.096602  0  0.985858  0
H  H19  1  0.01306346  0.31841999  0.45538757  1  0.128914  0  0.129372  0.096619  0  0.985842  0
H  H20  1  0.46961382  0.92351299  0.84479945  1  0.079909  0  0.110177  0.121985  0  1.002411  0
H  H21  1  0.96961428  0.07648711  0.65520092  1  0.080061  0  0.110175  0.12199  0  1.002401  0
H  H22  1  0.53038617  0.07648709  0.15520052  1  0.079889  0  0.110165  0.121964  0  1.002427  0
H  H23  1  0.03038456  0.92351367  0.34479909  1  0.079896  0  0.110182  0.12199  0  1.002396  0
H  H24  1  0.59777864  0.25279760  0.84834554  1  0.119538  0  0.103938  0.106609  0  1.044775  0
H  H25  1  0.09778131  0.74720195  0.65165461  1  0.119508  0  0.103919  0.106597  0  1.044782  0
H  H26  1  0.40222020  0.74720249  0.15165394  1  0.119538  0  0.103938  0.106621  0  1.044795  0
H  H27  1  0.90221983  0.25279883  0.34834589  1  0.119518  0  0.103933  0.106595  0  1.0448  0
H  H28  1  0.72936621  0.68341163  0.19054357  1  0.115243  0  0.115434  0.120925  0  0.99156  0
H  H29  1  0.22936410  0.31658346  0.30945826  1  0.115191  0  0.115448  0.120945  0  0.991529  0
H  H30  1  0.27063608  0.31658776  0.80945537  1  0.115226  0  0.115436  0.120919  0  0.991562  0
H  H31  1  0.77063244  0.68341312  0.69054445  1  0.115212  0  0.115441  0.120918  0  0.991574  0
H  H32  1  0.30056470  0.83479556  0.31202278  1  0.091203  0  0.105482  0.10281  0  1.029215  0
H  H33  1  0.80056629  0.16520439  0.18797741  1  0.091336  0  0.105486  0.102837  0  1.029195  0
H  H34  1  0.69943529  0.16520452  0.68797768  1  0.09123  0  0.105484  0.102826  0  1.029222  0
H  H35  1  0.19943485  0.83479569  0.81202157  1  0.091236  0  0.105473  0.102816  0  1.029199  0
H  H36  1  0.09264187  0.83217703  0.22536838  1  0.077875  0  0.110579  0.113726  0  1.000999  0
H  H37  1  0.59264370  0.16782370  0.27463225  1  0.077904  0  0.110565  0.113723  0  1.001045  0
H  H38  1  0.90735812  0.16782375  0.77463212  1  0.077884  0  0.110585  0.113726  0  1.001008  0
H  H39  1  0.40735859  0.83217708  0.72536776  1  0.077882  0  0.110586  0.113737  0  1.000992  0
H  H40  1  0.51901205  0.56406443  0.17952706  1  0.107197  0  0.103945  0.103821  0  1.056098  0
H  H41  1  0.01900868  0.43593144  0.32047274  1  0.107291  0  0.103986  0.103862  0  1.05605  0
H  H42  1  0.48099024  0.43593636  0.82047197  1  0.107178  0  0.103945  0.103832  0  1.056048  0
H  H43  1  0.98099016  0.56406583  0.67953002  1  0.10715  0  0.103957  0.103836  0  1.05605  0
H  H44  1  0.37605534  0.54048693  0.26508888  1  0.106022  0  0.114326  0.120541  0  0.994313  0
H  H45  1  0.87605325  0.45951510  0.23491048  1  0.106013  0  0.114301  0.120519  0  0.994319  0
H  H46  1  0.62394580  0.45951385  0.73491162  1  0.106026  0  0.114316  0.120535  0  0.994316  0
H  H47  1  0.12394559  0.54048709  0.76508862  1  0.106043  0  0.114334  0.120566  0  0.994292  0
H  H48  1  0.06178642  0.08896413  0.13531102  1  0.104167  0  0.122643  0.088422  0  1.00932  0
H  H49  1  0.56178641  0.91103801  0.36468967  1  0.104117  0  0.122637  0.088413  0  1.009316  0
H  H50  1  0.93821243  0.91103735  0.86468903  1  0.10421  0  0.122639  0.088399  0  1.009363  0
H  H51  1  0.43821243  0.08896137  0.63531124  1  0.104243  0  0.122641  0.088403  0  1.009344  0
H  H52  1  0.14008474  0.82846967  0.01795646  1  0.127082  0  0.119342  0.127914  0  0.988519  0
H  H53  1  0.64008368  0.17152964  0.48204508  1  0.126741  0  0.119335  0.127889  0  0.988533  0
H  H54  1  0.85991526  0.17153040  0.98204449  1  0.126788  0  0.119328  0.127888  0  0.988544  0
H  H55  1  0.35991516  0.82846974  0.51795484  1  0.126778  0  0.119327  0.127879  0  0.988558  0
H  H56  1  0.31587967  0.83214551  0.91946710  1  0.097644  0  0.115763  0.128021  0  0.999388  0
H  H57  1  0.81588211  0.16785395  0.58053217  1  0.097674  0  0.115774  0.128065  0  0.999317  0
H  H58  1  0.68411917  0.16785527  0.08053291  1  0.097625  0  0.115767  0.128072  0  0.999361  0
H  H59  1  0.18411673  0.83214543  0.41946775  1  0.097663  0  0.115767  0.12802  0  0.999364  0
H  H60  1  0.56724810  0.08131723  0.81474308  1  0.048332  0  0.109746  0.108025  0  0.982845  0
H  H61  1  0.06724836  0.91868233  0.68525705  1  0.048206  0  0.10973  0.10801  0  0.982884  0
H  H62  1  0.43275189  0.91868285  0.18525689  1  0.048207  0  0.109742  0.108022  0  0.982855  0
H  H63  1  0.93275279  0.08131845  0.31474296  1  0.048218  0  0.109733  0.107995  0  0.982899  0
H  H64  1  0.01590781  0.91616197  0.11498532  1  0.149543  0  0.106955  0.12515  0  1.035897  0
H  H65  1  0.51590315  0.08383879  0.38501674  1  0.149546  0  0.106976  0.125211  0  1.035888  0
H  H66  1  0.98409333  0.08383811  0.88501514  1  0.149557  0  0.106951  0.12516  0  1.035881  0
H  H67  1  0.48409569  0.91616059  0.61498367  1  0.149545  0  0.10697  0.1252  0  1.03591  0
C  C68  1  0.87799729  0.60101287  0.12280191  1  -0.216666  0  -0.009897  -0.066928  0  3.966715  0
C  C69  1  0.37799642  0.39898566  0.37719724  1  -0.216588  0  -0.009859  -0.066862  0  3.966718  0
C  C70  1  0.12200385  0.39898722  0.87719707  1  -0.216617  0  -0.009871  -0.066883  0  3.966759  0
C  C71  1  0.62200242  0.60101092  0.62280350  1  -0.216568  0  -0.009835  -0.066771  0  3.966676  0
C  C72  1  0.78369823  0.45228658  0.07703603  1  0.006748  0  -0.06551  -0.072729  0  3.888562  0
C  C73  1  0.28370190  0.54771059  0.42296348  1  0.006725  0  -0.065549  -0.072818  0  3.888582  0
C  C74  1  0.21629946  0.54771351  0.92296295  1  0.006715  0  -0.065482  -0.072583  0  3.888585  0
C  C75  1  0.71630039  0.45228599  0.57703775  1  0.006772  0  -0.065454  -0.072559  0  3.888583  0
C  C76  1  0.20146349  0.60243945  0.20736709  1  0.009983  0  -0.07123  -0.087228  0  3.930461  0
C  C77  1  0.70146393  0.39756194  0.29263313  1  0.009881  0  -0.071304  -0.087311  0  3.930529  0
C  C78  1  0.79853765  0.39756133  0.79263292  1  0.009972  0  -0.071248  -0.08726  0  3.930505  0
C  C79  1  0.29853721  0.60243954  0.70736692  1  0.009955  0  -0.071222  -0.087224  0  3.930551  0
C  C80  1  0.27078453  0.05021782  0.00138865  1  0.45099  0  0.124553  0.127475  0  3.994601  0
C  C81  1  0.77078140  0.94978214  0.49861251  1  0.450568  0  0.124576  0.127509  0  3.994555  0
C  C82  1  0.72921432  0.94978296  0.99861136  1  0.451002  0  0.124583  0.127499  0  3.994625  0
C  C83  1  0.22921630  0.05021724  0.50138791  1  0.4506  0  0.124596  0.127528  0  3.994575  0
C  C84  1  0.64588942  0.47010471  0.11164268  1  -0.050102  0  -0.006837  -0.022837  0  3.960949  0
C  C85  1  0.14589301  0.52989390  0.38835784  1  -0.050112  0  -0.006801  -0.022665  0  3.960809  0
C  C86  1  0.35410828  0.52989677  0.88835638  1  -0.050211  0  -0.006811  -0.022886  0  3.96102  0
C  C87  1  0.85410928  0.47010477  0.61164353  1  -0.050327  0  -0.006842  -0.022905  0  3.961068  0
C  C88  1  0.12690712  0.68600271  0.19610756  1  -0.23697  0  -0.012572  -0.073222  0  3.971702  0
C  C89  1  0.62690769  0.31399801  0.30389259  1  -0.236588  0  -0.012569  -0.073193  0  3.971617  0
C  C90  1  0.87309287  0.31399738  0.80389142  1  -0.236646  0  -0.012531  -0.0732  0  3.971665  0
C  C91  1  0.37309230  0.68600067  0.69610778  1  -0.236595  0  -0.012554  -0.073241  0  3.971762  0
C  C92  1  0.25212153  0.95240118  0.98594943  1  0.01477  0  0.000161  0.042261  0  3.996229  0
C  C93  1  0.75211935  0.04759971  0.51405088  1  0.015182  0  0.000104  0.042129  0  3.996543  0
C  C94  1  0.74787501  0.04760030  0.01405111  1  0.0148  0  0.000215  0.042322  0  3.996302  0
C  C95  1  0.24787950  0.95239967  0.48594954  1  0.015181  0  0.000116  0.042159  0  3.996433  0
C  C96  1  0.90135632  0.51830041  0.08275898  1  -0.027621  0  -0.06381  -0.06369  0  3.931435  0
C  C97  1  0.40135660  0.48169742  0.41724014  1  -0.027872  0  -0.063817  -0.063761  0  3.931545  0
C  C98  1  0.09864482  0.48169898  0.91723995  1  -0.027842  0  -0.06385  -0.063816  0  3.931606  0
C  C99  1  0.59864454  0.51830197  0.58275929  1  -0.027936  0  -0.063863  -0.06387  0  3.931711  0
C  C100  1  0.51727115  0.40196222  0.10552489  1  1.525062  0  0.204795  0.562071  0  4.191651  0
C  C101  1  0.01727008  0.59803505  0.39447598  1  1.525223  0  0.204832  0.562098  0  4.191698  0
C  C102  1  0.48272769  0.59803927  0.89447418  1  1.525097  0  0.204798  0.562131  0  4.191572  0
C  C103  1  0.98272991  0.40196642  0.60552654  1  1.525209  0  0.204854  0.562161  0  4.191441  0
C  C104  1  0.46944315  0.24518422  0.93861621  1  0.482289  0  0.074269  0.143355  0  3.912229  0
C  C105  1  0.96944366  0.75481518  0.56138461  1  0.482222  0  0.074288  0.14343  0  3.912188  0
C  C106  1  0.53055569  0.75481587  0.06138326  1  0.482226  0  0.074287  0.143386  0  3.912173  0
C  C107  1  0.03055633  0.24518560  0.43861540  1  0.482364  0  0.074258  0.143394  0  3.912214  0
C  C108  1  0.43057241  0.05737091  0.90126443  1  -0.034324  0  -0.000259  0.048594  0  4.002616  0
C  C109  1  0.93056934  0.94262781  0.59873633  1  -0.034347  0  -0.000215  0.048664  0  4.002644  0
C  C110  1  0.56942759  0.94262917  0.09873554  1  -0.034355  0  -0.000251  0.048613  0  4.002608  0
C  C111  1  0.06942836  0.05737227  0.40126413  1  -0.034301  0  -0.000222  0.048663  0  4.002564  0
C  C112  1  0.48930664  0.69445413  0.33676800  1  1.538714  0  0.202714  0.555288  0  4.216715  0
C  C113  1  0.98930569  0.30554645  0.16323231  1  1.53869  0  0.202649  0.555201  0  4.216665  0
C  C114  1  0.51069220  0.30554595  0.66323196  1  1.538706  0  0.202643  0.555157  0  4.216674  0
C  C115  1  0.01069315  0.69445504  0.83676675  1  1.538696  0  0.202637  0.55519  0  4.216823  0
C  C116  1  0.41121628  0.95854438  0.88760412  1  -0.043525  0  -0.083018  -0.131688  0  3.978296  0
C  C117  1  0.91121437  0.04145504  0.61239618  1  -0.043643  0  -0.08301  -0.131674  0  3.978322  0
C  C118  1  0.58878371  0.04145640  0.11239638  1  -0.043511  0  -0.083029  -0.131673  0  3.978308  0
C  C119  1  0.08878332  0.95854504  0.38760428  1  -0.043495  0  -0.083025  -0.131706  0  3.978288  0
C  C120  1  0.53290478  0.20745709  0.87850118  1  0.052584  0  -0.079721  -0.120069  0  3.968407  0
C  C121  1  0.03290501  0.79254318  0.62149948  1  0.052217  0  -0.079716  -0.120088  0  3.968426  0
C  C122  1  0.46709636  0.79254229  0.12149875  1  0.052228  0  -0.079738  -0.120119  0  3.968399  0
C  C123  1  0.96709728  0.20745830  0.37850058  1  0.052211  0  -0.079724  -0.120104  0  3.96847  0
C  C124  1  0.36491139  0.10272131  0.95967075  1  0.530944  0  0.127687  0.139183  0  3.981691  0
C  C125  1  0.86490821  0.89727882  0.54033056  1  0.530938  0  0.127697  0.139237  0  3.981584  0
C  C126  1  0.63508746  0.89727947  0.04032926  1  0.53094  0  0.127646  0.139127  0  3.981714  0
C  C127  1  0.13509178  0.10272195  0.45967044  1  0.53092  0  0.127692  0.139179  0  3.981607  0
C  C128  1  0.74304516  0.61859134  0.15915279  1  0.002927  0  -0.071981  -0.085605  0  3.968543  0
C  C129  1  0.24303962  0.38140583  0.34084917  1  0.003083  0  -0.072042  -0.085624  0  3.968489  0
C  C130  1  0.25695713  0.38140875  0.84084668  1  0.003139  0  -0.072027  -0.085609  0  3.968481  0
C  C131  1  0.75696037  0.61859144  0.65915260  1  0.003217  0  -0.072043  -0.085626  0  3.968493  0
C  C132  1  0.27123721  0.77040422  0.28249365  1  -0.046208  0  -0.074476  -0.084173  0  3.944358  0
C  C133  1  0.77123765  0.22959644  0.21750657  1  -0.046321  0  -0.074455  -0.084146  0  3.944444  0
C  C134  1  0.72876278  0.22959586  0.71750681  1  -0.046236  0  -0.074456  -0.084197  0  3.94442  0
C  C135  1  0.22876464  0.77040504  0.78249250  1  -0.045863  0  -0.074448  -0.084175  0  3.944455  0
C  C136  1  0.15637365  0.76929621  0.23466899  1  0.055012  0  -0.076385  -0.084811  0  3.983305  0
C  C137  1  0.65637422  0.23070520  0.26533121  1  0.054602  0  -0.076358  -0.084815  0  3.98333  0
C  C138  1  0.84362634  0.23070388  0.76533097  1  0.054696  0  -0.076404  -0.084797  0  3.983357  0
C  C139  1  0.34362692  0.76929628  0.73466785  1  0.054586  0  -0.07638  -0.084769  0  3.98332  0
C  C140  1  0.62658099  0.55248965  0.15293292  1  -0.021392  0  -0.075208  -0.080404  0  3.944864  0
C  C141  1  0.12657653  0.44750757  0.34706850  1  -0.021494  0  -0.075238  -0.080535  0  3.944829  0
C  C142  1  0.37342130  0.44751183  0.84706615  1  -0.02131  0  -0.0752  -0.080427  0  3.944868  0
C  C143  1  0.87342346  0.55248761  0.65293462  1  -0.02138  0  -0.075195  -0.080441  0  3.944907  0
C  C144  1  0.35384996  0.68877083  0.29182126  1  -0.038319  0  -0.007702  -0.022549  0  3.953322  0
C  C145  1  0.85384913  0.31122841  0.20817841  1  -0.038468  0  -0.007719  -0.022628  0  3.953486  0
C  C146  1  0.64615118  0.31122855  0.70817916  1  -0.038314  0  -0.007722  -0.022528  0  3.953362  0
C  C147  1  0.14615201  0.68877168  0.79182106  1  -0.038649  0  -0.007688  -0.022518  0  3.953403  0
C  C148  1  0.31499409  0.60436033  0.25585594  1  -0.008787  0  -0.068926  -0.074929  0  3.936091  0
C  C149  1  0.81499325  0.39564102  0.24414335  1  -0.008571  0  -0.068862  -0.074861  0  3.936034  0
C  C150  1  0.68500590  0.39563975  0.74414452  1  -0.008793  0  -0.068921  -0.074908  0  3.9361  0
C  C151  1  0.18500444  0.60436047  0.75585522  1  -0.008834  0  -0.068931  -0.074938  0  3.936047  0
C  C152  1  0.11541746  0.04864142  0.09361015  1  0.478291  0  0.061565  0.12007  0  3.960388  0
C  C153  1  0.61541523  0.95135860  0.40639094  1  0.478361  0  0.061595  0.120143  0  3.96028  0
C  C154  1  0.88458138  0.95136006  0.90638990  1  0.478267  0  0.061564  0.120069  0  3.960411  0
C  C155  1  0.38458246  0.04864008  0.59360944  1  0.478252  0  0.061587  0.120131  0  3.960386  0
C  C156  1  0.15825552  0.90348939  0.02815372  1  -0.007081  0  -0.053008  -0.049638  0  3.879884  0
C  C157  1  0.65825108  0.09651131  0.47184742  1  -0.006961  0  -0.053034  -0.049601  0  3.880172  0
C  C158  1  0.84174447  0.09651139  0.97184678  1  -0.006825  0  -0.053042  -0.049655  0  3.879959  0
C  C159  1  0.34174661  0.90348807  0.52815299  1  -0.006854  0  -0.052978  -0.049531  0  3.880063  0
C  C160  1  0.32705239  0.90776888  0.92887664  1  -0.017332  0  -0.076112  -0.116143  0  3.968686  0
C  C161  1  0.82705261  0.09223058  0.57112361  1  -0.017357  0  -0.076092  -0.116128  0  3.968645  0
C  C162  1  0.67294645  0.09223190  0.07112485  1  -0.017353  0  -0.076125  -0.116216  0  3.968676  0
C  C163  1  0.17294509  0.90776880  0.42887680  1  -0.017353  0  -0.076122  -0.116125  0  3.968595  0
C  C164  1  0.51544069  0.11326171  0.86018515  1  -0.07223  0  -0.062331  -0.072957  0  3.934064  0
C  C165  1  0.01543857  0.88673857  0.63981549  1  -0.071753  0  -0.062352  -0.072999  0  3.934105  0
C  C166  1  0.48456045  0.88673837  0.13981531  1  -0.071742  0  -0.062341  -0.072977  0  3.934085  0
C  C167  1  0.98456143  0.11326221  0.36018451  1  -0.071758  0  -0.062348  -0.072948  0  3.934043  0
C  C168  1  0.08990328  0.95221981  0.08211458  1  -0.048901  0  -0.086929  -0.139808  0  3.974316  0
C  C169  1  0.58989991  0.04778022  0.41788650  1  -0.048763  0  -0.086956  -0.139917  0  3.974383  0
C  C170  1  0.91009786  0.04778097  0.91788642  1  -0.048882  0  -0.086936  -0.139819  0  3.97423  0
C  C171  1  0.41009894  0.95221916  0.58211392  1  -0.048905  0  -0.086947  -0.139888  0  3.97439  0
S  S172  1  0.01405560  0.69265192  0.12334408  1  2.4725  0  0.484006  0.967994  0  5.729912  0
S  S173  1  0.51405639  0.30734605  0.37665584  1  2.472596  0  0.484012  0.968077  0  5.729836  0
S  S174  1  0.98594554  0.30734816  0.87665588  1  2.472572  0  0.483987  0.968006  0  5.729872  0
S  S175  1  0.48594360  0.69265193  0.62334400  1  2.47267  0  0.483994  0.967964  0  5.729862  0
N  N176  1  0.20212433  0.09721502  0.05442661  1  -1.224589  0  -0.347501  -0.346226  0  3.507581  0
N  N177  1  0.70212226  0.90278497  0.44557500  1  -1.224559  0  -0.347544  -0.346287  0  3.507543  0
N  N178  1  0.79787566  0.90278576  0.94557290  1  -1.224565  0  -0.347503  -0.346231  0  3.507665  0
N  N179  1  0.29787658  0.09721511  0.55442595  1  -1.224555  0  -0.34752  -0.346255  0  3.507559  0
N  N180  1  0.38867946  0.19455995  0.97850923  1  -1.217081  0  -0.34216  -0.340249  0  3.498917  0
N  N181  1  0.88867750  0.80543948  0.52149155  1  -1.217017  0  -0.342157  -0.340301  0  3.49884  0
N  N182  1  0.61132053  0.80544013  0.02149024  1  -1.217062  0  -0.342112  -0.340144  0  3.498811  0
N  N183  1  0.11132249  0.19456130  0.47850846  1  -1.217227  0  -0.342157  -0.340229  0  3.49883  0
O  O184  1  0.59661250  0.63388176  0.32952904  1  -1.14507  0  -0.334615  -0.558086  0  2.21261  0
O  O185  1  0.09661570  0.36611757  0.17047348  1  -1.145082  0  -0.334553  -0.558041  0  2.212541  0
O  O186  1  0.40338520  0.36611762  0.67047187  1  -1.145065  0  -0.334528  -0.557981  0  2.212574  0
O  O187  1  0.90338429  0.63388461  0.82952662  1  -1.145039  0  -0.334576  -0.558081  0  2.212642  0
O  O188  1  0.92892787  0.78004541  0.13061352  1  -1.302086  0  -0.308016  -0.518908  0  2.183762  0
O  O189  1  0.42893180  0.21995310  0.36938615  1  -1.302168  0  -0.307992  -0.518929  0  2.183857  0
O  O190  1  0.07107097  0.21995468  0.86938644  1  -1.302141  0  -0.307991  -0.518884  0  2.183798  0
O  O191  1  0.57107164  0.78004419  0.63061316  1  -1.302163  0  -0.307982  -0.51889  0  2.183797  0
O  O192  1  0.11885516  0.67420653  0.06797717  1  -1.294489  0  -0.302098  -0.508451  0  2.155042  0
O  O193  1  0.61885723  0.32579280  0.43202289  1  -1.294499  0  -0.302116  -0.508509  0  2.154979  0
O  O194  1  0.88114483  0.32579425  0.93202284  1  -1.294479  0  -0.302107  -0.508492  0  2.155037  0
O  O195  1  0.38114391  0.67420449  0.56797642  1  -1.294514  0  -0.302121  -0.50847  0  2.154975  0
O  O196  1  0.50220768  0.76381850  0.38065502  1  -1.149718  0  -0.349206  -0.588275  0  2.261791  0
O  O197  1  0.00220860  0.23617946  0.11934736  1  -1.149657  0  -0.349231  -0.588246  0  2.261798  0
O  O198  1  0.49779117  0.23617948  0.61934629  1  -1.149655  0  -0.349218  -0.588262  0  2.261828  0
O  O199  1  0.99779139  0.76382202  0.88065171  1  -1.149701  0  -0.349222  -0.58826  0  2.261831  0
O  O200  1  0.38969283  0.42051409  0.13518057  1  -1.137074  0  -0.342148  -0.555139  0  2.207347  0
O  O201  1  0.88968864  0.57948232  0.36482191  1  -1.1371  0  -0.342127  -0.555147  0  2.207443  0
O  O202  1  0.61030831  0.57948740  0.86481800  1  -1.137076  0  -0.342144  -0.55517  0  2.207264  0
O  O203  1  0.11031020  0.42051565  0.63518188  1  -1.13717  0  -0.34216  -0.55518  0  2.20734  0
O  O204  1  0.34550411  0.21548332  0.15699332  1  -0.87451  0  -0.772921  -0.699414  0  1.851742  0
O  O205  1  0.84549731  0.78451310  0.34301160  1  -0.874734  0  -0.772862  -0.699334  0  1.852021  0
O  O206  1  0.65449588  0.78451747  0.84300619  1  -0.8743  0  -0.772917  -0.69935  0  1.851995  0
O  O207  1  0.15448429  0.21548417  0.65699115  1  -0.87504  0  -0.772641  -0.699351  0  1.850969  0
O  O208  1  0.53236926  0.32439283  0.06987033  1  -1.150895  0  -0.345788  -0.584379  0  2.255756  0
O  O209  1  0.03236934  0.67560443  0.43013104  1  -1.150934  0  -0.345826  -0.584398  0  2.25574  0
O  O210  1  0.46762958  0.67560795  0.93012919  1  -1.150913  0  -0.345799  -0.584382  0  2.255771  0
O  O211  1  0.96763755  0.32439845  0.56986910  1  -1.150907  0  -0.345836  -0.584362  0  2.255542  0
O  O212  1  0.18436011  0.34039771  0.02558754  1  -0.854729  0  -0.763302  -0.677398  0  1.910287  0
O  O213  1  0.68436302  0.65960088  0.47441596  1  -0.854594  0  -0.763373  -0.677454  0  1.910632  0
O  O214  1  0.81563873  0.65960378  0.97441103  1  -0.854608  0  -0.763317  -0.677481  0  1.910293  0
O  O215  1  0.31563812  0.34040060  0.52558459  1  -0.854788  0  -0.763498  -0.677396  0  1.911079  0
