# generated using pymatgen
data_CdH4C2(N2Cl)2
_symmetry_space_group_name_H-M   'P 1'
_cell_length_a   6.85173176
_cell_length_b   9.00574965
_cell_length_c   10.69901066
_cell_angle_alpha   90.00017457
_cell_angle_beta   98.85551586
_cell_angle_gamma   90.00071093
_symmetry_Int_Tables_number   1
_chemical_formula_structural   CdH4C2(N2Cl)2
_chemical_formula_sum   'Cd4 H16 C8 N16 Cl8'
_cell_volume   652.31266787
_cell_formula_units_Z   4
loop_
 _symmetry_equiv_pos_site_id
 _symmetry_equiv_pos_as_xyz
  1  'x, y, z'
loop_
 _atom_site_type_symbol
 _atom_site_label
 _atom_site_symmetry_multiplicity
 _atom_site_fract_x
 _atom_site_fract_y
 _atom_site_fract_z
 _atom_site_occupancy
 _atom_site_hle17_bader_spin_density
 _atom_site_hle17_ddec_charge
 _atom_site_hle17_ddec_spin_density
 _atom_site_hle17_ddec_sum_bond_order
 _atom_site_hle17_magmom
 _atom_site_hse06_10hf_bader_spin_density
 _atom_site_hse06_10hf_ddec_charge
 _atom_site_hse06_10hf_ddec_spin_density
 _atom_site_hse06_10hf_ddec_sum_bond_order
 _atom_site_hse06_10hf_magmom
 _atom_site_hse06_bader_spin_density
 _atom_site_hse06_ddec_charge
 _atom_site_hse06_ddec_spin_density
 _atom_site_hse06_ddec_sum_bond_order
 _atom_site_hse06_magmom
 _atom_site_pbe_bader_spin_density
 _atom_site_pbe_cm5_charge
 _atom_site_pbe_ddec_charge
 _atom_site_pbe_ddec_spin_density
 _atom_site_pbe_ddec_sum_bond_order
 _atom_site_pbe_magmom
Cd  Cd0  1  0.74711043  0.09465613  0.47332361  1  0  1.024275  0  1.918221  0  0  0.867941  0  2.378102  0  0  0.913743  0  2.33647  0  0  0.611618  0.835492  0  2.406585  0
Cd  Cd1  1  0.75289377  0.59465593  0.02667807  1  0  1.024255  0  1.918142  0  0  0.867936  0  2.378006  0  0  0.913742  0  2.336369  0  0  0.611608  0.835488  0  2.406489  0
Cd  Cd2  1  0.25288760  0.90534488  0.52667545  1  0  1.024323  0  1.918117  0  0  0.867999  0  2.377987  0  0  0.913802  0  2.336353  0  0  0.611616  0.835548  0  2.406471  0
Cd  Cd3  1  0.24710873  0.40534286  0.97331958  1  0  1.024235  0  1.918148  0  0  0.867899  0  2.378011  0  0  0.913705  0  2.336376  0  0  0.611587  0.835448  0  2.406498  0
H  H4  1  0.66381268  0.39379445  0.37137590  1  0  0.351036  0  0.906989  0  0  0.329149  0  0.975867  0  0  0.336974  0  0.969082  0  0  0.299443  0.323518  0  0.980919  0
H  H5  1  0.83618199  0.89379096  0.12862179  1  0  0.351169  0  0.906831  0  0  0.329209  0  0.975793  0  0  0.337033  0  0.969012  0  0  0.29945  0.323582  0  0.980837  0
H  H6  1  0.33618383  0.60620545  0.62862580  1  0  0.351142  0  0.906833  0  0  0.329186  0  0.975798  0  0  0.337006  0  0.969027  0  0  0.299456  0.323558  0  0.980844  0
H  H7  1  0.16382193  0.10620672  0.87137975  1  0  0.351123  0  0.906828  0  0  0.329163  0  0.975816  0  0  0.336984  0  0.969042  0  0  0.299438  0.323536  0  0.980862  0
H  H8  1  0.63553578  0.58389514  0.39722542  1  0  0.346352  0  0.894617  0  0  0.326026  0  0.95975  0  0  0.333478  0  0.953916  0  0  0.29004  0.320702  0  0.964013  0
H  H9  1  0.86445649  0.08388734  0.10276939  1  0  0.346286  0  0.89478  0  0  0.326062  0  0.959792  0  0  0.333513  0  0.95396  0  0  0.290062  0.320738  0  0.964068  0
H  H10  1  0.36445489  0.41610920  0.60277100  1  0  0.346294  0  0.894705  0  0  0.326001  0  0.959783  0  0  0.333453  0  0.953951  0  0  0.290063  0.320682  0  0.964044  0
H  H11  1  0.13554445  0.91611256  0.89723278  1  0  0.346259  0  0.894832  0  0  0.326039  0  0.959829  0  0  0.33349  0  0.953994  0  0  0.290059  0.320718  0  0.964097  0
H  H12  1  0.77148262  0.69257780  0.58613290  1  0  0.343655  0  0.894727  0  0  0.323305  0  0.962418  0  0  0.330798  0  0.956357  0  0  0.292108  0.317953  0  0.96686  0
H  H13  1  0.72851421  0.19256540  0.91386911  1  0  0.3436  0  0.894757  0  0  0.323254  0  0.962438  0  0  0.330747  0  0.956385  0  0  0.292169  0.317903  0  0.966881  0
H  H14  1  0.22851097  0.30743209  0.41386663  1  0  0.343576  0  0.89479  0  0  0.323235  0  0.962466  0  0  0.330727  0  0.956415  0  0  0.292155  0.317883  0  0.966906  0
H  H15  1  0.27148676  0.80743228  0.08613119  1  0  0.343588  0  0.894774  0  0  0.323242  0  0.962457  0  0  0.330734  0  0.956404  0  0  0.29215  0.317889  0  0.9669  0
H  H16  1  0.89771974  0.58801320  0.70894675  1  0  0.339968  0  0.916552  0  0  0.318738  0  0.985751  0  0  0.3262  0  0.979748  0  0  0.283468  0.313379  0  0.990237  0
H  H17  1  0.60228119  0.08801027  0.79105543  1  0  0.339972  0  0.916573  0  0  0.318742  0  0.985758  0  0  0.326208  0  0.979752  0  0  0.283488  0.313384  0  0.990245  0
H  H18  1  0.10227823  0.41198892  0.29105698  1  0  0.340018  0  0.916533  0  0  0.318728  0  0.985798  0  0  0.326209  0  0.979777  0  0  0.283466  0.313372  0  0.990281  0
H  H19  1  0.39772420  0.91198519  0.20894627  1  0  0.339976  0  0.916531  0  0  0.318733  0  0.985735  0  0  0.326207  0  0.97972  0  0  0.283476  0.313375  0  0.990218  0
C  C20  1  0.97390520  0.31993257  0.69327746  1  0  0.55687  0  3.946469  0  0  0.508982  0  4.234776  0  0  0.537155  0  4.244632  0  0  0.302683  0.489586  0  4.228074  0
C  C21  1  0.52608202  0.81993124  0.80672386  1  0  0.556743  0  3.945994  0  0  0.508888  0  4.2343  0  0  0.537066  0  4.244157  0  0  0.302663  0.489486  0  4.227592  0
C  C22  1  0.02608834  0.68007066  0.30672581  1  0  0.556773  0  3.946479  0  0  0.508899  0  4.23479  0  0  0.537078  0  4.244642  0  0  0.302657  0.489497  0  4.228079  0
C  C23  1  0.47393220  0.18007310  0.19328062  1  0  0.556845  0  3.945882  0  0  0.50898  0  4.23419  0  0  0.537156  0  4.244045  0  0  0.302658  0.489574  0  4.227477  0
C  C24  1  0.79405966  0.47173226  0.54519481  1  0  0.766635  0  3.832507  0  0  0.704732  0  4.115902  0  0  0.736451  0  4.116826  0  0  0.364187  0.683088  0  4.114724  0
C  C25  1  0.70593468  0.97173204  0.95480389  1  0  0.766706  0  3.83251  0  0  0.704776  0  4.115941  0  0  0.736499  0  4.116858  0  0  0.364201  0.683128  0  4.114771  0
C  C26  1  0.20593535  0.52826431  0.45480861  1  0  0.766678  0  3.832442  0  0  0.704763  0  4.115849  0  0  0.736486  0  4.116765  0  0  0.364192  0.683117  0  4.114673  0
C  C27  1  0.29407222  0.02826564  0.04519609  1  0  0.766761  0  3.832574  0  0  0.704841  0  4.115987  0  0  0.736566  0  4.1169  0  0  0.364225  0.683185  0  4.114825  0
N  N28  1  0.86740032  0.33530649  0.58303034  1  0  -0.602028  0  3.181391  0  0  -0.526527  0  3.452453  0  0  -0.555257  0  3.45596  0  0  -0.352716  -0.5064  0  3.449336  0
N  N29  1  0.63259016  0.83530101  0.91696855  1  0  -0.602018  0  3.181232  0  0  -0.526568  0  3.452341  0  0  -0.555291  0  3.455837  0  0  -0.352765  -0.506438  0  3.449224  0
N  N30  1  0.13259175  0.66469563  0.41697183  1  0  -0.601966  0  3.181323  0  0  -0.526501  0  3.452435  0  0  -0.555224  0  3.455931  0  0  -0.352709  -0.506365  0  3.449305  0
N  N31  1  0.36741970  0.16469445  0.08303080  1  0  -0.602213  0  3.181146  0  0  -0.526728  0  3.452222  0  0  -0.555452  0  3.455715  0  0  -0.352783  -0.506582  0  3.449093  0
N  N32  1  0.07296617  0.29604043  0.79161799  1  0  -0.622753  0  2.845072  0  0  -0.567965  0  3.126293  0  0  -0.591265  0  3.129945  0  0  -0.395634  -0.552177  0  3.124283  0
N  N33  1  0.42701207  0.79603808  0.70837114  1  0  -0.622726  0  2.844555  0  0  -0.567979  0  3.125835  0  0  -0.591284  0  3.129491  0  0  -0.395651  -0.552184  0  3.123819  0
N  N34  1  0.92702451  0.70395836  0.20837843  1  0  -0.622733  0  2.844943  0  0  -0.567979  0  3.126219  0  0  -0.591283  0  3.12987  0  0  -0.395649  -0.552189  0  3.124203  0
N  N35  1  0.57299930  0.20396626  0.29162650  1  0  -0.622615  0  2.84468  0  0  -0.567881  0  3.125951  0  0  -0.591184  0  3.129605  0  0  -0.3956  -0.552086  0  3.123934  0
N  N36  1  0.69583423  0.48451786  0.42811748  1  0  -0.692825  0  3.07903  0  0  -0.649678  0  3.31562  0  0  -0.671233  0  3.310439  0  0  -0.569417  -0.634748  0  3.319316  0
N  N37  1  0.80416202  0.98451164  0.07187967  1  0  -0.69287  0  3.079228  0  0  -0.649713  0  3.315672  0  0  -0.671269  0  3.310486  0  0  -0.569361  -0.63478  0  3.319376  0
N  N38  1  0.30416079  0.51548426  0.57188501  1  0  -0.692869  0  3.079036  0  0  -0.649644  0  3.315598  0  0  -0.671201  0  3.31041  0  0  -0.569418  -0.634719  0  3.319303  0
N  N39  1  0.19584191  0.01548604  0.92812094  1  0  -0.692812  0  3.079247  0  0  -0.649683  0  3.315707  0  0  -0.671241  0  3.310517  0  0  -0.569388  -0.634752  0  3.319417  0
N  N40  1  0.81919273  0.59090749  0.61965813  1  0  -0.696073  0  3.104018  0  0  -0.652671  0  3.336486  0  0  -0.67401  0  3.331622  0  0  -0.567399  -0.638249  0  3.340206  0
N  N41  1  0.68079941  0.09090451  0.88034127  1  0  -0.69602  0  3.104017  0  0  -0.652613  0  3.3365  0  0  -0.673963  0  3.331627  0  0  -0.567476  -0.638188  0  3.340223  0
N  N42  1  0.18080084  0.40909352  0.38034326  1  0  -0.696017  0  3.104003  0  0  -0.652564  0  3.336548  0  0  -0.673932  0  3.331649  0  0  -0.567417  -0.638145  0  3.340267  0
N  N43  1  0.31920454  0.90909428  0.11965747  1  0  -0.696026  0  3.103994  0  0  -0.652605  0  3.336479  0  0  -0.673965  0  3.331589  0  0  -0.567468  -0.638179  0  3.340203  0
Cl  Cl44  1  0.04354681  0.05786609  0.34884919  1  0  -0.549332  0  1.060212  0  0  -0.481304  0  1.355624  0  0  -0.502283  0  1.336862  0  0  -0.286858  -0.46598  0  1.368328  0
Cl  Cl45  1  0.45644959  0.55787048  0.15114507  1  0  -0.549301  0  1.060202  0  0  -0.481272  0  1.355586  0  0  -0.502255  0  1.336833  0  0  -0.28686  -0.465947  0  1.368292  0
Cl  Cl46  1  0.95644684  0.94213270  0.65114567  1  0  -0.549333  0  1.060228  0  0  -0.48129  0  1.355616  0  0  -0.502281  0  1.336875  0  0  -0.286847  -0.465965  0  1.368321  0
Cl  Cl47  1  0.54355288  0.44212720  0.84885445  1  0  -0.549292  0  1.060187  0  0  -0.481266  0  1.355579  0  0  -0.502254  0  1.336832  0  0  -0.286852  -0.465939  0  1.368285  0
Cl  Cl48  1  0.55353433  0.84280714  0.40510810  1  0  -0.565855  0  1.057037  0  0  -0.500764  0  1.338829  0  0  -0.520789  0  1.320397  0  0  -0.271536  -0.486212  0  1.351646  0
Cl  Cl49  1  0.94646842  0.34280231  0.09488283  1  0  -0.565823  0  1.057014  0  0  -0.500743  0  1.338839  0  0  -0.520766  0  1.320403  0  0  -0.271525  -0.486186  0  1.351658  0
Cl  Cl50  1  0.44646671  0.15719276  0.59488753  1  0  -0.565804  0  1.056977  0  0  -0.500754  0  1.338827  0  0  -0.520753  0  1.320348  0  0  -0.271528  -0.486201  0  1.351644  0
Cl  Cl51  1  0.05353700  0.65719648  0.90511700  1  0  -0.565807  0  1.057002  0  0  -0.500753  0  1.338843  0  0  -0.520774  0  1.320401  0  0  -0.271528  -0.486197  0  1.351661  0
