# generated using pymatgen
data_Zn4H12C38O17
_symmetry_space_group_name_H-M   'P 1'
_cell_length_a   20.95942232
_cell_length_b   20.96049626
_cell_length_c   20.96145340
_cell_angle_alpha   103.31596693
_cell_angle_beta   112.53921749
_cell_angle_gamma   112.52144704
_symmetry_Int_Tables_number   1
_chemical_formula_structural   Zn4H12C38O17
_chemical_formula_sum   'Zn8 H24 C76 O34'
_cell_volume   7047.44524906
_cell_formula_units_Z   2
loop_
 _symmetry_equiv_pos_site_id
 _symmetry_equiv_pos_as_xyz
  1  'x, y, z'
loop_
 _atom_site_type_symbol
 _atom_site_label
 _atom_site_symmetry_multiplicity
 _atom_site_fract_x
 _atom_site_fract_y
 _atom_site_fract_z
 _atom_site_occupancy
 _atom_site_pbe_bader_charge
 _atom_site_pbe_bader_spin_density
 _atom_site_pbe_cm5_charge
 _atom_site_pbe_ddec_charge
 _atom_site_pbe_ddec_spin_density
 _atom_site_pbe_ddec_sum_bond_order
 _atom_site_pbe_magmom
Zn  Zn0  1  0.56985294  0.27513264  0.70684598  1  1.322242  0  0.681356  0.972921  0  2.350713  0
Zn  Zn1  1  0.56881365  0.86283564  0.29410541  1  1.313763  0  0.675717  0.964724  0  2.366245  0
Zn  Zn2  1  0.56883209  0.29411453  0.86284091  1  1.313877  0  0.675782  0.964907  0  2.365953  0
Zn  Zn3  1  0.43118061  0.70589575  0.13716341  1  1.313908  0  0.675815  0.964943  0  2.365928  0
Zn  Zn4  1  0.43119499  0.13717293  0.70589887  1  1.313713  0  0.675759  0.96477  0  2.366208  0
Zn  Zn5  1  0.43015635  0.72487707  0.29315403  1  1.322361  0  0.681301  0.972822  0  2.351  0
Zn  Zn6  1  0.43014517  0.29315289  0.72484206  1  1.32232  0  0.681427  0.972998  0  2.350691  0
Zn  Zn7  1  0.56986402  0.70685102  0.27515040  1  1.322341  0  0.681449  0.972955  0  2.35053  0
H  H8  1  0.43871509  0.53352322  0.66906239  1  0.121126  0  0.111328  0.114583  0  0.993749  0
H  H9  1  0.43018044  0.45147418  0.24025789  1  0.066881  0  0.102906  0.099593  0  0.991111  0
H  H10  1  0.42958070  0.23997572  0.45145241  1  0.062649  0  0.102898  0.099775  0  0.991604  0
H  H11  1  0.57046514  0.76005223  0.54854817  1  0.06188  0  0.102866  0.099949  0  0.991525  0
H  H12  1  0.56964217  0.54852296  0.75964483  1  0.058815  0  0.10278  0.099226  0  0.99142  0
H  H13  1  0.58976521  0.53404195  0.87897959  1  0.042442  0  0.103019  0.100909  0  0.990595  0
H  H14  1  0.41020140  0.46609712  0.12100699  1  0.040493  0  0.103119  0.101206  0  0.990432  0
H  H15  1  0.40990937  0.12083940  0.46622394  1  0.042176  0  0.103653  0.102251  0  0.989956  0
H  H16  1  0.56093710  0.46614062  0.33073492  1  0.11993  0  0.111098  0.11413  0  0.993909  0
H  H17  1  0.59011340  0.87918525  0.53378466  1  0.041442  0  0.103608  0.102299  0  0.990114  0
H  H18  1  0.35278255  0.49400363  0.82057175  1  0.086538  0  0.109676  0.118591  0  0.995578  0
H  H19  1  0.64703940  0.50571680  0.17935157  1  0.091269  0  0.109677  0.118789  0  0.995771  0
H  H20  1  0.64655113  0.17921089  0.50522232  1  0.091137  0  0.109776  0.118805  0  0.996518  0
H  H21  1  0.35347110  0.82077577  0.49480276  1  0.091079  0  0.109879  0.118949  0  0.996471  0
H  H22  1  0.56010200  0.33039686  0.46573260  1  0.120823  0  0.111128  0.114303  0  0.994401  0
H  H23  1  0.46692181  0.59530529  0.97151240  1  0.092246  0  0.112377  0.122805  0  0.989045  0
H  H24  1  0.53304484  0.40466309  0.02847517  1  0.092246  0  0.112462  0.122882  0  0.988947  0
H  H25  1  0.53281095  0.02838818  0.40453546  1  0.092531  0  0.112492  0.123019  0  0.98929  0
H  H26  1  0.46719005  0.97161410  0.59546921  1  0.092336  0  0.112477  0.122995  0  0.989358  0
H  H27  1  0.43995786  0.66961548  0.53427941  1  0.121095  0  0.111148  0.114214  0  0.994404  0
H  H28  1  0.21107295  0.48767528  0.66766557  1  0.634995  0  0.344944  0.382018  0  0.855531  0
H  H29  1  0.78850630  0.51163484  0.33211371  1  0.622469  0  0.344916  0.38197  0  0.855717  0
H  H30  1  0.78754203  0.33183271  0.51056494  1  0.608123  0  0.345479  0.382563  0  0.854947  0
H  H31  1  0.21250029  0.66814171  0.48945605  1  0.606621  0  0.345355  0.38231  0  0.855259  0
C  C32  1  0.49999750  0.14047878  0.85952506  1  1.659655  0  0.234949  0.663215  0  4.256595  0
C  C33  1  0.47794777  0.46365915  0.22718741  1  -0.012886  0  -0.091145  -0.080652  0  4.038446  0
C  C34  1  0.49779077  0.60977422  0.11017976  1  1.577461  0  0.231063  0.609851  0  4.163247  0
C  C35  1  0.49777581  0.11017156  0.60976925  1  1.578358  0  0.231036  0.610054  0  4.1632  0
C  C36  1  0.50223394  0.88983528  0.39023696  1  1.578316  0  0.231047  0.609976  0  4.163164  0
C  C37  1  0.50220364  0.39021710  0.88981560  1  1.577793  0  0.230929  0.609598  0  4.163709  0
C  C38  1  0.28038273  0.13999454  0.64013763  1  1.718416  0  0.234851  0.662336  0  4.258446  0
C  C39  1  0.71962239  0.86000770  0.35986672  1  1.718406  0  0.234978  0.662403  0  4.258011  0
C  C40  1  0.71962514  0.35985688  0.86000685  1  1.718153  0  0.234988  0.66237  0  4.25788  0
C  C41  1  0.28038408  0.64015455  0.13999161  1  1.718051  0  0.234837  0.662203  0  4.258849  0
C  C42  1  0.47735801  0.22693333  0.46351679  1  0.007464  0  -0.091141  -0.080809  0  4.039143  0
C  C43  1  0.80688609  0.40365928  0.90381211  1  -0.248296  0  -0.002183  -0.128039  0  3.835108  0
C  C44  1  0.19313380  0.59636019  0.09619468  1  -0.247886  0  -0.002123  -0.12797  0  3.834275  0
C  C45  1  0.19313159  0.09620425  0.59634653  1  -0.24825  0  -0.002004  -0.127978  0  3.834712  0
C  C46  1  0.80688658  0.90380662  0.40366861  1  -0.248044  0  -0.002101  -0.127995  0  3.835331  0
C  C47  1  0.52268810  0.77308773  0.53649140  1  0.007067  0  -0.09141  -0.081308  0  4.038981  0
C  C48  1  0.88127514  0.44078118  0.94087139  1  0.157701  0  -0.003125  0.032056  0  4.248436  0
C  C49  1  0.11872186  0.55922686  0.05912588  1  0.157765  0  -0.003168  0.031945  0  4.247903  0
C  C50  1  0.11872188  0.05913123  0.55921974  1  0.157968  0  -0.003206  0.031925  0  4.248494  0
C  C51  1  0.88127512  0.94087223  0.44078843  1  0.157603  0  -0.003292  0.031782  0  4.249059  0
C  C52  1  0.96259445  0.48134285  0.98137281  1  -0.170481  0  0.005877  0.003739  0  4.181162  0
C  C53  1  0.52186500  0.53625437  0.77270166  1  -0.003261  0  -0.09118  -0.079665  0  4.038389  0
C  C54  1  0.03742125  0.51867376  0.01863410  1  0.113669  0  0.005725  0.003544  0  4.182104  0
C  C55  1  0.03741998  0.01863675  0.51867155  1  0.113799  0  0.005699  0.003476  0  4.181996  0
C  C56  1  0.96259193  0.98137588  0.48134540  1  -0.170564  0  0.006045  0.004082  0  4.181165  0
C  C57  1  0.49999933  0.40313143  0.59687031  1  0.179731  0  0.002073  -0.125809  0  3.83273  0
C  C58  1  0.50000122  0.59687368  0.40312243  1  0.179445  0  0.002125  -0.125564  0  3.832717  0
C  C59  1  0.49999857  0.44044593  0.55955380  1  -0.189816  0  0.001352  0.036159  0  4.230944  0
C  C60  1  0.49999695  0.55956035  0.44043536  1  -0.189742  0  0.001267  0.035892  0  4.231119  0
C  C61  1  0.31241141  0.50499366  0.68439470  1  1.492658  0  0.225597  0.563641  0  4.137373  0
C  C62  1  0.68724087  0.49451915  0.31541903  1  1.494954  0  0.22524  0.563426  0  4.13782  0
C  C63  1  0.68636384  0.31513480  0.49377141  1  1.475233  0  0.225172  0.565017  0  4.135025  0
C  C64  1  0.31369693  0.68486727  0.50627011  1  1.476001  0  0.225015  0.564462  0  4.136387  0
C  C65  1  0.53312485  0.52800932  0.83966504  1  -0.070796  0  -0.084403  -0.116063  0  3.96933  0
C  C66  1  0.46677392  0.47199850  0.16027998  1  -0.072844  0  -0.084659  -0.116341  0  3.970007  0
C  C67  1  0.46636721  0.16008594  0.47194709  1  -0.083598  0  -0.085437  -0.117801  0  3.969572  0
C  C68  1  0.50000240  0.85952521  0.14047385  1  1.659313  0  0.234853  0.662968  0  4.256681  0
C  C69  1  0.53366093  0.83993351  0.52806430  1  -0.081706  0  -0.085387  -0.117836  0  3.970145  0
C  C70  1  0.47237228  0.51233619  0.85757192  1  0.023851  0  -0.007472  0.069711  0  4.019297  0
C  C71  1  0.52751975  0.48758345  0.14237726  1  0.022667  0  -0.007409  0.069629  0  4.019004  0
C  C72  1  0.52715343  0.14223317  0.48739909  1  0.024076  0  -0.007185  0.070219  0  4.01706  0
C  C73  1  0.47286546  0.85777248  0.51261135  1  0.021583  0  -0.007071  0.070266  0  4.016827  0
C  C74  1  0.40068901  0.50639244  0.80778761  1  -0.007992  0  -0.076521  -0.131758  0  3.905987  0
C  C75  1  0.59912257  0.49337238  0.19211742  1  -0.012457  0  -0.076877  -0.132199  0  3.906512  0
C  C76  1  0.59860461  0.19194220  0.49298503  1  0.005266  0  -0.076538  -0.131938  0  3.906484  0
C  C77  1  0.40142024  0.80805191  0.50703320  1  0.008273  0  -0.076731  -0.132198  0  3.906415  0
C  C78  1  0.38893947  0.51376201  0.74004308  1  -0.030813  0  -0.015327  -0.032038  0  3.991283  0
C  C79  1  0.61078707  0.48591025  0.25980915  1  -0.025351  0  -0.015172  -0.032645  0  3.990555  0
C  C80  1  0.61010489  0.25957315  0.48545485  1  -0.008753  0  -0.016133  -0.034143  0  3.992451  0
C  C81  1  0.38994089  0.74042605  0.51456783  1  -0.009535  0  -0.016008  -0.033693  0  3.992992  0
C  C82  1  0.44963570  0.52852401  0.72235429  1  -0.038477  0  -0.074778  -0.083739  0  3.950804  0
C  C83  1  0.49999617  0.48123157  0.51876598  1  -0.143884  0  0.008915  0.005218  0  4.171993  0
C  C84  1  0.55008901  0.47121914  0.27748610  1  -0.03559  0  -0.07456  -0.082116  0  3.948704  0
C  C85  1  0.54936955  0.27720633  0.47088399  1  -0.057258  0  -0.074401  -0.082234  0  3.949898  0
C  C86  1  0.45068090  0.72280492  0.52912987  1  -0.05726  0  -0.074259  -0.082045  0  3.949925  0
C  C87  1  0.48030618  0.55237901  0.98300109  1  -0.019892  0  -0.075492  -0.134816  0  3.932466  0
C  C88  1  0.51965706  0.44758880  0.01698264  1  -0.019924  0  -0.075684  -0.13485  0  3.93235  0
C  C89  1  0.51953847  0.01694102  0.44752422  1  -0.019125  0  -0.075787  -0.134933  0  3.93287  0
C  C90  1  0.49999299  0.51877070  0.48122220  1  0.03447  0  0.009022  0.005499  0  4.171881  0
C  C91  1  0.48046337  0.98306183  0.55248043  1  -0.018953  0  -0.075722  -0.134873  0  3.9326  0
C  C92  1  0.49624932  0.55007616  0.05341522  1  -0.036633  0  -0.007755  -0.063932  0  3.933606  0
C  C93  1  0.50372132  0.44989567  0.94657609  1  -0.03743  0  -0.007753  -0.063925  0  3.933513  0
C  C94  1  0.50377527  0.94660280  0.44993185  1  -0.038681  0  -0.007815  -0.064464  0  3.93381  0
C  C95  1  0.49623113  0.05340175  0.55007494  1  -0.038458  0  -0.007821  -0.064517  0  3.9338  0
C  C96  1  0.51555305  0.49643673  0.07121281  1  0.014671  0  0.006049  0.061553  0  3.96556  0
C  C97  1  0.48439874  0.50352534  0.92876235  1  0.014471  0  0.006153  0.061661  0  3.965765  0
C  C98  1  0.48461202  0.92885138  0.50365099  1  0.013863  0  0.0061  0.061889  0  3.965099  0
C  C99  1  0.51539529  0.07115202  0.49635541  1  0.013575  0  0.006167  0.061946  0  3.965395  0
C  C100  1  0.50000612  0.35931526  0.64068685  1  1.663913  0  0.234959  0.654176  0  4.268862  0
C  C101  1  0.49999559  0.64069100  0.35930564  1  1.662457  0  0.234875  0.6538  0  4.268956  0
C  C102  1  0.49999852  0.09677698  0.90323455  1  0.176799  0  -0.002008  -0.128416  0  3.841471  0
C  C103  1  0.50000197  0.90322527  0.09676371  1  0.176683  0  -0.001884  -0.128133  0  3.841172  0
C  C104  1  0.49999664  0.05949005  0.94051478  1  -0.191576  0  -0.001795  0.033986  0  4.252565  0
C  C105  1  0.50000353  0.94051162  0.05948132  1  -0.191409  0  -0.0019  0.033791  0  4.252628  0
C  C106  1  0.49999663  0.01874804  0.98124953  1  0.029664  0  0.006158  0.003675  0  4.182137  0
C  C107  1  0.50000380  0.98125132  0.01874615  1  -0.149196  0  0.006158  0.003643  0  4.18247  0
O  O108  1  0.50000924  0.24990472  0.75009482  1  -1.231299  0  -0.570376  -1.038289  0  2.520644  0
O  O109  1  0.45184425  0.78674471  0.10171680  1  -1.133087  0  -0.302708  -0.526803  0  2.276275  0
O  O110  1  0.45182907  0.10171457  0.78673867  1  -1.13296  0  -0.30275  -0.526808  0  2.276325  0
O  O111  1  0.54816433  0.89828888  0.21326047  1  -1.132773  0  -0.302694  -0.526737  0  2.276338  0
O  O112  1  0.55171204  0.33859157  0.65398783  1  -1.141782  0  -0.297512  -0.524799  0  2.299141  0
O  O113  1  0.44829607  0.66142161  0.34601586  1  -1.141033  0  -0.297515  -0.524662  0  2.299178  0
O  O114  1  0.44830154  0.34601861  0.66140084  1  -1.141851  0  -0.297651  -0.524957  0  2.299185  0
O  O115  1  0.55169600  0.65398015  0.33858644  1  -1.141608  0  -0.297516  -0.524718  0  2.299138  0
O  O116  1  0.50000334  0.75010441  0.24990919  1  -1.23135  0  -0.570398  -1.038321  0  2.520775  0
O  O117  1  0.44705331  0.08242806  0.62993233  1  -1.159966  0  -0.312367  -0.540165  0  2.329132  0
O  O118  1  0.55295443  0.91758168  0.37007425  1  -1.160034  0  -0.3123  -0.540122  0  2.329166  0
O  O119  1  0.55296542  0.37008327  0.91758154  1  -1.16026  0  -0.312256  -0.53998  0  2.32914  0
O  O120  1  0.44703155  0.62991267  0.08241966  1  -1.160236  0  -0.312351  -0.540179  0  2.32889  0
O  O121  1  0.44915018  0.36291873  0.81897912  1  -1.173954  0  -0.305802  -0.539857  0  2.37125  0
O  O122  1  0.55086345  0.63708573  0.18101279  1  -1.173566  0  -0.305856  -0.5399  0  2.370978  0
O  O123  1  0.55083570  0.18099756  0.63705958  1  -1.174151  0  -0.30577  -0.539945  0  2.370618  0
O  O124  1  0.44917412  0.81900754  0.36294484  1  -1.174239  0  -0.305844  -0.539923  0  2.370353  0
O  O125  1  0.31479441  0.10163820  0.65189952  1  -1.134446  0  -0.302538  -0.526951  0  2.277081  0
O  O126  1  0.68520994  0.89836634  0.34809980  1  -1.134458  0  -0.302544  -0.526976  0  2.277013  0
O  O127  1  0.68521742  0.34809187  0.89835881  1  -1.134138  0  -0.30251  -0.526986  0  2.276883  0
O  O128  1  0.31479184  0.65192708  0.10164471  1  -1.134531  0  -0.302468  -0.526907  0  2.277323  0
O  O129  1  0.31401422  0.21256396  0.66253700  1  -1.147728  0  -0.301386  -0.524527  0  2.274236  0
O  O130  1  0.68599386  0.78744173  0.33746784  1  -1.147624  0  -0.301392  -0.524488  0  2.27444  0
O  O131  1  0.68598666  0.33744665  0.78742996  1  -1.147235  0  -0.301355  -0.524454  0  2.274354  0
O  O132  1  0.31402207  0.66256017  0.21256870  1  -1.147317  0  -0.301317  -0.524408  0  2.274357  0
O  O133  1  0.54816235  0.21325924  0.89828183  1  -1.133473  0  -0.302789  -0.526997  0  2.276324  0
O  O134  1  0.29730568  0.50796062  0.62316174  1  -1.119713  0  -0.294982  -0.480775  0  2.059531  0
O  O135  1  0.25846198  0.49266486  0.70855837  1  -1.137499  0  -0.346335  -0.496659  0  2.20758  0
O  O136  1  0.70229400  0.49150683  0.37662191  1  -1.120249  0  -0.294478  -0.48057  0  2.060337  0
O  O137  1  0.74117166  0.50674017  0.29123999  1  -1.127372  0  -0.346188  -0.496236  0  2.207092  0
O  O138  1  0.70125132  0.37626878  0.49064374  1  -1.123128  0  -0.293992  -0.480697  0  2.058837  0
O  O139  1  0.74032590  0.29099440  0.50584019  1  -1.112582  0  -0.346723  -0.497313  0  2.206063  0
O  O140  1  0.29883867  0.62375348  0.50944368  1  -1.123651  0  -0.294007  -0.480654  0  2.059273  0
O  O141  1  0.25971057  0.70898059  0.49416912  1  -1.111013  0  -0.346447  -0.496755  0  2.206843  0
