# generated using pymatgen
data_Zn2H12C11(NO2)4
_symmetry_space_group_name_H-M   'P 1'
_cell_length_a   7.65877194
_cell_length_b   8.78404261
_cell_length_c   11.45467840
_cell_angle_alpha   82.24270980
_cell_angle_beta   81.24902891
_cell_angle_gamma   72.91903905
_symmetry_Int_Tables_number   1
_chemical_formula_structural   Zn2H12C11(NO2)4
_chemical_formula_sum   'Zn4 H24 C22 N8 O16'
_cell_volume   724.71454308
_cell_formula_units_Z   2
loop_
 _symmetry_equiv_pos_site_id
 _symmetry_equiv_pos_as_xyz
  1  'x, y, z'
loop_
 _atom_site_type_symbol
 _atom_site_label
 _atom_site_symmetry_multiplicity
 _atom_site_fract_x
 _atom_site_fract_y
 _atom_site_fract_z
 _atom_site_occupancy
 _atom_site_hle17_bader_spin_density
 _atom_site_hle17_ddec_charge
 _atom_site_hle17_ddec_spin_density
 _atom_site_hle17_ddec_sum_bond_order
 _atom_site_hle17_magmom
 _atom_site_hse06_10hf_bader_spin_density
 _atom_site_hse06_10hf_ddec_charge
 _atom_site_hse06_10hf_ddec_spin_density
 _atom_site_hse06_10hf_ddec_sum_bond_order
 _atom_site_hse06_10hf_magmom
 _atom_site_hse06_bader_spin_density
 _atom_site_hse06_ddec_charge
 _atom_site_hse06_ddec_spin_density
 _atom_site_hse06_ddec_sum_bond_order
 _atom_site_hse06_magmom
 _atom_site_pbe_bader_spin_density
 _atom_site_pbe_cm5_charge
 _atom_site_pbe_ddec_charge
 _atom_site_pbe_ddec_spin_density
 _atom_site_pbe_ddec_sum_bond_order
 _atom_site_pbe_magmom
Zn  Zn0  1  0.03894038  0.27911462  0.31342628  1  0  1.098261  0  1.845727  0  0  0.917307  0  2.331906  0  0  0.962879  0  2.273443  0  0  0.687836  0.8838  0  2.373894  0
Zn  Zn1  1  0.96106065  0.72088687  0.68657237  1  0  1.098267  0  1.845709  0  0  0.917305  0  2.331876  0  0  0.962886  0  2.273422  0  0  0.68783  0.883808  0  2.373867  0
Zn  Zn2  1  0.10368848  0.03797212  0.60070421  1  0  1.165365  0  1.709151  0  0  1.006103  0  2.144271  0  0  1.052862  0  2.087653  0  0  0.659771  0.971476  0  2.186045  0
Zn  Zn3  1  0.89630991  0.96202938  0.39929472  1  0  1.16537  0  1.709123  0  0  1.006127  0  2.144224  0  0  1.052884  0  2.087605  0  0  0.659782  0.9715  0  2.185995  0
H  H4  1  0.39585232  0.37385710  0.54486295  1  0  0.116169  0  0.986904  0  0  0.124018  0  1.050457  0  0  0.127989  0  1.047774  0  0  0.107791  0.120611  0  1.053516  0
H  H5  1  0.60414911  0.62614318  0.45513664  1  0  0.116191  0  0.98684  0  0  0.124015  0  1.050439  0  0  0.127986  0  1.047755  0  0  0.107784  0.120609  0  1.053491  0
H  H6  1  0.12207872  0.39705031  0.58152518  1  0  0.080162  0  0.98255  0  0  0.085852  0  1.053939  0  0  0.088321  0  1.050375  0  0  0.125296  0.084102  0  1.056592  0
H  H7  1  0.87792000  0.60295003  0.41847208  1  0  0.080168  0  0.98252  0  0  0.085859  0  1.053916  0  0  0.088333  0  1.050336  0  0  0.125307  0.084114  0  1.056563  0
H  H8  1  0.01627482  0.16599433  0.94421400  1  0  0.127898  0  0.940218  0  0  0.138237  0  0.997608  0  0  0.14159  0  0.996737  0  0  0.113462  0.135826  0  0.998348  0
H  H9  1  0.98372774  0.83400236  0.05578581  1  0  0.127879  0  0.940197  0  0  0.138218  0  0.997589  0  0  0.141571  0  0.996719  0  0  0.113457  0.135806  0  0.998332  0
H  H10  1  0.65928190  0.74185614  0.86964239  1  0  0.114184  0  0.96202  0  0  0.13273  0  1.025903  0  0  0.13394  0  1.025007  0  0  0.108364  0.131764  0  1.027626  0
H  H11  1  0.34072220  0.25814411  0.13035778  1  0  0.114183  0  0.962029  0  0  0.132724  0  1.02591  0  0  0.133934  0  1.025014  0  0  0.108364  0.13176  0  1.027625  0
H  H12  1  0.41723171  0.77450460  0.86753165  1  0  0.129874  0  0.941253  0  0  0.147277  0  1.002667  0  0  0.149263  0  1.001614  0  0  0.115511  0.145588  0  1.003551  0
H  H13  1  0.58277071  0.22549683  0.13246947  1  0  0.129914  0  0.941235  0  0  0.147299  0  1.002667  0  0  0.149287  0  1.001612  0  0  0.115515  0.14561  0  1.00355  0
H  H14  1  0.56000568  0.79742316  0.73251560  1  0  0.103058  0  0.935834  0  0  0.123449  0  1.001037  0  0  0.124279  0  0.999926  0  0  0.104467  0.12255  0  1.002127  0
H  H15  1  0.43999577  0.20257710  0.26748486  1  0  0.103053  0  0.935835  0  0  0.123439  0  1.001039  0  0  0.124271  0  0.999927  0  0  0.104467  0.12254  0  1.002129  0
H  H16  1  0.23069608  0.27154857  0.80461234  1  0  0.101919  0  0.939273  0  0  0.124785  0  1.001449  0  0  0.124569  0  1.002034  0  0  0.105438  0.124678  0  1.001338  0
H  H17  1  0.76930491  0.72844921  0.19539277  1  0  0.101911  0  0.939214  0  0  0.124808  0  1.001369  0  0  0.124571  0  1.001979  0  0  0.105443  0.124701  0  1.001253  0
H  H18  1  0.23474414  0.32685446  0.94815538  1  0  0.125022  0  0.950853  0  0  0.141941  0  1.014158  0  0  0.144547  0  1.011548  0  0  0.115178  0.140022  0  1.016005  0
H  H19  1  0.76525662  0.67314813  0.05184755  1  0  0.125019  0  0.950881  0  0  0.141968  0  1.014165  0  0  0.144575  0  1.011551  0  0  0.115171  0.140045  0  1.016019  0
H  H20  1  0.37271905  0.13450418  0.90438830  1  0  0.109854  0  0.9269  0  0  0.131391  0  0.98464  0  0  0.132518  0  0.984035  0  0  0.109479  0.130375  0  0.985701  0
H  H21  1  0.62728215  0.86549717  0.09561733  1  0  0.109853  0  0.926879  0  0  0.131382  0  0.984635  0  0  0.132508  0  0.984029  0  0  0.109475  0.130364  0  0.985698  0
H  H22  1  0.21551915  0.00528970  0.37230155  1  0  0.406147  0  0.907876  0  0  0.371569  0  0.979413  0  0  0.382772  0  0.963277  0  0  0.275344  0.363399  0  0.991341  0
H  H23  1  0.78447755  0.99471299  0.62769833  1  0  0.406113  0  0.907915  0  0  0.371532  0  0.979461  0  0  0.382735  0  0.963325  0  0  0.275329  0.363363  0  0.991387  0
H  H24  1  0.41554045  0.10763447  0.66448830  1  0  0.424268  0  0.862868  0  0  0.39438  0  0.934074  0  0  0.404808  0  0.918884  0  0  0.300666  0.386712  0  0.945365  0
H  H25  1  0.58446004  0.89236462  0.33551151  1  0  0.424294  0  0.862834  0  0  0.394406  0  0.934036  0  0  0.404837  0  0.918843  0  0  0.300677  0.38674  0  0.945325  0
H  H26  1  0.44383149  0.12822992  0.52775658  1  0  0.420663  0  0.855581  0  0  0.391748  0  0.930412  0  0  0.402509  0  0.917499  0  0  0.298935  0.384106  0  0.939489  0
H  H27  1  0.55617296  0.87176915  0.47224279  1  0  0.420687  0  0.855567  0  0  0.391774  0  0.930387  0  0  0.402533  0  0.917476  0  0  0.298945  0.384128  0  0.939466  0
C  C28  1  0.76085911  0.31458757  0.72051949  1  0  -0.091243  0  3.826986  0  0  -0.095735  0  4.100159  0  0  -0.108722  0  4.126629  0  0  0.05407  -0.087595  0  4.082632  0
C  C29  1  0.23913694  0.68541280  0.27947718  1  0  -0.091185  0  3.826922  0  0  -0.095688  0  4.100104  0  0  -0.108675  0  4.126573  0  0  0.054114  -0.087546  0  4.08258  0
C  C30  1  0.50327125  0.42387342  0.49698408  1  0  -0.169534  0  3.6756  0  0  -0.193931  0  3.939354  0  0  -0.199245  0  3.9534  0  0  -0.091217  -0.19097  0  3.931376  0
C  C31  1  0.49673053  0.57612567  0.50301470  1  0  -0.169477  0  3.675513  0  0  -0.193894  0  3.939319  0  0  -0.199207  0  3.953362  0  0  -0.091188  -0.190923  0  3.931329  0
C  C32  1  0.73333340  0.47365217  0.74146205  1  0  0.312906  0  3.832367  0  0  0.270632  0  4.099856  0  0  0.288259  0  4.118115  0  0  0.214589  0.259026  0  4.086741  0
C  C33  1  0.26666629  0.52634934  0.25853586  1  0  0.312814  0  3.832453  0  0  0.270538  0  4.099902  0  0  0.288164  0  4.118164  0  0  0.214533  0.258927  0  4.086791  0
C  C34  1  0.61886995  0.23899365  0.75966555  1  0  0.49123  0  3.855854  0  0  0.435656  0  4.148216  0  0  0.466549  0  4.149433  0  0  0.230194  0.415032  0  4.146504  0
C  C35  1  0.38112658  0.76100543  0.24033556  1  0  0.491353  0  3.855802  0  0  0.435764  0  4.148199  0  0  0.46666  0  4.149409  0  0  0.230167  0.415135  0  4.14649  0
C  C36  1  0.97908244  0.10895984  0.13827509  1  0  0.712662  0  3.871814  0  0  0.662654  0  4.163283  0  0  0.699137  0  4.152309  0  0  0.215008  0.638058  0  4.169824  0
C  C37  1  0.02091811  0.89103920  0.86172733  1  0  0.712488  0  3.871837  0  0  0.662486  0  4.163308  0  0  0.69897  0  4.152341  0  0  0.214976  0.637904  0  4.169825  0
C  C38  1  0.99072549  0.39501083  0.63096393  1  0  0.240352  0  3.714101  0  0  0.183565  0  3.99363  0  0  0.198279  0  4.006139  0  0  0.132706  0.173641  0  3.984627  0
C  C39  1  0.00927231  0.60498831  0.36903441  1  0  0.240327  0  3.714087  0  0  0.183531  0  3.99364  0  0  0.198251  0  4.006143  0  0  0.132684  0.173601  0  3.984636  0
C  C40  1  0.44519485  0.48778520  0.85855140  1  0  0.620485  0  3.815898  0  0  0.548583  0  4.123123  0  0  0.583164  0  4.121166  0  0  0.336027  0.525175  0  4.123773  0
C  C41  1  0.55480661  0.51221506  0.14144906  1  0  0.620553  0  3.816058  0  0  0.548592  0  4.123312  0  0  0.583183  0  4.121344  0  0  0.336014  0.525171  0  4.123977  0
C  C42  1  0.99795458  0.07229760  0.01362279  1  0  -0.160615  0  3.647553  0  0  -0.1813  0  3.901574  0  0  -0.186909  0  3.915827  0  0  -0.080319  -0.177809  0  3.892066  0
C  C43  1  0.00204804  0.92769903  0.98637963  1  0  -0.160535  0  3.647551  0  0  -0.18124  0  3.901577  0  0  -0.186852  0  3.915831  0  0  -0.080323  -0.177756  0  3.892073  0
C  C44  1  0.66041148  0.31558716  0.43057158  1  0  0.706791  0  3.882342  0  0  0.653612  0  4.17583  0  0  0.688863  0  4.166972  0  0  0.213345  0.629901  0  4.180628  0
C  C45  1  0.33958938  0.68441073  0.56942830  1  0  0.706832  0  3.882212  0  0  0.653632  0  4.175735  0  0  0.688888  0  4.166877  0  0  0.213373  0.629926  0  4.180522  0
C  C46  1  0.55385497  0.72902119  0.81988646  1  0  -0.155318  0  3.601835  0  0  -0.260785  0  3.857031  0  0  -0.255932  0  3.863209  0  0  -0.137378  -0.263954  0  3.853002  0
C  C47  1  0.44614743  0.27098025  0.18011378  1  0  -0.155313  0  3.601831  0  0  -0.260785  0  3.857  0  0  -0.255933  0  3.863176  0  0  -0.137367  -0.263955  0  3.852961  0
C  C48  1  0.31750731  0.26115388  0.87495040  1  0  -0.155488  0  3.643414  0  0  -0.262646  0  3.900959  0  0  -0.257559  0  3.907803  0  0  -0.139101  -0.265883  0  3.896396  0
C  C49  1  0.68249555  0.73884630  0.12505341  1  0  -0.155475  0  3.643276  0  0  -0.262677  0  3.90083  0  0  -0.257572  0  3.907683  0  0  -0.139112  -0.265915  0  3.896267  0
N  N50  1  0.87794871  0.52554710  0.68462161  1  0  -0.497639  0  3.185132  0  0  -0.414599  0  3.489778  0  0  -0.43818  0  3.495711  0  0  -0.366716  -0.397467  0  3.485026  0
N  N51  1  0.12205136  0.47445321  0.31537638  1  0  -0.497555  0  3.185046  0  0  -0.414529  0  3.489694  0  0  -0.438106  0  3.495623  0  0  -0.366693  -0.397388  0  3.484932  0
N  N52  1  0.92754608  0.26668417  0.64858052  1  0  -0.402343  0  3.183875  0  0  -0.335821  0  3.467413  0  0  -0.353959  0  3.483841  0  0  -0.341406  -0.322619  0  3.456967  0
N  N53  1  0.07245037  0.73331499  0.35141710  1  0  -0.402383  0  3.18397  0  0  -0.33585  0  3.467496  0  0  -0.35399  0  3.483925  0  0  -0.341396  -0.322645  0  3.457048  0
N  N54  1  0.46943038  0.33077140  0.83027259  1  0  -0.259637  0  3.359331  0  0  -0.168725  0  3.600159  0  0  -0.193113  0  3.617989  0  0  -0.246069  -0.152377  0  3.587766  0
N  N55  1  0.53056901  0.66923124  0.16972875  1  0  -0.259702  0  3.359278  0  0  -0.168794  0  3.600176  0  0  -0.193182  0  3.617993  0  0  -0.246048  -0.152433  0  3.587772  0
N  N56  1  0.57961245  0.56093644  0.80494106  1  0  -0.213147  0  3.473969  0  0  -0.12561  0  3.714011  0  0  -0.148378  0  3.734383  0  0  -0.243344  -0.109294  0  3.698875  0
N  N57  1  0.42038860  0.43906503  0.19505846  1  0  -0.213263  0  3.474219  0  0  -0.125616  0  3.714131  0  0  -0.148387  0  3.734501  0  0  -0.243385  -0.109297  0  3.699001  0
O  O58  1  0.66501878  0.16841479  0.44162996  1  0  -0.648487  0  2.070319  0  0  -0.573271  0  2.316182  0  0  -0.601033  0  2.303804  0  0  -0.301254  -0.553615  0  2.324484  0
O  O59  1  0.33498137  0.83158545  0.55837151  1  0  -0.648572  0  2.070336  0  0  -0.573316  0  2.316187  0  0  -0.601078  0  2.3038  0  0  -0.301277  -0.55366  0  2.324481  0
O  O60  1  0.89212366  0.03503869  0.21784978  1  0  -0.652305  0  2.050324  0  0  -0.589328  0  2.313458  0  0  -0.617184  0  2.300293  0  0  -0.313345  -0.570011  0  2.321433  0
O  O61  1  0.10787813  0.96496040  0.78214901  1  0  -0.652238  0  2.050295  0  0  -0.589258  0  2.313418  0  0  -0.617117  0  2.300255  0  0  -0.313325  -0.569949  0  2.321392  0
O  O62  1  0.05842827  0.21371876  0.15354550  1  0  -0.639271  0  2.059609  0  0  -0.564449  0  2.328754  0  0  -0.593274  0  2.312204  0  0  -0.315683  -0.544826  0  2.339949  0
O  O63  1  0.94156938  0.78627675  0.84645496  1  0  -0.639193  0  2.059494  0  0  -0.564345  0  2.3286  0  0  -0.593173  0  2.312058  0  0  -0.315652  -0.544725  0  2.339783  0
O  O64  1  0.10702985  0.07746405  0.41550117  1  0  -0.988762  0  1.949493  0  0  -0.885046  0  2.255323  0  0  -0.918461  0  2.214771  0  0  -0.57007  -0.859973  0  2.285558  0
O  O65  1  0.89296891  0.92253625  0.58449784  1  0  -0.988747  0  1.949576  0  0  -0.885025  0  2.25539  0  0  -0.918445  0  2.214846  0  0  -0.570047  -0.859968  0  2.285653  0
O  O66  1  0.61479215  0.10439073  0.73497860  1  0  -0.573691  0  2.007871  0  0  -0.506866  0  2.223219  0  0  -0.529749  0  2.215156  0  0  -0.292205  -0.491038  0  2.229243  0
O  O67  1  0.38520708  0.89560830  0.26502397  1  0  -0.573765  0  2.007859  0  0  -0.506939  0  2.223226  0  0  -0.529826  0  2.21516  0  0  -0.292186  -0.491111  0  2.229248  0
O  O68  1  0.77901050  0.37879769  0.36902251  1  0  -0.642974  0  2.090904  0  0  -0.565817  0  2.366805  0  0  -0.594032  0  2.352041  0  0  -0.319917  -0.545419  0  2.3757  0
O  O69  1  0.22098977  0.62119783  0.63097678  1  0  -0.642949  0  2.090825  0  0  -0.565827  0  2.366807  0  0  -0.59403  0  2.352008  0  0  -0.319906  -0.545433  0  2.375702  0
O  O70  1  0.34579593  0.13049093  0.59515537  1  0  -0.818497  0  1.910982  0  0  -0.760418  0  2.12841  0  0  -0.780561  0  2.097024  0  0  -0.572517  -0.745647  0  2.151274  0
O  O71  1  0.65420420  0.86950933  0.40484523  1  0  -0.818533  0  1.910949  0  0  -0.760459  0  2.128379  0  0  -0.7806  0  2.096986  0  0  -0.572542  -0.745688  0  2.15124  0
O  O72  1  0.31140774  0.55673772  0.92481876  1  0  -0.53836  0  1.91758  0  0  -0.501161  0  2.134794  0  0  -0.520842  0  2.128013  0  0  -0.292964  -0.487371  0  2.139001  0
O  O73  1  0.68859220  0.44326732  0.07518141  1  0  -0.538348  0  1.917626  0  0  -0.501134  0  2.134847  0  0  -0.520816  0  2.128063  0  0  -0.292934  -0.487339  0  2.139058  0
