# generated using pymatgen
data_YH7C8SO9
_symmetry_space_group_name_H-M   'P 1'
_cell_length_a   6.36081064
_cell_length_b   8.57873615
_cell_length_c   10.60577606
_cell_angle_alpha   90.41010015
_cell_angle_beta   99.95693232
_cell_angle_gamma   107.63436656
_symmetry_Int_Tables_number   1
_chemical_formula_structural   YH7C8SO9
_chemical_formula_sum   'Y2 H14 C16 S2 O18'
_cell_volume   542.13665610
_cell_formula_units_Z   2
loop_
 _symmetry_equiv_pos_site_id
 _symmetry_equiv_pos_as_xyz
  1  'x, y, z'
loop_
 _atom_site_type_symbol
 _atom_site_label
 _atom_site_symmetry_multiplicity
 _atom_site_fract_x
 _atom_site_fract_y
 _atom_site_fract_z
 _atom_site_occupancy
 _atom_site_hle17_bader_spin_density
 _atom_site_hle17_ddec_charge
 _atom_site_hle17_ddec_spin_density
 _atom_site_hle17_ddec_sum_bond_order
 _atom_site_hle17_magmom
 _atom_site_hse06_10hf_bader_spin_density
 _atom_site_hse06_10hf_ddec_charge
 _atom_site_hse06_10hf_ddec_spin_density
 _atom_site_hse06_10hf_ddec_sum_bond_order
 _atom_site_hse06_10hf_magmom
 _atom_site_hse06_bader_spin_density
 _atom_site_hse06_ddec_charge
 _atom_site_hse06_ddec_spin_density
 _atom_site_hse06_ddec_sum_bond_order
 _atom_site_hse06_magmom
 _atom_site_pbe_bader_spin_density
 _atom_site_pbe_cm5_charge
 _atom_site_pbe_ddec_charge
 _atom_site_pbe_ddec_spin_density
 _atom_site_pbe_ddec_sum_bond_order
 _atom_site_pbe_magmom
Y  Y0  1  0.15320721  0.24793604  0.61617050  1  0  2.098994  0  1.833997  0  0  1.907524  0  2.32466  0  0  1.977133  0  2.258762  0  0  1.311777  1.857247  0  2.370141  0
Y  Y1  1  0.84679308  0.75206572  0.38382956  1  0  2.099023  0  1.833977  0  0  1.907552  0  2.324619  0  0  1.977166  0  2.258722  0  0  1.311797  1.857265  0  2.370129  0
H  H2  1  0.61838253  0.41226019  0.14453012  1  0  0.110073  0  0.940221  0  0  0.117938  0  1.00331  0  0  0.12152  0  1.001534  0  0  0.115127  0.115279  0  1.004796  0
H  H3  1  0.38161884  0.58774034  0.85547005  1  0  0.110089  0  0.940175  0  0  0.117925  0  1.00331  0  0  0.121505  0  1.001535  0  0  0.115125  0.115266  0  1.004795  0
H  H4  1  0.65687729  0.36564795  0.91953488  1  0  0.114654  0  0.948453  0  0  0.124463  0  1.00885  0  0  0.128369  0  1.005712  0  0  0.114716  0.12146  0  1.01139  0
H  H5  1  0.34311933  0.63434891  0.08046384  1  0  0.114646  0  0.948418  0  0  0.124436  0  1.008839  0  0  0.128342  0  1.005703  0  0  0.114727  0.121433  0  1.011381  0
H  H6  1  0.18031569  0.15314317  0.05593108  1  0  0.125067  0  0.949454  0  0  0.132341  0  1.01163  0  0  0.136221  0  1.009145  0  0  0.115514  0.129369  0  1.013707  0
H  H7  1  0.81968465  0.84685492  0.94406803  1  0  0.125031  0  0.949518  0  0  0.132293  0  1.011689  0  0  0.136175  0  1.009208  0  0  0.115502  0.129302  0  1.013783  0
H  H8  1  0.52628313  0.08494943  0.67782357  1  0  0.458524  0  0.812124  0  0  0.428676  0  0.877127  0  0  0.438912  0  0.862116  0  0  0.320487  0.421393  0  0.887805  0
H  H9  1  0.47371876  0.91505233  0.32217572  1  0  0.458538  0  0.812127  0  0  0.428687  0  0.87711  0  0  0.438922  0  0.8621  0  0  0.320505  0.421406  0  0.887783  0
H  H10  1  0.29933459  0.95492897  0.60783091  1  0  0.442292  0  0.856893  0  0  0.407988  0  0.925769  0  0  0.418942  0  0.909863  0  0  0.306299  0.400235  0  0.937013  0
H  H11  1  0.70066889  0.04507279  0.39216854  1  0  0.442234  0  0.856966  0  0  0.407938  0  0.925841  0  0  0.418892  0  0.909934  0  0  0.306265  0.400184  0  0.937085  0
H  H12  1  0.65346452  0.35660248  0.71006867  1  0  0.441975  0  0.855851  0  0  0.411821  0  0.917171  0  0  0.423054  0  0.900927  0  0  0.304899  0.403838  0  0.928737  0
H  H13  1  0.34653736  0.64339928  0.28993062  1  0  0.442012  0  0.855797  0  0  0.41185  0  0.917133  0  0  0.423084  0  0.900887  0  0  0.304901  0.403866  0  0.9287  0
H  H14  1  0.58268738  0.50758518  0.64919375  1  0  0.438691  0  0.856519  0  0  0.407858  0  0.919024  0  0  0.418425  0  0.903684  0  0  0.306444  0.400345  0  0.929944  0
H  H15  1  0.41731239  0.49241535  0.35080531  1  0  0.438652  0  0.856563  0  0  0.407822  0  0.919066  0  0  0.418388  0  0.903726  0  0  0.306423  0.400309  0  0.929985  0
C  C16  1  0.02187315  0.22436362  0.20063262  1  0  -0.133628  0  3.692745  0  0  -0.115772  0  3.944856  0  0  -0.122432  0  3.965143  0  0  -0.006939  -0.111446  0  3.93147  0
C  C17  1  0.97812662  0.77563691  0.79936739  1  0  -0.13364  0  3.692713  0  0  -0.115764  0  3.944819  0  0  -0.122424  0  3.965107  0  0  -0.006946  -0.111438  0  3.931424  0
C  C18  1  0.86814428  0.30323057  0.22749772  1  0  -0.036556  0  3.674632  0  0  -0.029638  0  3.913675  0  0  -0.030916  0  3.931054  0  0  0.006512  -0.028741  0  3.902257  0
C  C19  1  0.13185550  0.69676997  0.77250229  1  0  -0.036582  0  3.674686  0  0  -0.0297  0  3.913775  0  0  -0.030978  0  3.931154  0  0  0.006521  -0.0288  0  3.90235  0
C  C20  1  0.73745018  0.35155283  0.12401423  1  0  -0.045244  0  3.673353  0  0  -0.068834  0  3.929355  0  0  -0.071358  0  3.947812  0  0  -0.066878  -0.067599  0  3.917451  0
C  C21  1  0.26254748  0.64844648  0.87598555  1  0  -0.045212  0  3.673266  0  0  -0.068778  0  3.929281  0  0  -0.071302  0  3.947737  0  0  -0.066857  -0.067542  0  3.917374  0
C  C22  1  0.76003267  0.32601052  0.99786548  1  0  -0.037634  0  3.657493  0  0  -0.063577  0  3.903762  0  0  -0.061013  0  3.920846  0  0  -0.065357  -0.06497  0  3.892487  0
C  C23  1  0.23996179  0.67398878  0.00213492  1  0  -0.037629  0  3.657378  0  0  -0.063541  0  3.903651  0  0  -0.060979  0  3.920732  0  0  -0.065351  -0.064936  0  3.89238  0
C  C24  1  0.92278267  0.25639555  0.97338664  1  0  -0.047693  0  3.73407  0  0  -0.02399  0  3.969561  0  0  -0.032281  0  3.991747  0  0  -0.007584  -0.018767  0  3.954652  0
C  C25  1  0.07721448  0.74360254  0.02661497  1  0  -0.047694  0  3.734083  0  0  -0.024016  0  3.96959  0  0  -0.032305  0  3.991773  0  0  -0.007647  -0.018795  0  3.95468  0
C  C26  1  0.05159369  0.20460591  0.07521421  1  0  -0.054348  0  3.7019  0  0  -0.092675  0  3.952571  0  0  -0.090377  0  3.971201  0  0  -0.070212  -0.093992  0  3.940255  0
C  C27  1  0.94840562  0.79538973  0.92478855  1  0  -0.054302  0  3.701832  0  0  -0.092601  0  3.952477  0  0  -0.09031  0  3.971111  0  0  -0.070179  -0.093897  0  3.940174  0
C  C28  1  0.84609124  0.34623788  0.36151577  1  0  0.73107  0  3.819954  0  0  0.672956  0  4.120534  0  0  0.710248  0  4.106544  0  0  0.250595  0.647421  0  4.129513  0
C  C29  1  0.15391013  0.65376265  0.63848346  1  0  0.731012  0  3.81991  0  0  0.672898  0  4.12051  0  0  0.710188  0  4.10652  0  0  0.250557  0.647361  0  4.129488  0
C  C30  1  0.98100483  0.24721351  0.84385863  1  0  0.639871  0  3.90911  0  0  0.587501  0  4.207001  0  0  0.621429  0  4.201419  0  0  0.208702  0.5646  0  4.20985  0
C  C31  1  0.01899494  0.75278702  0.15614232  1  0  0.639796  0  3.90934  0  0  0.587436  0  4.207217  0  0  0.621362  0  4.201639  0  0  0.208685  0.564536  0  4.210067  0
S  S32  1  0.21050155  0.16362019  0.32093410  1  0  1.345199  0  5.548617  0  0  1.238301  0  6.061309  0  0  1.288325  0  6.037954  0  0  0.548107  1.203663  0  6.076552  0
S  S33  1  0.78950034  0.83638157  0.67906614  1  0  1.345275  0  5.548633  0  0  1.238379  0  6.061329  0  0  1.288406  0  6.037969  0  0  0.548165  1.203743  0  6.076569  0
O  O34  1  0.08289249  0.02315741  0.38534190  1  0  -0.754173  0  2.142342  0  0  -0.684685  0  2.419944  0  0  -0.711159  0  2.406344  0  0  -0.375892  -0.665835  0  2.428859  0
O  O35  1  0.91710832  0.97684557  0.61466011  1  0  -0.754152  0  2.14237  0  0  -0.684691  0  2.419975  0  0  -0.711167  0  2.406378  0  0  -0.375876  -0.665843  0  2.428888  0
O  O36  1  0.30680711  0.30544833  0.41800214  1  0  -0.728437  0  2.046251  0  0  -0.660267  0  2.299597  0  0  -0.684567  0  2.284535  0  0  -0.351939  -0.643185  0  2.30963  0
O  O37  1  0.69319370  0.69455465  0.58199705  1  0  -0.728482  0  2.0462  0  0  -0.660312  0  2.299541  0  0  -0.684613  0  2.284477  0  0  -0.352006  -0.643227  0  2.309573  0
O  O38  1  0.37369540  0.12671969  0.25623775  1  0  -0.618635  0  1.984428  0  0  -0.563614  0  2.226586  0  0  -0.585921  0  2.21538  0  0  -0.303998  -0.548006  0  2.233962  0
O  O39  1  0.62630385  0.87327962  0.74376125  1  0  -0.618679  0  1.984466  0  0  -0.563631  0  2.226595  0  0  -0.585943  0  2.215397  0  0  -0.304005  -0.548029  0  2.233973  0
O  O40  1  0.85516836  0.24367355  0.44773375  1  0  -0.707392  0  2.06851  0  0  -0.642646  0  2.313563  0  0  -0.67065  0  2.300228  0  0  -0.35529  -0.622979  0  2.322698  0
O  O41  1  0.14483301  0.75632699  0.55226642  1  0  -0.707368  0  2.068521  0  0  -0.642608  0  2.313558  0  0  -0.670612  0  2.300225  0  0  -0.355277  -0.622937  0  2.322692  0
O  O42  1  0.82014120  0.48330343  0.38206155  1  0  -0.667929  0  2.071373  0  0  -0.606255  0  2.334976  0  0  -0.635893  0  2.32348  0  0  -0.360459  -0.585216  0  2.342386  0
O  O43  1  0.17986176  0.51669710  0.61793690  1  0  -0.667885  0  2.071246  0  0  -0.606208  0  2.334848  0  0  -0.635839  0  2.323345  0  0  -0.360451  -0.585173  0  2.342256  0
O  O44  1  0.16803914  0.22454319  0.83677953  1  0  -0.660756  0  1.958074  0  0  -0.606197  0  2.196825  0  0  -0.634714  0  2.189604  0  0  -0.362398  -0.58622  0  2.201002  0
O  O45  1  0.83196167  0.77545979  0.16321965  1  0  -0.660716  0  1.958146  0  0  -0.60616  0  2.196892  0  0  -0.634686  0  2.189687  0  0  -0.362364  -0.586181  0  2.201066  0
O  O46  1  0.85246428  0.26522867  0.74105789  1  0  -0.687136  0  2.031934  0  0  -0.625158  0  2.265224  0  0  -0.652264  0  2.255481  0  0  -0.326581  -0.605864  0  2.27157  0
O  O47  1  0.14753446  0.73476941  0.25894011  1  0  -0.687157  0  2.032058  0  0  -0.625185  0  2.265369  0  0  -0.652282  0  2.255605  0  0  -0.326605  -0.60589  0  2.271716  0
O  O48  1  0.37288103  0.07295054  0.63479343  1  0  -0.887477  0  1.885447  0  0  -0.829476  0  2.092146  0  0  -0.851431  0  2.058878  0  0  -0.62992  -0.813736  0  2.11523  0
O  O49  1  0.62712297  0.92705244  0.36520609  1  0  -0.887454  0  1.885546  0  0  -0.829434  0  2.092196  0  0  -0.851389  0  2.058926  0  0  -0.629915  -0.813691  0  2.115282  0
O  O50  1  0.52890502  0.40634076  0.69393408  1  0  -0.879379  0  1.857263  0  0  -0.824596  0  2.058238  0  0  -0.847614  0  2.025927  0  0  -0.625728  -0.808306  0  2.080864  0
O  O51  1  0.47109687  0.59366100  0.30606615  1  0  -0.879352  0  1.857261  0  0  -0.824573  0  2.058229  0  0  -0.847591  0  2.025917  0  0  -0.625701  -0.80828  0  2.080857  0
