# generated using pymatgen
data_UCuH12C12SN2O13
_symmetry_space_group_name_H-M   'P 1'
_cell_length_a   8.73301614
_cell_length_b   9.50430189
_cell_length_c   11.42532548
_cell_angle_alpha   88.19694519
_cell_angle_beta   90.74763404
_cell_angle_gamma   87.34401744
_symmetry_Int_Tables_number   1
_chemical_formula_structural   UCuH12C12SN2O13
_chemical_formula_sum   'U2 Cu2 H24 C24 S2 N4 O26'
_cell_volume   946.72830201
_cell_formula_units_Z   2
loop_
 _symmetry_equiv_pos_site_id
 _symmetry_equiv_pos_as_xyz
  1  'x, y, z'
loop_
 _atom_site_type_symbol
 _atom_site_label
 _atom_site_symmetry_multiplicity
 _atom_site_fract_x
 _atom_site_fract_y
 _atom_site_fract_z
 _atom_site_occupancy
 _atom_site_pbe_cm5_charge
 _atom_site_pbe_ddec_charge
 _atom_site_pbe_ddec_spin_density
 _atom_site_pbe_ddec_sum_bond_order
 _atom_site_pbe_magmom
U  U0  1  0.06268926  0.56660062  0.75475042  1  2.19844  2.536402  0.004304  4.816124  0.002
U  U1  1  0.93731071  0.43341149  0.24526362  1  2.198628  2.536497  -0.004305  4.816247  -0.002
Cu  Cu2  1  0.61633531  0.14032771  0.19050309  1  0.769254  0.893379  0.794079  2.158947  0.617
Cu  Cu3  1  0.38367640  0.85966577  0.80952739  1  0.768992  0.893078  -0.794094  2.158857  -0.617
H  H4  1  0.40061118  0.25069626  0.04748654  1  0.301445  0.403575  0.000614  0.929712  0.001
H  H5  1  0.59940005  0.74928430  0.95252162  1  0.301416  0.403568  -0.000615  0.929672  -0.001
H  H6  1  0.55998384  0.32646820  0.03246548  1  0.342665  0.428497  0.000562  0.83098  0.0
H  H7  1  0.44001784  0.67355124  0.96754044  1  0.342785  0.428567  -0.000561  0.831187  0.0
H  H8  1  0.81745884  0.12471656  0.02603618  1  0.30684  0.4221  0.000571  0.897864  0.001
H  H9  1  0.18251567  0.87528136  0.97396860  1  0.306922  0.422245  -0.000571  0.897638  -0.001
H  H10  1  0.74070502  0.97244287  0.03525904  1  0.299038  0.393329  0.000545  0.949493  0.001
H  H11  1  0.25929018  0.02755661  0.96476416  1  0.299015  0.393291  -0.000546  0.949523  -0.001
H  H12  1  0.37898374  0.36922431  0.25841369  1  0.137829  0.117629  0.001646  0.981687  0.003
H  H13  1  0.62102004  0.63077690  0.74156223  1  0.137864  0.117611  -0.001649  0.981973  -0.003
H  H14  1  0.48964828  0.85733215  0.20069962  1  0.282033  0.383031  -1.6e-05  0.959474  0.0
H  H15  1  0.51035401  0.14267776  0.79930225  1  0.282038  0.383013  1.6e-05  0.959474  0.0
H  H16  1  0.38459865  0.94286512  0.10966159  1  0.288773  0.390053  -0.000351  0.932177  0.0
H  H17  1  0.61540382  0.05714271  0.89034298  1  0.28882  0.390099  0.000352  0.932156  0.0
H  H18  1  0.60204936  0.16224371  0.62630566  1  0.118117  0.132617  0.000798  1.014947  0.001
H  H19  1  0.39796603  0.83775787  0.37368868  1  0.118114  0.132628  -0.000799  1.014861  -0.001
H  H20  1  0.88818422  0.91788719  0.19093476  1  0.127608  0.095797  0.001575  1.028042  0.002
H  H21  1  0.11180614  0.08212536  0.80903545  1  0.127672  0.095817  -0.001577  1.028168  -0.002
H  H22  1  0.74784685  0.98146077  0.60249685  1  0.121238  0.143416  0.000761  0.988745  0.001
H  H23  1  0.25216756  0.01855331  0.39748392  1  0.121238  0.14353  -0.000762  0.988687  -0.001
H  H24  1  0.02257115  0.76643964  0.34742648  1  0.129031  0.149853  0.000592  0.99795  0.001
H  H25  1  0.97741837  0.23356985  0.65255434  1  0.12909  0.149924  -0.000591  0.997708  -0.001
H  H26  1  0.28366320  0.45979614  0.44947229  1  0.127696  0.149275  0.000596  0.991151  0.001
H  H27  1  0.71634261  0.54019475  0.55052149  1  0.127642  0.149208  -0.000595  0.99125  -0.001
C  C28  1  0.96575393  0.77493253  0.58304423  1  0.198728  0.54489  8e-05  4.236534  0.0
C  C29  1  0.03423336  0.22507472  0.41692703  1  0.198654  0.544378  -8e-05  4.235134  0.0
C  C30  1  0.71000525  0.04758810  0.42007517  1  0.122818  0.167726  0.001185  4.001106  0.001
C  C31  1  0.28998924  0.95241966  0.57993374  1  0.122907  0.167813  -0.001191  4.001586  -0.001
C  C32  1  0.42384504  0.32550015  0.34176398  1  0.075178  0.133029  0.000345  3.873145  -0.001
C  C33  1  0.57616133  0.67450031  0.65823735  1  0.075145  0.133082  -0.000344  3.874189  0.001
C  C34  1  0.59340018  0.16104242  0.43678885  1  0.124313  0.168066  0.001465  3.999782  0.001
C  C35  1  0.40660863  0.83895712  0.56322128  1  0.124416  0.168108  -0.00147  4.000104  -0.001
C  C36  1  0.89277184  0.86441759  0.48580752  1  0.009782  0.024254  -0.002512  3.948272  -0.003
C  C37  1  0.10723240  0.13556500  0.51420230  1  0.009883  0.024618  0.00251  3.947261  0.003
C  C38  1  0.54970108  0.20841778  0.54612178  1  -0.063632  -0.148627  0.003155  3.872871  0.003
C  C39  1  0.45029680  0.79158998  0.45388277  1  -0.06372  -0.148579  -0.003158  3.873149  -0.003
C  C40  1  0.43544066  0.31541891  0.55231412  1  0.007761  0.0095  -0.002678  3.936763  -0.003
C  C41  1  0.56456197  0.68459026  0.44771666  1  0.007776  0.009117  0.002676  3.936746  0.003
C  C42  1  0.85876043  0.92885923  0.28245700  1  0.068876  0.128154  6.6e-05  3.887786  -0.001
C  C43  1  0.14123679  0.07113996  0.71753646  1  0.068861  0.128247  -6.6e-05  3.888902  0.001
C  C44  1  0.37686061  0.36006694  0.67021190  1  0.231261  0.604295  0.00017  4.190525  0.0
C  C45  1  0.62314269  0.63990790  0.32976491  1  0.231221  0.604371  -0.00017  4.189575  0.0
C  C46  1  0.78000577  0.96705255  0.51162896  1  -0.065278  -0.161661  0.003055  3.886432  0.003
C  C47  1  0.22000684  0.03293837  0.48835873  1  -0.065215  -0.161837  -0.003056  3.8863  -0.003
C  C48  1  0.93495668  0.84607426  0.36965217  1  -0.054837  -0.116624  0.005128  3.855481  0.006
C  C49  1  0.06503807  0.15391350  0.63036092  1  -0.055038  -0.116936  -0.005125  3.85556  -0.006
C  C50  1  0.37293931  0.37597573  0.44836739  1  -0.060161  -0.126278  0.005836  3.882861  0.007
C  C51  1  0.62707681  0.62401989  0.55166041  1  -0.060127  -0.126141  -0.005834  3.883499  -0.007
S  S52  1  0.89330353  0.72016727  0.01334115  1  0.627704  1.511346  -3.9e-05  6.311064  0.0
S  S53  1  0.10669943  0.27983317  0.98666279  1  0.627716  1.511079  4e-05  6.31059  0.0
N  N54  1  0.74767623  0.02530928  0.30691330  1  -0.328219  -0.273233  0.068304  3.57042  0.088
N  N55  1  0.25230803  0.97470958  0.69306368  1  -0.328303  -0.273313  -0.068285  3.571446  -0.088
N  N56  1  0.52988298  0.21945315  0.33666917  1  -0.326637  -0.256424  0.072865  3.562111  0.094
N  N57  1  0.47012974  0.78053446  0.66330550  1  -0.326551  -0.256263  -0.072865  3.562522  -0.094
O  O58  1  0.91356244  0.46465047  0.69171187  1  -0.755144  -0.707432  -8.1e-05  1.809031  0.0
O  O59  1  0.08641080  0.53536646  0.30829576  1  -0.755376  -0.707506  8.1e-05  1.809569  0.0
O  O60  1  0.20470938  0.67594176  0.82050130  1  -0.77162  -0.794801  0.00088  2.009505  0.0
O  O61  1  0.79530909  0.32404940  0.17950128  1  -0.771615  -0.794875  -0.000879  2.009233  0.0
O  O62  1  0.90094984  0.63373210  0.90620579  1  -0.409716  -0.722155  -3e-06  2.326586  0.0
O  O63  1  0.09905274  0.36627358  0.09379535  1  -0.40971  -0.722071  3e-06  2.326575  0.0
O  O64  1  0.25885400  0.44718736  0.66391945  1  -0.39653  -0.644243  5e-06  2.366988  0.0
O  O65  1  0.74114769  0.55276567  0.33609223  1  -0.396483  -0.644117  -5e-06  2.366763  0.0
O  O66  1  0.49289465  0.28586269  0.09063016  1  -0.557373  -0.722364  0.048178  2.123678  0.064
O  O67  1  0.50709383  0.71414920  0.90937859  1  -0.55747  -0.722371  -0.048172  2.12422  -0.064
O  O68  1  0.91124584  0.78271764  0.68579201  1  -0.338529  -0.579685  -0.000165  2.204089  0.0
O  O69  1  0.08878500  0.21727230  0.31417829  1  -0.33863  -0.57968  0.000164  2.203039  0.0
O  O70  1  0.07830740  0.68940911  0.56179047  1  -0.333665  -0.569998  -7.2e-05  2.20132  0.0
O  O71  1  0.92167232  0.31058052  0.43822162  1  -0.333498  -0.569728  7.1e-05  2.201135  0.0
O  O72  1  0.88166327  0.61938837  0.11523757  1  -0.423713  -0.745337  3e-05  2.410607  0.0
O  O73  1  0.11832239  0.38061278  0.88475840  1  -0.423736  -0.745273  -3.1e-05  2.410577  0.0
O  O74  1  0.71969903  0.07720740  0.04234417  1  -0.570452  -0.771091  0.042465  2.177831  0.057
O  O75  1  0.28027509  0.92279689  0.95766477  1  -0.570545  -0.771186  -0.042456  2.177987  -0.057
O  O76  1  0.74817466  0.81011364  0.00597428  1  -0.333017  -0.637444  -3e-05  2.231161  0.0
O  O77  1  0.25183743  0.18988691  0.99402708  1  -0.333072  -0.637407  2.9e-05  2.230978  0.0
O  O78  1  0.02418718  0.80848244  0.02858685  1  -0.32968  -0.635719  -0.000355  2.166565  0.0
O  O79  1  0.97581603  0.19149913  0.97142737  1  -0.329633  -0.635618  0.000354  2.16628  0.0
O  O80  1  0.43961237  0.31131824  0.76227130  1  -0.292316  -0.514071  -0.000229  2.137885  0.0
O  O81  1  0.56036794  0.68869332  0.23771904  1  -0.292275  -0.514081  0.000228  2.137635  0.0
O  O82  1  0.44432240  0.95352145  0.18203817  1  -0.605835  -0.802983  -0.001779  1.988401  -0.001
O  O83  1  0.55568884  0.04649177  0.81796450  1  -0.605894  -0.802951  0.001781  1.988453  0.001
