# generated using pymatgen
data_LiH2C3NO2
_symmetry_space_group_name_H-M   'P 1'
_cell_length_a   9.85239818
_cell_length_b   9.85242028
_cell_length_c   10.16078875
_cell_angle_alpha   113.40527554
_cell_angle_beta   113.40467645
_cell_angle_gamma   100.40921962
_symmetry_Int_Tables_number   1
_chemical_formula_structural   LiH2C3NO2
_chemical_formula_sum   'Li8 H16 C24 N8 O16'
_cell_volume   760.64580597
_cell_formula_units_Z   8
loop_
 _symmetry_equiv_pos_site_id
 _symmetry_equiv_pos_as_xyz
  1  'x, y, z'
loop_
 _atom_site_type_symbol
 _atom_site_label
 _atom_site_symmetry_multiplicity
 _atom_site_fract_x
 _atom_site_fract_y
 _atom_site_fract_z
 _atom_site_occupancy
 _atom_site_hle17_bader_spin_density
 _atom_site_hle17_ddec_charge
 _atom_site_hle17_ddec_spin_density
 _atom_site_hle17_ddec_sum_bond_order
 _atom_site_hle17_magmom
 _atom_site_hse06_10hf_bader_spin_density
 _atom_site_hse06_10hf_ddec_charge
 _atom_site_hse06_10hf_ddec_spin_density
 _atom_site_hse06_10hf_ddec_sum_bond_order
 _atom_site_hse06_10hf_magmom
 _atom_site_hse06_bader_spin_density
 _atom_site_hse06_ddec_charge
 _atom_site_hse06_ddec_spin_density
 _atom_site_hse06_ddec_sum_bond_order
 _atom_site_hse06_magmom
 _atom_site_pbe_bader_spin_density
 _atom_site_pbe_cm5_charge
 _atom_site_pbe_ddec_charge
 _atom_site_pbe_ddec_spin_density
 _atom_site_pbe_ddec_sum_bond_order
 _atom_site_pbe_magmom
Li  Li0  1  0.63213421  0.46857176  0.26919458  1  0  0.856224  0  0.402004  0  0  0.819432  0  0.502145  0  0  0.82901  0  0.485066  0  0  0.534999  0.812489  0  0.514515  0
Li  Li1  1  0.19938270  0.36293998  0.73080754  1  0  0.856233  0  0.401996  0  0  0.819426  0  0.502157  0  0  0.829004  0  0.485079  0  0  0.534999  0.812484  0  0.514526  0
Li  Li2  1  0.71856954  0.38212604  0.76919486  1  0  0.856261  0  0.401943  0  0  0.819444  0  0.502124  0  0  0.829023  0  0.485043  0  0  0.53502  0.812502  0  0.514495  0
Li  Li3  1  0.61293231  0.94937330  0.23080302  1  0  0.856263  0  0.40194  0  0  0.819457  0  0.502104  0  0  0.829035  0  0.485023  0  0  0.535024  0.812515  0  0.514474  0
Li  Li4  1  0.50592156  0.26831246  0.88429630  1  0  0.83825  0  0.41842  0  0  0.789195  0  0.53499  0  0  0.80055  0  0.516005  0  0  0.55635  0.780784  0  0.549233  0
Li  Li5  1  0.38401733  0.62162350  0.11570306  1  0  0.838251  0  0.418416  0  0  0.789206  0  0.534969  0  0  0.800558  0  0.515988  0  0  0.556363  0.780795  0  0.549212  0
Li  Li6  1  0.51831716  0.25592318  0.38430084  1  0  0.838244  0  0.418425  0  0  0.789188  0  0.534993  0  0  0.800543  0  0.516007  0  0  0.556341  0.780777  0  0.549236  0
Li  Li7  1  0.87162116  0.13401549  0.61569975  1  0  0.838251  0  0.418421  0  0  0.789189  0  0.535  0  0  0.800545  0  0.516013  0  0  0.556347  0.780778  0  0.549242  0
H  H8  1  0.32595155  0.92283526  0.40076531  1  0  0.094461  0  0.951386  0  0  0.102114  0  1.018865  0  0  0.104517  0  1.016272  0  0  0.144795  0.100514  0  1.02047  0
H  H9  1  0.52207280  0.92518695  0.59923565  1  0  0.094488  0  0.951359  0  0  0.102146  0  1.018825  0  0  0.104549  0  1.016233  0  0  0.144822  0.100546  0  1.02043  0
H  H10  1  0.17283793  0.07595357  0.90076767  1  0  0.094473  0  0.951399  0  0  0.102133  0  1.018878  0  0  0.104536  0  1.016286  0  0  0.144787  0.100532  0  1.020481  0
H  H11  1  0.17518465  0.27207096  0.09923106  1  0  0.094447  0  0.951408  0  0  0.102104  0  1.018891  0  0  0.104506  0  1.016299  0  0  0.144782  0.100504  0  1.020495  0
H  H12  1  0.15144834  0.96874560  0.51284382  1  0  0.112876  0  0.95302  0  0  0.129954  0  1.02163  0  0  0.130416  0  1.022799  0  0  0.118288  0.129432  0  1.021113  0
H  H13  1  0.45590469  0.63860190  0.48715485  1  0  0.112837  0  0.952998  0  0  0.129916  0  1.021603  0  0  0.130378  0  1.02277  0  0  0.118281  0.129393  0  1.021088  0
H  H14  1  0.21875259  0.90145794  0.01285303  1  0  0.112804  0  0.953114  0  0  0.129933  0  1.021619  0  0  0.130394  0  1.022789  0  0  0.118273  0.129411  0  1.021105  0
H  H15  1  0.88860761  0.20590312  0.98714913  1  0  0.112827  0  0.953102  0  0  0.12993  0  1.021638  0  0  0.130391  0  1.022808  0  0  0.11828  0.129407  0  1.021123  0
H  H16  1  0.04410638  0.78670317  0.49321542  1  0  0.117819  0  0.934795  0  0  0.135449  0  0.997516  0  0  0.136726  0  0.997041  0  0  0.113219  0.134455  0  0.997864  0
H  H17  1  0.29348606  0.55088749  0.50678296  1  0  0.117785  0  0.934802  0  0  0.135389  0  0.99755  0  0  0.136668  0  0.997074  0  0  0.113219  0.134396  0  0.997898  0
H  H18  1  0.03670316  0.79411292  0.99321384  1  0  0.117834  0  0.934688  0  0  0.135443  0  0.997429  0  0  0.136713  0  0.996963  0  0  0.113212  0.134451  0  0.997778  0
H  H19  1  0.80089989  0.04348886  0.00678743  1  0  0.117827  0  0.93472  0  0  0.135421  0  0.99747  0  0  0.136685  0  0.997011  0  0  0.11322  0.134428  0  0.997819  0
H  H20  1  0.93906613  0.85808216  0.36577688  1  0  0.120384  0  0.936076  0  0  0.140466  0  0.995133  0  0  0.14119  0  0.995572  0  0  0.124005  0.139986  0  0.994787  0
H  H21  1  0.49230917  0.57329489  0.63422670  1  0  0.120355  0  0.936082  0  0  0.140413  0  0.995176  0  0  0.141137  0  0.995614  0  0  0.124033  0.139935  0  0.99483  0
H  H22  1  0.10808596  0.68906609  0.86577248  1  0  0.120398  0  0.936053  0  0  0.140418  0  0.995191  0  0  0.141142  0  0.995629  0  0  0.123976  0.139942  0  0.994842  0
H  H23  1  0.82329383  0.24231375  0.13422657  1  0  0.120403  0  0.936034  0  0  0.140428  0  0.995163  0  0  0.141152  0  0.995599  0  0  0.124015  0.139951  0  0.994815  0
C  C24  1  0.82493671  0.51400013  0.11995349  1  0  0.698289  0  3.948855  0  0  0.653453  0  4.248955  0  0  0.686629  0  4.236872  0  0  0.237451  0.63086  0  4.25668  0
C  C25  1  0.39404996  0.70498310  0.88004775  1  0  0.698233  0  3.948926  0  0  0.653452  0  4.248935  0  0  0.68663  0  4.236851  0  0  0.237479  0.63086  0  4.256661  0
C  C26  1  0.76400456  0.57493418  0.61997107  1  0  0.698206  0  3.948874  0  0  0.653417  0  4.248957  0  0  0.686594  0  4.236876  0  0  0.237408  0.630825  0  4.256684  0
C  C27  1  0.95496507  0.14403856  0.38003277  1  0  0.698193  0  3.948991  0  0  0.653439  0  4.249  0  0  0.686614  0  4.236922  0  0  0.237458  0.630847  0  4.256723  0
C  C28  1  0.98851123  0.60299618  0.15807105  1  0  -0.024204  0  3.586858  0  0  -0.038552  0  3.833367  0  0  -0.036995  0  3.84906  0  0  0.105072  -0.039714  0  3.823001  0
C  C29  1  0.44493020  0.83043929  0.84193073  1  0  -0.02426  0  3.586791  0  0  -0.038617  0  3.833303  0  0  -0.037069  0  3.849009  0  0  0.105033  -0.03978  0  3.822938  0
C  C30  1  0.85300899  0.73850441  0.65807385  1  0  -0.024193  0  3.586625  0  0  -0.038626  0  3.833215  0  0  -0.03708  0  3.848926  0  0  0.105002  -0.039789  0  3.822852  0
C  C31  1  0.08043168  0.19493995  0.34192865  1  0  -0.024126  0  3.586644  0  0  -0.038556  0  3.833199  0  0  -0.037006  0  3.848906  0  0  0.104998  -0.039718  0  3.822834  0
C  C32  1  0.08065960  0.56421550  0.08492558  1  0  -0.025463  0  3.765057  0  0  -0.03106  0  4.032622  0  0  -0.035077  0  4.052575  0  0  0.083367  -0.028768  0  4.019989  0
C  C33  1  0.47928900  0.99573291  0.91507216  1  0  -0.025376  0  3.765008  0  0  -0.030993  0  4.032609  0  0  -0.035007  0  4.052564  0  0  0.083415  -0.0287  0  4.019973  0
C  C34  1  0.81421893  0.83064961  0.58492506  1  0  -0.025328  0  3.764794  0  0  -0.030919  0  4.032375  0  0  -0.034933  0  4.052332  0  0  0.083431  -0.028628  0  4.019742  0
C  C35  1  0.24572491  0.22929669  0.41507536  1  0  -0.025376  0  3.764855  0  0  -0.03095  0  4.032409  0  0  -0.034964  0  4.052364  0  0  0.083413  -0.028659  0  4.019777  0
C  C36  1  0.05037083  0.42224028  0.93180072  1  0  0.692662  0  3.918719  0  0  0.643769  0  4.225123  0  0  0.677389  0  4.213411  0  0  0.239272  0.620844  0  4.233551  0
C  C37  1  0.49043916  0.11856892  0.06819715  1  0  0.692665  0  3.918793  0  0  0.643763  0  4.225224  0  0  0.677384  0  4.213512  0  0  0.239271  0.620838  0  4.23365  0
C  C38  1  0.67224473  0.80036429  0.43180092  1  0  0.692662  0  3.918731  0  0  0.643794  0  4.225107  0  0  0.677416  0  4.213394  0  0  0.239268  0.620869  0  4.233537  0
C  C39  1  0.36856286  0.24044453  0.56820026  1  0  0.692635  0  3.91874  0  0  0.643744  0  4.225151  0  0  0.677365  0  4.213438  0  0  0.239239  0.62082  0  4.23358  0
C  C40  1  0.22999819  0.80351265  0.30630399  1  0  0.178743  0  3.687926  0  0  0.118092  0  3.966284  0  0  0.129971  0  3.978214  0  0  0.158856  0.110637  0  3.957499  0
C  C41  1  0.49720285  0.92369102  0.69369078  1  0  0.178737  0  3.68794  0  0  0.118081  0  3.966304  0  0  0.12996  0  3.978232  0  0  0.158871  0.110626  0  3.957518  0
C  C42  1  0.05351561  0.98000073  0.80630385  1  0  0.178713  0  3.687967  0  0  0.118039  0  3.966341  0  0  0.129916  0  3.978272  0  0  0.158845  0.110585  0  3.957553  0
C  C43  1  0.17369631  0.24721054  0.19369365  1  0  0.178743  0  3.687945  0  0  0.118076  0  3.966318  0  0  0.129955  0  3.978247  0  0  0.158871  0.110622  0  3.95753  0
C  C44  1  0.05355973  0.84814249  0.42618794  1  0  -0.17573  0  3.620211  0  0  -0.282931  0  3.876423  0  0  -0.280003  0  3.885839  0  0  -0.123898  -0.28461  0  3.869853  0
C  C45  1  0.42195368  0.62736982  0.57381002  1  0  -0.175577  0  3.620076  0  0  -0.282723  0  3.876261  0  0  -0.279795  0  3.885677  0  0  -0.123768  -0.284404  0  3.869693  0
C  C46  1  0.09815018  0.80356556  0.92618978  1  0  -0.175681  0  3.620218  0  0  -0.282823  0  3.876407  0  0  -0.279888  0  3.885828  0  0  -0.123811  -0.284508  0  3.869843  0
C  C47  1  0.87737702  0.17196026  0.07381027  1  0  -0.175691  0  3.620223  0  0  -0.282796  0  3.876399  0  0  -0.279855  0  3.885822  0  0  -0.123776  -0.28448  0  3.869833  0
N  N48  1  0.23101252  0.69010696  0.18153912  1  0  -0.463121  0  3.185618  0  0  -0.426507  0  3.471951  0  0  -0.437805  0  3.484842  0  0  -0.423638  -0.418825  0  3.463478  0
N  N49  1  0.50856358  0.04947112  0.81845647  1  0  -0.463194  0  3.185633  0  0  -0.426567  0  3.47198  0  0  -0.437866  0  3.484867  0  0  -0.423608  -0.418883  0  3.463503  0
N  N50  1  0.94010628  0.98100466  0.68153599  1  0  -0.463173  0  3.185545  0  0  -0.426543  0  3.471886  0  0  -0.43784  0  3.484777  0  0  -0.423628  -0.41886  0  3.463409  0
N  N51  1  0.29946974  0.25857059  0.31846285  1  0  -0.463139  0  3.185531  0  0  -0.426514  0  3.471858  0  0  -0.437813  0  3.484749  0  0  -0.423526  -0.418831  0  3.463382  0
N  N52  1  0.08808854  0.75513101  0.30003600  1  0  -0.027749  0  3.548789  0  0  0.067747  0  3.767434  0  0  0.054168  0  3.793128  0  0  -0.229985  0.07707  0  3.749559  0
N  N53  1  0.45509264  0.78805121  0.69996090  1  0  -0.027742  0  3.548646  0  0  0.067742  0  3.767305  0  0  0.054166  0  3.793  0  0  -0.230034  0.077064  0  3.749432  0
N  N54  1  0.00513859  0.83808957  0.80003659  1  0  -0.027777  0  3.548789  0  0  0.067745  0  3.767441  0  0  0.054168  0  3.793138  0  0  -0.229988  0.077068  0  3.749567  0
N  N55  1  0.03805385  0.20510388  0.19996361  1  0  -0.027824  0  3.548781  0  0  0.067679  0  3.76744  0  0  0.054101  0  3.793133  0  0  -0.230005  0.077003  0  3.749565  0
O  O56  1  0.71032010  0.42872690  0.96666862  1  0  -0.788862  0  1.980412  0  0  -0.745303  0  2.219398  0  0  -0.765638  0  2.202661  0  0  -0.44954  -0.731147  0  2.230985  0
O  O57  1  0.46206022  0.74365124  0.03333154  1  0  -0.788867  0  1.980479  0  0  -0.745334  0  2.219423  0  0  -0.765675  0  2.202697  0  0  -0.449611  -0.73118  0  2.23101  0
O  O58  1  0.67872701  0.46031474  0.46666991  1  0  -0.788892  0  1.980035  0  0  -0.745348  0  2.219  0  0  -0.765684  0  2.20226  0  0  -0.449556  -0.73119  0  2.230583  0
O  O59  1  0.99364671  0.21206495  0.53333659  1  0  -0.78889  0  1.980108  0  0  -0.74535  0  2.219047  0  0  -0.765691  0  2.202318  0  0  -0.449566  -0.73119  0  2.23063  0
O  O60  1  0.81271863  0.52983953  0.24363790  1  0  -0.688899  0  1.927846  0  0  -0.652153  0  2.157855  0  0  -0.673284  0  2.146765  0  0  -0.370404  -0.637043  0  2.1651  0
O  O61  1  0.28620615  0.56907823  0.75636250  1  0  -0.688856  0  1.927815  0  0  -0.652119  0  2.157803  0  0  -0.673246  0  2.146705  0  0  -0.370381  -0.637009  0  2.165048  0
O  O62  1  0.77983319  0.56270599  0.74363645  1  0  -0.688804  0  1.928199  0  0  -0.652059  0  2.1582  0  0  -0.673185  0  2.147104  0  0  -0.370351  -0.636953  0  2.165448  0
O  O63  1  0.81907603  0.03620489  0.25637244  1  0  -0.68883  0  1.928289  0  0  -0.652108  0  2.158271  0  0  -0.673231  0  2.147173  0  0  -0.370396  -0.637003  0  2.165517  0
O  O64  1  0.90642963  0.32124851  0.81482558  1  0  -0.758934  0  1.945358  0  0  -0.711968  0  2.180337  0  0  -0.7319  0  2.164864  0  0  -0.418562  -0.698446  0  2.192088  0
O  O65  1  0.50641976  0.09160050  0.18516982  1  0  -0.758945  0  1.945364  0  0  -0.711989  0  2.180367  0  0  -0.731913  0  2.164874  0  0  -0.418575  -0.698466  0  2.19211  0
O  O66  1  0.57124606  0.65642039  0.31482494  1  0  -0.758996  0  1.945264  0  0  -0.712058  0  2.180263  0  0  -0.731978  0  2.164758  0  0  -0.418595  -0.698526  0  2.191988  0
O  O67  1  0.34159360  0.25642234  0.68517569  1  0  -0.758992  0  1.945244  0  0  -0.712033  0  2.180233  0  0  -0.731964  0  2.164753  0  0  -0.418588  -0.698516  0  2.191994  0
O  O68  1  0.17706279  0.41309083  0.92799164  1  0  -0.756765  0  1.893702  0  0  -0.711205  0  2.127759  0  0  -0.729873  0  2.110458  0  0  -0.399748  -0.698527  0  2.14004  0
O  O69  1  0.48509818  0.24906993  0.07200713  1  0  -0.756777  0  1.893715  0  0  -0.711212  0  2.127777  0  0  -0.729882  0  2.110474  0  0  -0.399741  -0.698535  0  2.140056  0
O  O70  1  0.66309908  0.92705177  0.42799325  1  0  -0.756736  0  1.893824  0  0  -0.711176  0  2.127868  0  0  -0.729847  0  2.110566  0  0  -0.399711  -0.698499  0  2.140146  0
O  O71  1  0.49905518  0.23510621  0.57200722  1  0  -0.756704  0  1.893847  0  0  -0.711135  0  2.1279  0  0  -0.729805  0  2.1106  0  0  -0.399684  -0.698457  0  2.140179  0
