# generated using pymatgen
data_DyPH9C8NO9
_symmetry_space_group_name_H-M   'P 1'
_cell_length_a   9.47330428
_cell_length_b   10.48197254
_cell_length_c   15.55068976
_cell_angle_alpha   89.99994057
_cell_angle_beta   102.45783233
_cell_angle_gamma   89.99990317
_symmetry_Int_Tables_number   1
_chemical_formula_structural   DyPH9C8NO9
_chemical_formula_sum   'Dy4 P4 H36 C32 N4 O36'
_cell_volume   1507.80927581
_cell_formula_units_Z   4
loop_
 _symmetry_equiv_pos_site_id
 _symmetry_equiv_pos_as_xyz
  1  'x, y, z'
loop_
 _atom_site_type_symbol
 _atom_site_label
 _atom_site_symmetry_multiplicity
 _atom_site_fract_x
 _atom_site_fract_y
 _atom_site_fract_z
 _atom_site_occupancy
 _atom_site_hle17_bader_spin_density
 _atom_site_hle17_ddec_charge
 _atom_site_hle17_ddec_spin_density
 _atom_site_hle17_ddec_sum_bond_order
 _atom_site_hle17_magmom
 _atom_site_hse06_10hf_bader_spin_density
 _atom_site_hse06_10hf_ddec_charge
 _atom_site_hse06_10hf_ddec_spin_density
 _atom_site_hse06_10hf_ddec_sum_bond_order
 _atom_site_hse06_10hf_magmom
 _atom_site_hse06_bader_spin_density
 _atom_site_hse06_ddec_charge
 _atom_site_hse06_ddec_spin_density
 _atom_site_hse06_ddec_sum_bond_order
 _atom_site_hse06_magmom
 _atom_site_pbe_bader_spin_density
 _atom_site_pbe_cm5_charge
 _atom_site_pbe_ddec_charge
 _atom_site_pbe_ddec_spin_density
 _atom_site_pbe_ddec_sum_bond_order
 _atom_site_pbe_magmom
Dy  Dy0  1  0.21731791  0.10998074  0.39388861  1  0  2.265668  0  1.670248  0  0  2.122924  0  2.144049  0  0  2.244744  0  1.959504  0  0  1.52357  2.089188  0  2.174191  0
Dy  Dy1  1  0.28267626  0.60997936  0.10611247  1  0  2.265648  0  1.670188  0  0  2.122894  0  2.143999  0  0  2.244717  0  1.95945  0  0  1.523623  2.089149  0  2.174127  0
Dy  Dy2  1  0.78267417  0.89001654  0.60611420  1  0  2.265645  0  1.670206  0  0  2.122881  0  2.144036  0  0  2.24472  0  1.959462  0  0  1.523608  2.089144  0  2.174165  0
Dy  Dy3  1  0.71731910  0.39001315  0.89388564  1  0  2.265641  0  1.67041  0  0  2.122869  0  2.144272  0  0  2.244707  0  1.959682  0  0  1.523535  2.089137  0  2.174415  0
P  P4  1  0.16543389  0.85597408  0.23322278  1  0  1.591933  0  4.736989  0  0  1.442782  0  5.244902  0  0  1.493242  0  5.20863  0  0  0.376181  1.408492  0  5.27295  0
P  P5  1  0.33457056  0.35597453  0.26677629  1  0  1.592131  0  4.7369  0  0  1.442997  0  5.24477  0  0  1.493436  0  5.208494  0  0  0.376287  1.408703  0  5.272823  0
P  P6  1  0.83457339  0.14402320  0.76677435  1  0  1.591942  0  4.7371  0  0  1.442774  0  5.245039  0  0  1.49321  0  5.208765  0  0  0.376175  1.408485  0  5.273093  0
P  P7  1  0.66543129  0.64402466  0.73322269  1  0  1.591911  0  4.73713  0  0  1.442759  0  5.245086  0  0  1.493211  0  5.208822  0  0  0.376176  1.408467  0  5.273137  0
H  H8  1  0.33051618  0.87212210  0.92717733  1  0  0.127355  0  0.916749  0  0  0.137046  0  0.973218  0  0  0.141501  0  0.968248  0  0  0.136938  0.133916  0  0.976742  0
H  H9  1  0.16948763  0.37212023  0.57282541  1  0  0.127343  0  0.91675  0  0  0.137021  0  0.973225  0  0  0.141451  0  0.968285  0  0  0.136931  0.133891  0  0.976747  0
H  H10  1  0.66949326  0.12788282  0.07282074  1  0  0.127396  0  0.916668  0  0  0.137075  0  0.973155  0  0  0.141507  0  0.968213  0  0  0.136951  0.133945  0  0.976676  0
H  H11  1  0.83050661  0.62788373  0.42717833  1  0  0.127359  0  0.916678  0  0  0.137045  0  0.973155  0  0  0.141469  0  0.968222  0  0  0.136932  0.133912  0  0.976675  0
H  H12  1  0.39608373  0.10749593  0.92270997  1  0  0.114061  0  0.938692  0  0  0.123092  0  0.995113  0  0  0.126816  0  0.993787  0  0  0.115087  0.12043  0  0.996647  0
H  H13  1  0.10391961  0.60749391  0.57729031  1  0  0.114028  0  0.9387  0  0  0.123062  0  0.995127  0  0  0.126785  0  0.993802  0  0  0.115051  0.120395  0  0.996658  0
H  H14  1  0.60392357  0.89250899  0.07728459  1  0  0.113997  0  0.938904  0  0  0.123065  0  0.995266  0  0  0.126786  0  0.993944  0  0  0.115079  0.120398  0  0.996797  0
H  H15  1  0.89607788  0.39250910  0.42271194  1  0  0.113984  0  0.938841  0  0  0.123079  0  0.99518  0  0  0.126803  0  0.993857  0  0  0.115067  0.120414  0  0.996714  0
H  H16  1  0.29982188  0.25918666  0.02217566  1  0  0.11785  0  0.950543  0  0  0.12535  0  1.012532  0  0  0.128801  0  1.009554  0  0  0.115061  0.123283  0  1.013758  0
H  H17  1  0.20018169  0.75918388  0.47782529  1  0  0.117882  0  0.950532  0  0  0.125383  0  1.012523  0  0  0.128839  0  1.009538  0  0  0.115049  0.123307  0  1.013765  0
H  H18  1  0.70018217  0.74081730  0.97781911  1  0  0.117969  0  0.950421  0  0  0.125391  0  1.012487  0  0  0.128844  0  1.009506  0  0  0.115045  0.12332  0  1.01372  0
H  H19  1  0.79981905  0.24081627  0.52217675  1  0  0.117897  0  0.950521  0  0  0.125387  0  1.012523  0  0  0.128843  0  1.009537  0  0  0.115069  0.123314  0  1.013766  0
H  H20  1  0.14965537  0.17139883  0.12191454  1  0  0.129449  0  0.92233  0  0  0.139474  0  0.978361  0  0  0.143517  0  0.976013  0  0  0.121024  0.136863  0  0.97943  0
H  H21  1  0.35035163  0.67139502  0.37808822  1  0  0.129448  0  0.922298  0  0  0.139405  0  0.978425  0  0  0.143445  0  0.976087  0  0  0.120997  0.136793  0  0.979489  0
H  H22  1  0.85035408  0.82860609  0.87808225  1  0  0.129512  0  0.922183  0  0  0.139472  0  0.978286  0  0  0.143514  0  0.975945  0  0  0.121016  0.136861  0  0.979356  0
H  H23  1  0.64965342  0.32860226  0.62191633  1  0  0.129521  0  0.922302  0  0  0.139527  0  0.978352  0  0  0.143571  0  0.976009  0  0  0.121055  0.136919  0  0.979422  0
H  H24  1  0.99745697  0.84285009  0.09502523  1  0  0.165658  0  0.953681  0  0  0.171834  0  1.018835  0  0  0.175343  0  1.017566  0  0  0.120008  0.169269  0  1.020234  0
H  H25  1  0.50254672  0.34284413  0.40497549  1  0  0.165705  0  0.953629  0  0  0.171871  0  1.018783  0  0  0.17537  0  1.017509  0  0  0.120013  0.169305  0  1.020182  0
H  H26  1  0.00254600  0.15715674  0.90497004  1  0  0.16571  0  0.953733  0  0  0.171917  0  1.018829  0  0  0.175417  0  1.017553  0  0  0.120017  0.16935  0  1.020228  0
H  H27  1  0.49745506  0.65715315  0.59503119  1  0  0.165629  0  0.953776  0  0  0.171832  0  1.01891  0  0  0.17534  0  1.017638  0  0  0.119971  0.169264  0  1.020307  0
H  H28  1  0.98866154  0.99443984  0.14806562  1  0  0.141256  0  0.941669  0  0  0.153889  0  0.998782  0  0  0.156355  0  0.997994  0  0  0.111691  0.152204  0  0.999396  0
H  H29  1  0.51134504  0.49443586  0.35193731  1  0  0.141279  0  0.941733  0  0  0.153894  0  0.998865  0  0  0.156344  0  0.998078  0  0  0.111682  0.152207  0  0.999477  0
H  H30  1  0.01135113  0.00556794  0.85193352  1  0  0.141249  0  0.941774  0  0  0.153897  0  0.99887  0  0  0.156346  0  0.998084  0  0  0.11169  0.152211  0  0.999481  0
H  H31  1  0.48865459  0.50556428  0.64806909  1  0  0.141268  0  0.94175  0  0  0.153948  0  0.998807  0  0  0.156406  0  0.998026  0  0  0.111732  0.152262  0  0.999423  0
H  H32  1  0.03269957  0.83662374  0.32844457  1  0  0.426254  0  0.879218  0  0  0.393717  0  0.945306  0  0  0.406282  0  0.927054  0  0  0.308631  0.385001  0  0.957981  0
H  H33  1  0.46729734  0.33662223  0.17155479  1  0  0.426213  0  0.879261  0  0  0.393666  0  0.94536  0  0  0.406231  0  0.92711  0  0  0.308634  0.384952  0  0.958033  0
H  H34  1  0.96729691  0.16336973  0.67155047  1  0  0.426369  0  0.87906  0  0  0.393883  0  0.945084  0  0  0.406446  0  0.926833  0  0  0.308664  0.385163  0  0.957769  0
H  H35  1  0.53270124  0.66336647  0.82844696  1  0  0.426335  0  0.879118  0  0  0.393843  0  0.945146  0  0  0.406406  0  0.926895  0  0  0.308675  0.385125  0  0.957828  0
H  H36  1  0.99417837  0.24209281  0.26138731  1  0  0.459748  0  0.796307  0  0  0.4394  0  0.842957  0  0  0.449137  0  0.82887  0  0  0.336445  0.432751  0  0.85273  0
H  H37  1  0.50582017  0.74208973  0.23861021  1  0  0.459631  0  0.79636  0  0  0.439333  0  0.843003  0  0  0.449067  0  0.828923  0  0  0.336422  0.432681  0  0.85278  0
H  H38  1  0.00582889  0.75790829  0.73861239  1  0  0.459744  0  0.796239  0  0  0.439399  0  0.842929  0  0  0.449134  0  0.828847  0  0  0.33647  0.432749  0  0.852704  0
H  H39  1  0.49417090  0.25790470  0.76138346  1  0  0.459702  0  0.796479  0  0  0.43935  0  0.843053  0  0  0.449087  0  0.828967  0  0  0.336447  0.4327  0  0.852828  0
H  H40  1  0.87673863  0.15924777  0.29672499  1  0  0.459101  0  0.787225  0  0  0.447275  0  0.819437  0  0  0.45509  0  0.808647  0  0  0.348844  0.441764  0  0.827292  0
H  H41  1  0.62325794  0.65924457  0.20327104  1  0  0.459064  0  0.787336  0  0  0.447227  0  0.819521  0  0  0.455045  0  0.808728  0  0  0.348839  0.441715  0  0.827378  0
H  H42  1  0.12325895  0.84075428  0.70326634  1  0  0.459085  0  0.787321  0  0  0.447252  0  0.819492  0  0  0.455069  0  0.8087  0  0  0.348836  0.441737  0  0.827352  0
H  H43  1  0.37674283  0.34075367  0.79672779  1  0  0.459118  0  0.787225  0  0  0.44729  0  0.819427  0  0  0.455105  0  0.808637  0  0  0.348851  0.441778  0  0.827283  0
C  C44  1  0.29290463  0.94586680  0.96602918  1  0  -0.002183  0  3.616493  0  0  -0.0455  0  3.879795  0  0  -0.038075  0  3.891662  0  0  0.039204  -0.050373  0  3.873129  0
C  C45  1  0.20710118  0.44586398  0.53397185  1  0  -0.002108  0  3.616648  0  0  -0.045407  0  3.879938  0  0  -0.037959  0  3.891817  0  0  0.039267  -0.050277  0  3.87327  0
C  C46  1  0.70710481  0.05413716  0.03396824  1  0  -0.00221  0  3.616705  0  0  -0.045544  0  3.880054  0  0  -0.038099  0  3.891932  0  0  0.039184  -0.050412  0  3.873382  0
C  C47  1  0.79289523  0.55413807  0.46603090  1  0  -0.002119  0  3.616711  0  0  -0.045441  0  3.880037  0  0  -0.037988  0  3.891919  0  0  0.039258  -0.050305  0  3.873358  0
C  C48  1  0.32768139  0.07399462  0.96601608  1  0  -0.105598  0  3.779836  0  0  -0.11936  0  4.040988  0  0  -0.125925  0  4.061146  0  0  -0.079919  -0.115121  0  4.029291  0
C  C49  1  0.17232525  0.57399447  0.53398789  1  0  -0.105651  0  3.779775  0  0  -0.119423  0  4.040939  0  0  -0.125989  0  4.061093  0  0  -0.079919  -0.115176  0  4.02923  0
C  C50  1  0.67232589  0.92600744  0.03398169  1  0  -0.105737  0  3.780003  0  0  -0.119533  0  4.041136  0  0  -0.126097  0  4.061287  0  0  -0.080054  -0.115287  0  4.029427  0
C  C51  1  0.82767330  0.42600854  0.46601708  1  0  -0.105765  0  3.780075  0  0  -0.119585  0  4.041241  0  0  -0.12615  0  4.061389  0  0  -0.08008  -0.115339  0  4.029534  0
C  C52  1  0.27577448  0.15774967  0.02179840  1  0  -9e-06  0  3.688602  0  0  -0.027739  0  3.952323  0  0  -0.021567  0  3.966002  0  0  -0.067048  -0.031667  0  3.942297  0
C  C53  1  0.22423364  0.65774589  0.47820388  1  0  6.1e-05  0  3.688411  0  0  -0.027682  0  3.95213  0  0  -0.02151  0  3.965807  0  0  -0.066994  -0.031606  0  3.942093  0
C  C54  1  0.72423606  0.84225620  0.97819660  1  0  0.000209  0  3.688392  0  0  -0.027451  0  3.95206  0  0  -0.02127  0  3.965722  0  0  -0.066871  -0.031376  0  3.942032  0
C  C55  1  0.77576816  0.34225426  0.52180088  1  0  0.000197  0  3.688426  0  0  -0.02753  0  3.952148  0  0  -0.021355  0  3.965825  0  0  -0.066907  -0.031458  0  3.942122  0
C  C56  1  0.19016134  0.10941146  0.07646525  1  0  -0.11765  0  3.661961  0  0  -0.140264  0  3.921548  0  0  -0.145275  0  3.937536  0  0  -0.06641  -0.136197  0  3.909454  0
C  C57  1  0.30984797  0.60940764  0.42353786  1  0  -0.117617  0  3.661955  0  0  -0.140236  0  3.921526  0  0  -0.145273  0  3.937501  0  0  -0.0664  -0.136161  0  3.909428  0
C  C58  1  0.80985025  0.89059632  0.92353375  1  0  -0.117839  0  3.662062  0  0  -0.140442  0  3.921568  0  0  -0.145481  0  3.937543  0  0  -0.066452  -0.136373  0  3.909479  0
C  C59  1  0.69015384  0.39059251  0.57646690  1  0  -0.117788  0  3.661936  0  0  -0.140414  0  3.921517  0  0  -0.145462  0  3.937486  0  0  -0.066484  -0.136349  0  3.909437  0
C  C60  1  0.15384394  0.98051089  0.07511579  1  0  0.212447  0  3.647961  0  0  0.204391  0  3.898011  0  0  0.21351  0  3.915559  0  0  0.124391  0.198246  0  3.886556  0
C  C61  1  0.34616343  0.48050725  0.42488745  1  0  0.212156  0  3.648177  0  0  0.204313  0  3.897941  0  0  0.213483  0  3.915389  0  0  0.124312  0.198161  0  3.886494  0
C  C62  1  0.84616874  0.01949307  0.92488271  1  0  0.212211  0  3.648144  0  0  0.204329  0  3.897961  0  0  0.213497  0  3.915409  0  0  0.124241  0.198178  0  3.886513  0
C  C63  1  0.65383619  0.51948908  0.57511894  1  0  0.212291  0  3.648205  0  0  0.20434  0  3.898153  0  0  0.213543  0  3.915586  0  0  0.124281  0.19819  0  3.886706  0
C  C64  1  0.06086871  0.92203719  0.13012732  1  0  -0.535756  0  3.727063  0  0  -0.557121  0  3.964426  0  0  -0.567194  0  3.968825  0  0  -0.162634  -0.550175  0  3.961936  0
C  C65  1  0.43913665  0.42203159  0.36987247  1  0  -0.535739  0  3.727077  0  0  -0.557191  0  3.964485  0  0  -0.567218  0  3.96879  0  0  -0.162616  -0.550226  0  3.961978  0
C  C66  1  0.93913965  0.07796868  0.86986931  1  0  -0.535791  0  3.727278  0  0  -0.557257  0  3.964605  0  0  -0.56728  0  3.968906  0  0  -0.16265  -0.550298  0  3.962099  0
C  C67  1  0.56086193  0.57796378  0.63012928  1  0  -0.535701  0  3.72724  0  0  -0.557197  0  3.964645  0  0  -0.567282  0  3.969011  0  0  -0.162617  -0.550237  0  3.96214  0
C  C68  1  0.54254366  0.03469404  0.46924279  1  0  0.567571  0  3.928268  0  0  0.52718  0  4.224385  0  0  0.557492  0  4.221653  0  0  0.213859  0.506672  0  4.230416  0
C  C69  1  0.95745958  0.53469634  0.03076644  1  0  0.567686  0  3.928506  0  0  0.527386  0  4.224454  0  0  0.557701  0  4.221724  0  0  0.214049  0.506874  0  4.230484  0
C  C70  1  0.45745698  0.96530611  0.53077210  1  0  0.567522  0  3.928578  0  0  0.527333  0  4.224446  0  0  0.557649  0  4.221716  0  0  0.21398  0.506821  0  4.230477  0
C  C71  1  0.04254875  0.46531240  0.96923341  1  0  0.567339  0  3.928472  0  0  0.527156  0  4.224301  0  0  0.557467  0  4.221575  0  0  0.213828  0.506645  0  4.230332  0
C  C72  1  0.01139654  0.06128098  0.52837833  1  0  0.582882  0  3.90677  0  0  0.536525  0  4.207516  0  0  0.567264  0  4.202783  0  0  0.222425  0.516141  0  4.213616  0
C  C73  1  0.48858092  0.56128255  0.97162365  1  0  0.583272  0  3.906409  0  0  0.536731  0  4.207372  0  0  0.567498  0  4.202596  0  0  0.222465  0.516337  0  4.21349  0
C  C74  1  0.98857823  0.93870962  0.47162344  1  0  0.583475  0  3.906084  0  0  0.536882  0  4.207097  0  0  0.567651  0  4.202319  0  0  0.222482  0.516483  0  4.213216  0
C  C75  1  0.51140249  0.43871569  0.02838056  1  0  0.583109  0  3.906448  0  0  0.536691  0  4.207257  0  0  0.567434  0  4.202515  0  0  0.222344  0.516297  0  4.213383  0
N  N76  1  0.20713900  0.90078449  0.01931491  1  0  0.234858  0  3.67663  0  0  0.289986  0  3.933239  0  0  0.288199  0  3.958699  0  0  -0.107778  0.290207  0  3.919108  0
N  N77  1  0.29286424  0.40078275  0.48068654  1  0  0.234837  0  3.676699  0  0  0.289911  0  3.933251  0  0  0.288104  0  3.958698  0  0  -0.107861  0.290133  0  3.919132  0
N  N78  1  0.79286935  0.09921757  0.98068301  1  0  0.23477  0  3.676989  0  0  0.289868  0  3.933546  0  0  0.288062  0  3.958998  0  0  -0.107792  0.29009  0  3.919421  0
N  N79  1  0.70713000  0.59921549  0.51931720  1  0  0.23479  0  3.676955  0  0  0.289911  0  3.93352  0  0  0.2881  0  3.958959  0  0  -0.107772  0.290132  0  3.919392  0
O  O80  1  0.23441098  0.96544956  0.29104012  1  0  -0.964113  0  1.985467  0  0  -0.893491  0  2.261206  0  0  -0.931912  0  2.23612  0  0  -0.484199  -0.8749  0  2.273868  0
O  O81  1  0.26559425  0.46545020  0.20896413  1  0  -0.964185  0  1.985553  0  0  -0.893561  0  2.261286  0  0  -0.931985  0  2.236203  0  0  -0.484259  -0.874972  0  2.273952  0
O  O82  1  0.76558974  0.03454868  0.70896514  1  0  -0.964073  0  1.985536  0  0  -0.893446  0  2.26127  0  0  -0.931877  0  2.236207  0  0  -0.484187  -0.874846  0  2.273918  0
O  O83  1  0.73441191  0.53454613  0.79103735  1  0  -0.964127  0  1.985498  0  0  -0.893493  0  2.261212  0  0  -0.931902  0  2.236107  0  0  -0.484221  -0.87489  0  2.273862  0
O  O84  1  0.04950423  0.78505428  0.27622611  1  0  -0.737163  0  1.931371  0  0  -0.672645  0  2.135765  0  0  -0.692107  0  2.108633  0  0  -0.389888  -0.658769  0  2.154346  0
O  O85  1  0.45049604  0.28504985  0.22377374  1  0  -0.737137  0  1.931371  0  0  -0.672615  0  2.135776  0  0  -0.692078  0  2.108653  0  0  -0.389879  -0.658741  0  2.154359  0
O  O86  1  0.95049226  0.21494682  0.72376700  1  0  -0.737273  0  1.931259  0  0  -0.672816  0  2.135611  0  0  -0.692275  0  2.108486  0  0  -0.389933  -0.658941  0  2.154197  0
O  O87  1  0.54951331  0.71494457  0.77623524  1  0  -0.737245  0  1.931305  0  0  -0.67278  0  2.135672  0  0  -0.692241  0  2.108543  0  0  -0.389974  -0.658904  0  2.154256  0
O  O88  1  0.27251012  0.76041185  0.21057992  1  0  -0.955177  0  1.973236  0  0  -0.881791  0  2.247721  0  0  -0.918779  0  2.222681  0  0  -0.467029  -0.863224  0  2.26162  0
O  O89  1  0.22749236  0.26040861  0.28942089  1  0  -0.955256  0  1.97309  0  0  -0.881855  0  2.247576  0  0  -0.918839  0  2.222526  0  0  -0.467031  -0.863284  0  2.261479  0
O  O90  1  0.72749283  0.23959020  0.78941728  1  0  -0.955199  0  1.973249  0  0  -0.881732  0  2.247659  0  0  -0.918725  0  2.222634  0  0  -0.466991  -0.863157  0  2.261558  0
O  O91  1  0.77251053  0.73958486  0.71058337  1  0  -0.955205  0  1.973375  0  0  -0.881755  0  2.247781  0  0  -0.918748  0  2.222751  0  0  -0.466994  -0.863185  0  2.261677  0
O  O92  1  0.17081307  0.77913089  0.01482069  1  0  -0.633575  0  1.850034  0  0  -0.600663  0  2.096324  0  0  -0.634868  0  2.095476  0  0  -0.313875  -0.584497  0  2.095056  0
O  O93  1  0.32918828  0.27912623  0.48518123  1  0  -0.633478  0  1.849876  0  0  -0.600557  0  2.096144  0  0  -0.634762  0  2.095302  0  0  -0.313796  -0.58439  0  2.094882  0
O  O94  1  0.82919422  0.22087308  0.98517516  1  0  -0.6333  0  1.850084  0  0  -0.6004  0  2.096372  0  0  -0.634608  0  2.09553  0  0  -0.313715  -0.584236  0  2.095107  0
O  O95  1  0.67080594  0.72087105  0.51482379  1  0  -0.633385  0  1.84998  0  0  -0.600479  0  2.096249  0  0  -0.634686  0  2.095406  0  0  -0.31376  -0.584312  0  2.094978  0
O  O96  1  0.67933808  0.02248248  0.48881550  1  0  -0.693228  0  2.041582  0  0  -0.650735  0  2.28784  0  0  -0.684487  0  2.27377  0  0  -0.397718  -0.63382  0  2.29352  0
O  O97  1  0.82064579  0.52247929  0.01118406  1  0  -0.69336  0  2.041174  0  0  -0.650909  0  2.28739  0  0  -0.684667  0  2.273317  0  0  -0.397814  -0.633992  0  2.293072  0
O  O98  1  0.32065176  0.97752053  0.51119729  1  0  -0.69319  0  2.041549  0  0  -0.650754  0  2.287689  0  0  -0.684507  0  2.273626  0  0  -0.397663  -0.633837  0  2.293367  0
O  O99  1  0.17933449  0.47751895  0.98880559  1  0  -0.693062  0  2.041929  0  0  -0.650643  0  2.288085  0  0  -0.684388  0  2.274018  0  0  -0.397648  -0.633731  0  2.293765  0
O  O100  1  0.46996991  0.09717666  0.40569737  1  0  -0.632199  0  2.044133  0  0  -0.588167  0  2.283221  0  0  -0.618535  0  2.269628  0  0  -0.369822  -0.573051  0  2.290241  0
O  O101  1  0.03002216  0.59717567  0.09429958  1  0  -0.632101  0  2.04486  0  0  -0.588104  0  2.283906  0  0  -0.618467  0  2.27031  0  0  -0.369831  -0.57299  0  2.290925  0
O  O102  1  0.53001779  0.90282254  0.59431193  1  0  -0.632064  0  2.044285  0  0  -0.588092  0  2.283284  0  0  -0.618459  0  2.269688  0  0  -0.369779  -0.572982  0  2.290304  0
O  O103  1  0.96996897  0.40282257  0.90568703  1  0  -0.63209  0  2.043888  0  0  -0.588121  0  2.282877  0  0  -0.618493  0  2.269284  0  0  -0.369752  -0.573006  0  2.289896  0
O  O104  1  0.07402471  0.15424629  0.50184126  1  0  -0.651619  0  2.043352  0  0  -0.612114  0  2.290827  0  0  -0.643233  0  2.278436  0  0  -0.358107  -0.596783  0  2.296744  0
O  O105  1  0.42596992  0.65423741  0.99815268  1  0  -0.651636  0  2.043783  0  0  -0.61209  0  2.29136  0  0  -0.64321  0  2.278955  0  0  -0.358034  -0.596762  0  2.297286  0
O  O106  1  0.92595549  0.84575672  0.49815802  1  0  -0.651906  0  2.043517  0  0  -0.612355  0  2.291148  0  0  -0.643479  0  2.278729  0  0  -0.3582  -0.597028  0  2.297078  0
O  O107  1  0.57404279  0.34575034  0.00184261  1  0  -0.65185  0  2.043058  0  0  -0.612341  0  2.290596  0  0  -0.643465  0  2.278194  0  0  -0.358171  -0.59701  0  2.296529  0
O  O108  1  0.96257415  0.05619435  0.59850037  1  0  -0.683638  0  2.146954  0  0  -0.622626  0  2.382559  0  0  -0.657273  0  2.370902  0  0  -0.348545  -0.604644  0  2.388644  0
O  O109  1  0.53741454  0.55618143  0.90149265  1  0  -0.683913  0  2.146232  0  0  -0.622833  0  2.38189  0  0  -0.657495  0  2.370215  0  0  -0.348652  -0.604844  0  2.387979  0
O  O110  1  0.03742012  0.94380103  0.40149888  1  0  -0.683772  0  2.146191  0  0  -0.622681  0  2.381898  0  0  -0.657339  0  2.370224  0  0  -0.348534  -0.604694  0  2.387986  0
O  O111  1  0.46257116  0.44380345  0.09849644  1  0  -0.683606  0  2.146944  0  0  -0.62255  0  2.382571  0  0  -0.657196  0  2.370911  0  0  -0.348447  -0.604563  0  2.388656  0
O  O112  1  0.97834123  0.18146488  0.30591097  1  0  -0.884305  0  1.831745  0  0  -0.842777  0  1.993356  0  0  -0.86821  0  1.957155  0  0  -0.600488  -0.831335  0  2.014027  0
O  O113  1  0.52165636  0.68146089  0.19408711  1  0  -0.884146  0  1.831866  0  0  -0.842641  0  1.99349  0  0  -0.868072  0  1.957288  0  0  -0.600457  -0.831201  0  2.014168  0
O  O114  1  0.02165626  0.81854671  0.69409257  1  0  -0.884268  0  1.831782  0  0  -0.842733  0  1.993424  0  0  -0.868165  0  1.95722  0  0  -0.600496  -0.831291  0  2.0141  0
O  O115  1  0.47834446  0.31853925  0.80590530  1  0  -0.884267  0  1.831965  0  0  -0.842742  0  1.99351  0  0  -0.868175  0  1.957306  0  0  -0.600491  -0.831297  0  2.014183  0
