# generated using pymatgen
data_Cd3H26C42(N2O3)4
_symmetry_space_group_name_H-M   'P 1'
_cell_length_a   10.36506270
_cell_length_b   15.95502325
_cell_length_c   17.05276653
_cell_angle_alpha   84.97865668
_cell_angle_beta   76.99857131
_cell_angle_gamma   85.68965930
_symmetry_Int_Tables_number   1
_chemical_formula_structural   Cd3H26C42(N2O3)4
_chemical_formula_sum   'Cd6 H52 C84 N16 O24'
_cell_volume   2732.78462286
_cell_formula_units_Z   2
loop_
 _symmetry_equiv_pos_site_id
 _symmetry_equiv_pos_as_xyz
  1  'x, y, z'
loop_
 _atom_site_type_symbol
 _atom_site_label
 _atom_site_symmetry_multiplicity
 _atom_site_fract_x
 _atom_site_fract_y
 _atom_site_fract_z
 _atom_site_occupancy
 _atom_site_pbe_bader_charge
 _atom_site_pbe_bader_spin_density
 _atom_site_pbe_cm5_charge
 _atom_site_pbe_ddec_charge
 _atom_site_pbe_ddec_spin_density
 _atom_site_pbe_ddec_sum_bond_order
 _atom_site_pbe_magmom
Cd  Cd0  1  0.87913700  0.67829229  0.15866969  1  1.286731  0  0.780214  0.889061  0  2.183357  0
Cd  Cd1  1  0.12086274  0.32170778  0.84132988  1  1.286688  0  0.780198  0.889085  0  2.18335  0
Cd  Cd2  1  0.09097236  0.67975742  0.31772349  1  1.28967  0  0.780012  0.885806  0  2.197871  0
Cd  Cd3  1  0.90902836  0.32024266  0.68227653  1  1.289676  0  0.780014  0.885824  0  2.197837  0
Cd  Cd4  1  0.49598038  0.54947164  0.24559544  1  1.285084  0  0.765918  0.991692  0  2.016289  0
Cd  Cd5  1  0.50401821  0.45053033  0.75440355  1  1.284995  0  0.765918  0.991721  0  2.016292  0
H  H6  1  0.38428104  0.70271292  0.15680660  1  0.102015  0  0.102509  0.109665  0  1.037242  0
H  H7  1  0.61571876  0.29728652  0.84319360  1  0.102007  0  0.102527  0.109702  0  1.037212  0
H  H8  1  0.66355943  0.59665788  0.95760096  1  0.113629  0  0.107796  0.113362  0  1.009745  0
H  H9  1  0.33644020  0.40334346  0.04239794  1  0.113658  0  0.107783  0.113355  0  1.009732  0
H  H10  1  0.24877056  0.61836803  0.95730812  1  0.121937  0  0.105469  0.112701  0  1.025386  0
H  H11  1  0.75122923  0.38163142  0.04269149  1  0.121954  0  0.105451  0.112692  0  1.025406  0
H  H12  1  0.73196502  0.61814740  0.52914979  1  0.119813  0  0.105304  0.11284  0  1.021301  0
H  H13  1  0.26803270  0.38185332  0.47084707  1  0.11956  0  0.105287  0.112842  0  1.021261  0
H  H14  1  0.32118089  0.59690036  0.53091283  1  0.126268  0  0.107679  0.113684  0  1.010189  0
H  H15  1  0.67881681  0.40310034  0.46908755  1  0.12638  0  0.107685  0.113709  0  1.010211  0
H  H16  1  0.58418401  0.69738883  0.31574832  1  0.099999  0  0.101062  0.106869  0  1.044795  0
H  H17  1  0.41581573  0.30261124  0.68425125  1  0.100031  0  0.101059  0.106874  0  1.044754  0
H  H18  1  0.79265586  0.51065054  0.27141280  1  0.160236  0  0.118558  0.101812  0  1.022777  0
H  H19  1  0.20734492  0.48934890  0.72858844  1  0.16022  0  0.118523  0.10174  0  1.022781  0
H  H20  1  0.80611825  0.35574374  0.26354872  1  0.126663  0  0.116102  0.124706  0  0.989193  0
H  H21  1  0.19388257  0.64425507  0.73645374  1  0.126723  0  0.116121  0.124751  0  0.989185  0
H  H22  1  0.09852455  0.38941149  0.03956729  1  0.153216  0  0.111669  0.131065  0  1.03289  0
H  H23  1  0.90147134  0.61058733  0.96043231  1  0.153195  0  0.111671  0.131057  0  1.032965  0
H  H24  1  0.06823616  0.54513607  0.05497468  1  0.08706  0  0.115409  0.085658  0  1.030845  0
H  H25  1  0.93175874  0.45486275  0.94502505  1  0.087051  0  0.115377  0.08561  0  1.030844  0
H  H26  1  0.03204704  0.24937175  0.08266767  1  0.124588  0  0.122331  0.09513  0  0.97752  0
H  H27  1  0.96795269  0.75062832  0.91733425  1  0.124556  0  0.122335  0.095109  0  0.977487  0
H  H28  1  0.76272887  0.10679345  0.26186309  1  0.100965  0  0.119045  0.083049  0  0.972252  0
H  H29  1  0.23727290  0.89320599  0.73813743  1  0.100998  0  0.119044  0.083034  0  0.972268  0
H  H30  1  0.68744292  0.96387992  0.29969649  1  0.107219  0  0.115127  0.122428  0  0.980967  0
H  H31  1  0.31255671  0.03612142  0.70030299  1  0.107203  0  0.115128  0.12244  0  0.980944  0
H  H32  1  0.70136414  0.81138628  0.27297078  1  0.118056  0  0.119816  0.092328  0  1.006785  0
H  H33  1  0.29863159  0.18861443  0.72702928  1  0.118063  0  0.119789  0.092312  0  1.006827  0
H  H34  1  0.99504796  0.84694125  0.06634027  1  0.124354  0  0.120714  0.097647  0  0.993419  0
H  H35  1  0.00495194  0.15305693  0.93366119  1  0.124351  0  0.120687  0.097592  0  0.993459  0
H  H36  1  0.99495350  0.00243325  0.08433012  1  0.106933  0  0.109829  0.114827  0  1.010922  0
H  H37  1  0.00504838  0.99756493  0.91567048  1  0.106909  0  0.10981  0.114803  0  1.010965  0
H  H38  1  0.93589091  0.54357329  0.44122803  1  0.12482  0  0.115891  0.084788  0  1.028092  0
H  H39  1  0.06410888  0.45642615  0.55877158  1  0.124814  0  0.115889  0.084771  0  1.028139  0
H  H40  1  0.92572524  0.38679413  0.46969941  1  0.150096  0  0.111886  0.132054  0  1.027284  0
H  H41  1  0.07427647  0.61320594  0.53030165  1  0.150107  0  0.111896  0.132073  0  1.027265  0
H  H42  1  0.21254572  0.36066756  0.24412322  1  0.124949  0  0.114632  0.122864  0  0.996235  0
H  H43  1  0.78745511  0.63933125  0.75587806  1  0.124911  0  0.114644  0.12289  0  0.996227  0
H  H44  1  0.20825163  0.51653312  0.22450407  1  0.141487  0  0.117688  0.098649  0  1.023989  0
H  H45  1  0.79174728  0.48346506  0.77549634  1  0.141464  0  0.117668  0.098619  0  1.023999  0
H  H46  1  0.99697894  0.24516271  0.42969519  1  0.128624  0  0.122679  0.093164  0  0.971092  0
H  H47  1  0.00302481  0.75483673  0.57030447  1  0.128626  0  0.122673  0.093168  0  0.971021  0
H  H48  1  0.20605690  0.11797897  0.22497021  1  0.107431  0  0.117923  0.082395  0  0.977563  0
H  H49  1  0.79393893  0.88202048  0.77503052  1  0.107393  0  0.117917  0.082415  0  0.977527  0
H  H50  1  0.01326586  0.99412886  0.41235639  1  0.117925  0  0.112165  0.119184  0  1.005487  0
H  H51  1  0.98673393  0.00587058  0.58764439  1  0.117936  0  0.112165  0.119169  0  1.005473  0
H  H52  1  0.99121797  0.83718755  0.41612743  1  0.144368  0  0.121942  0.099335  0  0.993968  0
H  H53  1  0.00878286  0.16281126  0.58387327  1  0.144388  0  0.121942  0.099313  0  0.993972  0
H  H54  1  0.22535008  0.82345737  0.18650306  1  0.092422  0  0.118445  0.093258  0  1.005234  0
H  H55  1  0.77464757  0.17654396  0.81349669  1  0.092217  0  0.118474  0.093301  0  1.005322  0
H  H56  1  0.25764113  0.97912331  0.17218420  1  0.080568  0  0.113993  0.121349  0  0.98148  0
H  H57  1  0.74235349  0.02087866  0.82781650  1  0.08053  0  0.113979  0.121331  0  0.981497  0
C  C58  1  0.30177784  0.66662835  0.05973642  1  -0.037553  0  -0.022726  -0.035269  0  3.99035  0
C  C59  1  0.69822300  0.33337047  0.94026310  1  -0.036308  0  -0.022737  -0.035345  0  3.990367  0
C  C60  1  0.40559699  0.67756283  0.09747711  1  0.026215  0  -0.081006  -0.117901  0  3.939992  0
C  C61  1  0.59440374  0.32243725  0.90252232  1  0.026106  0  -0.081023  -0.117912  0  3.940055  0
C  C62  1  0.53656329  0.65512709  0.05950612  1  -0.06965  0  -0.021435  -0.04301  0  4.002136  0
C  C63  1  0.46343744  0.34487298  0.94049390  1  -0.06963  0  -0.021416  -0.043034  0  4.0021  0
C  C64  1  0.56271307  0.61754755  0.98593689  1  -0.034236  0  -0.06623  -0.081515  0  3.893673  0
C  C65  1  0.43728672  0.38245189  0.01406331  1  -0.034279  0  -0.066213  -0.081475  0  3.893677  0
C  C66  1  0.45851233  0.60197118  0.95061264  1  0.026191  0  -0.014192  -0.019925  0  3.964766  0
C  C67  1  0.54148736  0.39802952  0.04938630  1  0.02618  0  -0.014196  -0.019963  0  3.964855  0
C  C68  1  0.32901517  0.62931957  0.98614714  1  -0.056629  0  -0.069201  -0.0864  0  3.89806  0
C  C69  1  0.67098358  0.37068051  0.01385197  1  -0.057798  0  -0.069194  -0.086374  0  3.897988  0
C  C70  1  0.16013421  0.68670555  0.09939544  1  1.51712  0  0.199145  0.570549  0  4.220965  0
C  C71  1  0.83986558  0.31329389  0.90060476  1  1.51719  0  0.19912  0.570548  0  4.221025  0
C  C72  1  0.64893202  0.66536355  0.09879929  1  1.494233  0  0.19984  0.576894  0  4.189249  0
C  C73  1  0.35106761  0.33463779  0.90119961  1  1.49407  0  0.199929  0.577155  0  4.189211  0
C  C74  1  0.48188619  0.55020130  0.87906084  1  1.556448  0  0.188107  0.553389  0  4.240802  0
C  C75  1  0.51811344  0.44980004  0.12093805  1  1.556443  0  0.1881  0.553363  0  4.240888  0
C  C76  1  0.67212757  0.66385011  0.41878298  1  0.020916  0  -0.020357  -0.03001  0  3.985557  0
C  C77  1  0.32787317  0.33614997  0.58121470  1  0.020788  0  -0.020396  -0.030063  0  3.985499  0
C  C78  1  0.65027404  0.62845257  0.49828408  1  -0.006911  0  -0.068108  -0.08486  0  3.8941  0
C  C79  1  0.34972752  0.37154939  0.50171450  1  -0.006629  0  -0.068079  -0.084829  0  3.89393  0
C  C80  1  0.52515963  0.60193382  0.53760610  1  -0.042731  0  -0.013965  -0.020536  0  3.974491  0
C  C81  1  0.47484308  0.39806625  0.46239307  1  -0.043024  0  -0.013935  -0.020542  0  3.974482  0
C  C82  1  0.41874630  0.61692858  0.49959211  1  -0.039498  0  -0.068561  -0.08536  0  3.89842  0
C  C83  1  0.58125460  0.38306961  0.50040628  1  -0.03975  0  -0.0685  -0.085325  0  3.898503  0
C  C84  1  0.43922994  0.65304334  0.42027234  1  0.01513  0  -0.022238  -0.041718  0  3.998059  0
C  C85  1  0.56077282  0.34695610  0.57972629  1  0.015327  0  -0.022309  -0.041773  0  3.998066  0
C  C86  1  0.56687354  0.67399266  0.37907066  1  -0.080674  0  -0.082137  -0.122031  0  3.944642  0
C  C87  1  0.43312830  0.32600615  0.62092696  1  -0.08056  0  -0.082129  -0.122021  0  3.944515  0
C  C88  1  0.81100057  0.68274996  0.37691830  1  1.49587  0  0.198704  0.572733  0  4.215163  0
C  C89  1  0.18900220  0.31724948  0.62308032  1  1.495821  0  0.19871  0.572749  0  4.214922  0
C  C90  1  0.50975224  0.55134880  0.61695354  1  1.549258  0  0.187945  0.552737  0  4.243412  0
C  C91  1  0.49024931  0.44865316  0.38304681  1  1.549463  0  0.188004  0.552928  0  4.243023  0
C  C92  1  0.32505097  0.66353259  0.37947629  1  1.545123  0  0.199886  0.577894  0  4.188811  0
C  C93  1  0.67494959  0.33646938  0.62052419  1  1.545137  0  0.19989  0.577815  0  4.188904  0
C  C94  1  0.85917511  0.48186462  0.22086783  1  0.432854  0  0.050952  0.102702  0  3.924933  0
C  C95  1  0.14082369  0.51813483  0.77913309  1  0.432876  0  0.051018  0.102871  0  3.924863  0
C  C96  1  0.86779607  0.39504543  0.21665766  1  0.055029  0  -0.061152  -0.121838  0  3.874277  0
C  C97  1  0.13220371  0.60495401  0.78334489  1  0.054982  0  -0.061166  -0.121928  0  3.874333  0
C  C98  1  0.95365071  0.35991348  0.15030591  1  -0.05957  0  0.014953  0.105657  0  3.984081  0
C  C99  1  0.04634814  0.64008533  0.84969564  1  -0.059508  0  0.014963  0.105705  0  3.983969  0
C  C100  1  0.02958976  0.41441812  0.09162043  1  -0.012085  0  -0.072705  -0.157874  0  3.893955  0
C  C101  1  0.97040514  0.58558070  0.90837989  1  -0.013297  0  -0.072745  -0.157969  0  3.894045  0
C  C102  1  0.01364359  0.50055924  0.10005625  1  0.493139  0  0.044467  0.092346  0  3.941209  0
C  C103  1  0.98635219  0.49944084  0.89994327  1  0.49426  0  0.044465  0.092424  0  3.941193  0
C  C104  1  0.96514374  0.27017116  0.13797819  1  0.652816  0  0.09477  0.083779  0  3.868162  0
C  C105  1  0.03485402  0.72982891  0.86202223  1  0.652849  0  0.094797  0.083791  0  3.86807  0
C  C106  1  0.83712077  0.08419261  0.21013541  1  0.600773  0  0.074159  0.045574  0  3.918155  0
C  C107  1  0.16287903  0.91580684  0.78986244  1  0.60076  0  0.074124  0.045531  0  3.918146  0
C  C108  1  0.84168291  0.99563489  0.19406942  1  0.029174  0  0.009759  0.110717  0  4.021717  0
C  C109  1  0.15831787  0.00436456  0.80593065  1  0.029252  0  0.00973  0.110754  0  4.021763  0
C  C110  1  0.75700334  0.94080541  0.24699901  1  -0.01919  0  -0.077217  -0.17249  0  3.93541  0
C  C111  1  0.24299535  0.05919529  0.75300124  1  -0.019151  0  -0.077144  -0.172466  0  3.935348  0
C  C112  1  0.76381603  0.85605418  0.23242777  1  0.441576  0  0.05194  0.108312  0  3.944841  0
C  C113  1  0.23618365  0.14394653  0.76757293  1  0.441583  0  0.051929  0.108313  0  3.944767  0
C  C114  1  0.92842715  0.87639405  0.11680625  1  0.466096  0  0.048163  0.089866  0  3.949281  0
C  C115  1  0.07157166  0.12360539  0.88319408  1  0.466173  0  0.048185  0.089956  0  3.94932  0
C  C116  1  0.92826749  0.96175973  0.12695735  1  -0.076891  0  -0.077213  -0.161106  0  3.929448  0
C  C117  1  0.07173439  0.03823844  0.87304384  1  -0.077133  0  -0.07715  -0.161072  0  3.929402  0
C  C118  1  0.99485511  0.50036934  0.39928702  1  0.462155  0  0.04706  0.094937  0  3.939506  0
C  C119  1  0.00514660  0.49963073  0.60071346  1  0.462075  0  0.04707  0.094982  0  3.939488  0
C  C120  1  0.98985365  0.41362078  0.41485345  1  -0.038891  0  -0.072692  -0.158933  0  3.895668  0
C  C121  1  0.01014806  0.58637929  0.58514820  1  -0.038962  0  -0.072691  -0.158964  0  3.895661  0
C  C122  1  0.06886261  0.36113093  0.35876096  1  -0.014197  0  0.014169  0.105802  0  3.992138  0
C  C123  1  0.93114003  0.63886977  0.64124052  1  -0.014138  0  0.014204  0.105845  0  3.992187  0
C  C124  1  0.14914612  0.39871981  0.28907370  1  -0.030213  0  -0.062722  -0.1254  0  3.881015  0
C  C125  1  0.85085763  0.60127963  0.71092656  1  -0.030154  0  -0.062762  -0.12548  0  3.881065  0
C  C126  1  0.14723452  0.48590233  0.27810841  1  0.551748  0  0.049807  0.102839  0  3.931971  0
C  C127  1  0.85276621  0.51409774  0.72189220  1  0.551761  0  0.049783  0.102824  0  3.93208  0
C  C128  1  0.06206768  0.27009904  0.37373835  1  0.579143  0  0.093096  0.080301  0  3.868662  0
C  C129  1  0.93793309  0.72990040  0.62626348  1  0.579171  0  0.09309  0.080297  0  3.868614  0
C  C130  1  0.15381512  0.08961843  0.28353923  1  0.601482  0  0.073449  0.046787  0  3.926199  0
C  C131  1  0.84618252  0.91038290  0.71646287  1  0.601443  0  0.07342  0.046757  0  3.926167  0
C  C132  1  0.13820680  0.99908112  0.29186756  1  -0.017835  0  0.009236  0.109955  0  4.019612  0
C  C133  1  0.86178991  0.00091959  0.70813295  1  -0.017869  0  0.009278  0.109919  0  4.019721  0
C  C134  1  0.06238844  0.95805188  0.36155045  1  -0.07875  0  -0.074118  -0.155735  0  3.917964  0
C  C135  1  0.93761234  0.04194756  0.63845138  1  -0.078724  0  -0.074137  -0.15572  0  3.918021  0
C  C136  1  0.05002048  0.87183244  0.36385179  1  0.468214  0  0.050501  0.093173  0  3.944197  0
C  C137  1  0.94997937  0.12816637  0.63614845  1  0.468207  0  0.050519  0.093242  0  3.944147  0
C  C138  1  0.18136215  0.86393656  0.23499825  1  0.476638  0  0.049629  0.101595  0  3.952617  0
C  C139  1  0.81863550  0.13606478  0.76500150  1  0.476419  0  0.049587  0.101515  0  3.952739  0
C  C140  1  0.19859279  0.95005513  0.22766195  1  0.046941  0  -0.078755  -0.174191  0  3.944289  0
C  C141  1  0.80140596  0.04994495  0.77233834  1  0.046978  0  -0.078733  -0.174111  0  3.944354  0
N  N142  1  0.92892761  0.53407152  0.16305882  1  -1.246859  0  -0.325921  -0.239508  0  3.50274  0
N  N143  1  0.07107119  0.46592792  0.83694093  1  -1.246875  0  -0.325908  -0.239563  0  3.502711  0
N  N144  1  0.89586625  0.21698824  0.18921462  1  -0.766931  0  -0.211827  -0.175161  0  3.296289  0
N  N145  1  0.10413458  0.78301057  0.81078666  1  -0.766925  0  -0.211846  -0.175146  0  3.296377  0
N  N146  1  0.91793875  0.13556846  0.16471258  1  -0.751301  0  -0.207868  -0.168715  0  3.32795  0
N  N147  1  0.08206308  0.86443035  0.83528739  1  -0.751258  0  -0.207845  -0.168689  0  3.328015  0
N  N148  1  0.84858584  0.82405883  0.16903817  1  -1.189195  0  -0.322223  -0.224737  0  3.486963  0
N  N149  1  0.15141301  0.17593998  0.83096279  1  -1.18926  0  -0.322257  -0.224825  0  3.487067  0
N  N150  1  0.07201144  0.53602591  0.33223616  1  -1.238346  0  -0.32751  -0.234987  0  3.50888  0
N  N151  1  0.92798939  0.46397291  0.66776453  1  -1.238244  0  -0.327471  -0.234957  0  3.508946  0
N  N152  1  0.12839788  0.22050474  0.32088292  1  -0.76355  0  -0.20945  -0.171673  0  3.317231  0
N  N153  1  0.87160383  0.77949533  0.67911873  1  -0.763499  0  -0.209468  -0.171681  0  3.317139  0
N  N154  1  0.10576684  0.13640078  0.34273503  1  -0.746532  0  -0.209626  -0.168398  0  3.315334  0
N  N155  1  0.89423185  0.86359992  0.65726639  1  -0.746515  0  -0.209598  -0.168388  0  3.315269  0
N  N156  1  0.10801964  0.82549502  0.30157314  1  -1.20756  0  -0.321893  -0.222084  0  3.486787  0
N  N157  1  0.89197900  0.17450632  0.69842707  1  -1.207157  0  -0.321912  -0.222127  0  3.486681  0
O  O158  1  0.07448879  0.69402655  0.05559584  1  -1.15514  0  -0.328301  -0.558675  0  2.221312  0
O  O159  1  0.92551106  0.30597227  0.94440381  1  -1.155214  0  -0.328292  -0.558671  0  2.221309  0
O  O160  1  0.12780494  0.69284598  0.17562591  1  -1.191671  0  -0.342339  -0.599222  0  2.34587  0
O  O161  1  0.87219573  0.30715472  0.82437407  1  -1.191675  0  -0.342318  -0.59921  0  2.345905  0
O  O162  1  0.62986055  0.65709683  0.17652589  1  -1.13025  0  -0.334644  -0.583672  0  2.278125  0
O  O163  1  0.37014112  0.34290388  0.82347278  1  -1.129966  0  -0.334622  -0.583736  0  2.278152  0
O  O164  1  0.76134679  0.68142147  0.05459606  1  -1.156006  0  -0.32126  -0.534613  0  2.201128  0
O  O165  1  0.23865394  0.31857861  0.94540279  1  -1.156062  0  -0.321357  -0.534797  0  2.201246  0
O  O166  1  0.59884404  0.52154375  0.84898801  1  -1.167535  0  -0.3268  -0.565789  0  2.199852  0
O  O167  1  0.40115653  0.47845822  0.15101012  1  -1.167555  0  -0.326791  -0.565773  0  2.199923  0
O  O168  1  0.38070150  0.53381931  0.85306601  1  -1.150998  0  -0.332076  -0.557536  0  2.209362  0
O  O169  1  0.61929818  0.46618139  0.14693293  1  -1.15096  0  -0.332079  -0.557506  0  2.209333  0
O  O170  1  0.84633695  0.68109129  0.30011440  1  -1.178992  0  -0.342742  -0.601977  0  2.357598  0
O  O171  1  0.15366703  0.31890563  0.69988485  1  -1.178945  0  -0.342767  -0.602051  0  2.357557  0
O  O172  1  0.89228050  0.69593945  0.41988486  1  -1.162059  0  -0.331976  -0.56067  0  2.195757  0
O  O173  1  0.10771990  0.30406440  0.58011432  1  -1.162012  0  -0.331999  -0.560662  0  2.195586  0
O  O174  1  0.61339571  0.53496922  0.64567064  1  -1.153609  0  -0.333003  -0.5568  0  2.208842  0
O  O175  1  0.38660811  0.46502960  0.35432672  1  -1.153558  0  -0.333019  -0.556871  0  2.208788  0
O  O176  1  0.39746497  0.52321501  0.65101919  1  -1.164635  0  -0.327445  -0.56536  0  2.197269  0
O  O177  1  0.60253520  0.47679137  0.34898216  1  -1.164827  0  -0.327483  -0.565463  0  2.197072  0
O  O178  1  0.20983160  0.67899582  0.42178349  1  -1.157207  0  -0.321323  -0.536688  0  2.199941  0
O  O179  1  0.79017089  0.32100677  0.57821668  1  -1.157207  0  -0.321303  -0.536624  0  2.199896  0
O  O180  1  0.34572005  0.65662953  0.30265865  1  -1.177406  0  -0.336578  -0.587521  0  2.277096  0
O  O181  1  0.65427859  0.34337180  0.69734156  1  -1.177411  0  -0.336586  -0.587507  0  2.277158  0
