# generated using pymatgen
data_Zn3H6C10(N10O)2
_symmetry_space_group_name_H-M   'P 1'
_cell_length_a   9.67111196
_cell_length_b   11.26570742
_cell_length_c   12.69776131
_cell_angle_alpha   91.02629784
_cell_angle_beta   112.38330317
_cell_angle_gamma   115.41047563
_symmetry_Int_Tables_number   1
_chemical_formula_structural   Zn3H6C10(N10O)2
_chemical_formula_sum   'Zn6 H12 C20 N40 O4'
_cell_volume   1127.90203473
_cell_formula_units_Z   2
loop_
 _symmetry_equiv_pos_site_id
 _symmetry_equiv_pos_as_xyz
  1  'x, y, z'
loop_
 _atom_site_type_symbol
 _atom_site_label
 _atom_site_symmetry_multiplicity
 _atom_site_fract_x
 _atom_site_fract_y
 _atom_site_fract_z
 _atom_site_occupancy
 _atom_site_hle17_bader_spin_density
 _atom_site_hle17_ddec_charge
 _atom_site_hle17_ddec_spin_density
 _atom_site_hle17_ddec_sum_bond_order
 _atom_site_hle17_magmom
 _atom_site_hse06_10hf_bader_spin_density
 _atom_site_hse06_10hf_ddec_charge
 _atom_site_hse06_10hf_ddec_spin_density
 _atom_site_hse06_10hf_ddec_sum_bond_order
 _atom_site_hse06_10hf_magmom
 _atom_site_hse06_bader_spin_density
 _atom_site_hse06_ddec_charge
 _atom_site_hse06_ddec_spin_density
 _atom_site_hse06_ddec_sum_bond_order
 _atom_site_hse06_magmom
 _atom_site_pbe_bader_spin_density
 _atom_site_pbe_cm5_charge
 _atom_site_pbe_ddec_charge
 _atom_site_pbe_ddec_spin_density
 _atom_site_pbe_ddec_sum_bond_order
 _atom_site_pbe_magmom
Zn  Zn0  1  0.26327416  0.79858251  0.43476470  1  0  0.884941  0  1.995246  0  0  0.682813  0  2.453987  0  0  0.724875  0  2.413344  0  0  0.705677  0.653781  0  2.481441  0
Zn  Zn1  1  0.52994962  0.70155104  0.06508324  1  0  0.884801  0  1.994556  0  0  0.682512  0  2.453574  0  0  0.724618  0  2.412874  0  0  0.705478  0.653364  0  2.481166  0
Zn  Zn2  1  0.73672373  0.20141324  0.56523291  1  0  0.884915  0  1.995282  0  0  0.682795  0  2.45403  0  0  0.72486  0  2.413384  0  0  0.705663  0.653768  0  2.481493  0
Zn  Zn3  1  0.47004962  0.29844969  0.93491822  1  0  0.884769  0  1.994571  0  0  0.682493  0  2.453583  0  0  0.724601  0  2.412883  0  0  0.705483  0.653344  0  2.481179  0
Zn  Zn4  1  0.13367984  0.25007142  0.24997472  1  0  0.875765  0  2.023229  0  0  0.665696  0  2.509527  0  0  0.705036  0  2.463151  0  0  0.760254  0.638752  0  2.541373  0
Zn  Zn5  1  0.86631890  0.74992837  0.75002323  1  0  0.875804  0  2.023219  0  0  0.665733  0  2.509523  0  0  0.705066  0  2.463155  0  0  0.760262  0.638791  0  2.541373  0
H  H6  1  0.81366683  0.59942787  0.27857243  1  0  0.08376  0  0.924076  0  0  0.090746  0  0.991784  0  0  0.093105  0  0.988517  0  0  0.127423  0.089196  0  0.993664  0
H  H7  1  0.43553788  0.90065046  0.22106694  1  0  0.084213  0  0.923915  0  0  0.090729  0  0.992025  0  0  0.093096  0  0.988759  0  0  0.127456  0.089066  0  0.994205  0
H  H8  1  0.18632201  0.40057283  0.72143093  1  0  0.083764  0  0.924058  0  0  0.090749  0  0.99177  0  0  0.093104  0  0.988506  0  0  0.127419  0.089194  0  0.993655  0
H  H9  1  0.56446639  0.09934931  0.77893211  1  0  0.084225  0  0.923875  0  0  0.090748  0  0.991981  0  0  0.093119  0  0.98871  0  0  0.127449  0.089079  0  0.994162  0
H  H10  1  0.28085002  0.81439143  0.65395702  1  0  0.407456  0  0.83124  0  0  0.391531  0  0.884919  0  0  0.39918  0  0.876165  0  0  0.315789  0.38599  0  0.891381  0
H  H11  1  0.31230161  0.68556790  0.84587578  1  0  0.407423  0  0.831613  0  0  0.391116  0  0.886041  0  0  0.398816  0  0.877193  0  0  0.315646  0.385638  0  0.892311  0
H  H12  1  0.71915277  0.18561129  0.34604611  1  0  0.407467  0  0.831218  0  0  0.391539  0  0.884904  0  0  0.399188  0  0.876152  0  0  0.315806  0.386002  0  0.891358  0
H  H13  1  0.68768951  0.31442585  0.15412143  1  0  0.407414  0  0.831582  0  0  0.391094  0  0.886039  0  0  0.398795  0  0.877188  0  0  0.315623  0.385614  0  0.892315  0
H  H14  1  0.08913768  0.76404016  0.56960869  1  0  0.392616  0  0.919643  0  0  0.349928  0  1.003236  0  0  0.360662  0  0.987741  0  0  0.2859  0.342352  0  1.014154  0
H  H15  1  0.25543465  0.73588818  0.93032909  1  0  0.392234  0  0.920305  0  0  0.349184  0  1.004396  0  0  0.359901  0  0.988927  0  0  0.285752  0.3418  0  1.015043  0
H  H16  1  0.91085918  0.23596058  0.43039262  1  0  0.392632  0  0.919639  0  0  0.349942  0  1.003218  0  0  0.360676  0  0.987724  0  0  0.285899  0.34237  0  1.01413  0
H  H17  1  0.74456616  0.26411254  0.06967285  1  0  0.392198  0  0.920292  0  0  0.34916  0  1.004412  0  0  0.359876  0  0.988945  0  0  0.285754  0.341775  0  1.015058  0
C  C18  1  0.86634417  0.70416235  0.27197481  1  0  0.260047  0  3.678006  0  0  0.199165  0  3.960647  0  0  0.212918  0  3.974209  0  0  0.139941  0.190294  0  3.950686  0
C  C19  1  0.39042721  0.79603792  0.22797982  1  0  0.260401  0  3.677744  0  0  0.200027  0  3.960135  0  0  0.213765  0  3.973636  0  0  0.139715  0.191017  0  3.950579  0
C  C20  1  0.13365315  0.29583643  0.72802326  1  0  0.260003  0  3.677904  0  0  0.199122  0  3.960562  0  0  0.212879  0  3.974124  0  0  0.139901  0.190256  0  3.950598  0
C  C21  1  0.60957508  0.20396386  0.77201980  1  0  0.260397  0  3.67771  0  0  0.200031  0  3.960103  0  0  0.21377  0  3.973605  0  0  0.139742  0.191028  0  3.950531  0
C  C22  1  0.04644285  0.91445094  0.30265333  1  0  0.0448  0  3.823364  0  0  0.03601  0  4.073171  0  0  0.036746  0  4.095533  0  0  0.079355  0.035357  0  4.058313  0
C  C23  1  0.32940544  0.58570711  0.19721632  1  0  0.044606  0  3.825531  0  0  0.035371  0  4.075949  0  0  0.036087  0  4.098316  0  0  0.07908  0.034848  0  4.060903  0
C  C24  1  0.95355816  0.08554478  0.69734633  1  0  0.044655  0  3.823525  0  0  0.035881  0  4.073294  0  0  0.036616  0  4.095655  0  0  0.079362  0.035231  0  4.058432  0
C  C25  1  0.67059780  0.41429764  0.80278643  1  0  0.044479  0  3.825633  0  0  0.035236  0  4.076061  0  0  0.035955  0  4.098431  0  0  0.07896  0.034708  0  4.061028  0
C  C26  1  0.88729899  0.89228018  0.22211070  1  0  0.045491  0  3.819863  0  0  0.037708  0  4.074527  0  0  0.038024  0  4.096598  0  0  0.079299  0.037388  0  4.059627  0
C  C27  1  0.27304336  0.60793509  0.27780185  1  0  0.046241  0  3.820519  0  0  0.038315  0  4.074705  0  0  0.038667  0  4.096701  0  0  0.079342  0.038057  0  4.059822  0
C  C28  1  0.11270250  0.10772159  0.77788923  1  0  0.045512  0  3.819906  0  0  0.037722  0  4.074551  0  0  0.03804  0  4.096621  0  0  0.07924  0.037401  0  4.059649  0
C  C29  1  0.72695145  0.39206361  0.72220047  1  0  0.046205  0  3.820562  0  0  0.038305  0  4.074752  0  0  0.038656  0  4.096749  0  0  0.079324  0.038049  0  4.05987  0
C  C30  1  0.21239142  0.02826631  0.35017057  1  0  0.290015  0  3.829105  0  0  0.263593  0  4.087218  0  0  0.2764  0  4.102285  0  0  0.22903  0.255047  0  4.07705  0
C  C31  1  0.33421034  0.47192006  0.14985729  1  0  0.290133  0  3.829532  0  0  0.263678  0  4.087846  0  0  0.276479  0  4.1029  0  0  0.228302  0.255089  0  4.077742  0
C  C32  1  0.78760869  0.97173335  0.64983448  1  0  0.289925  0  3.829695  0  0  0.263522  0  4.087755  0  0  0.276328  0  4.102822  0  0  0.229014  0.254976  0  4.077589  0
C  C33  1  0.66579290  0.52808470  0.85014546  1  0  0.290215  0  3.829587  0  0  0.263793  0  4.087831  0  0  0.276585  0  4.102899  0  0  0.228435  0.255191  0  4.077747  0
C  C34  1  0.82575390  0.97175372  0.15001188  1  0  0.292704  0  3.826285  0  0  0.262272  0  4.08901  0  0  0.276372  0  4.10375  0  0  0.222912  0.253003  0  4.078858  0
C  C35  1  0.20418772  0.52846752  0.34993696  1  0  0.291626  0  3.826508  0  0  0.262445  0  4.087465  0  0  0.276548  0  4.102153  0  0  0.223719  0.253038  0  4.077464  0
C  C36  1  0.17424913  0.02824802  0.84998963  1  0  0.292717  0  3.826167  0  0  0.262325  0  4.088869  0  0  0.276428  0  4.103604  0  0  0.222966  0.253058  0  4.078708  0
C  C37  1  0.79581168  0.47153220  0.65006509  1  0  0.291789  0  3.82634  0  0  0.262554  0  4.087358  0  0  0.276658  0  4.102044  0  0  0.223787  0.253146  0  4.077366  0
N  N38  1  0.03136882  0.79414702  0.33306303  1  0  -0.398261  0  3.211703  0  0  -0.321729  0  3.490195  0  0  -0.342706  0  3.506727  0  0  -0.348774  -0.307593  0  3.478723  0
N  N39  1  0.40423815  0.70598801  0.16682822  1  0  -0.399419  0  3.212921  0  0  -0.322892  0  3.491681  0  0  -0.343886  0  3.508152  0  0  -0.348667  -0.308629  0  3.480234  0
N  N40  1  0.96863072  0.20584876  0.66693285  1  0  -0.398112  0  3.211489  0  0  -0.321586  0  3.489965  0  0  -0.342562  0  3.506496  0  0  -0.34872  -0.307456  0  3.478499  0
N  N41  1  0.59576552  0.29401477  0.83317239  1  0  -0.399447  0  3.212933  0  0  -0.32295  0  3.491739  0  0  -0.343946  0  3.508212  0  0  -0.348681  -0.308686  0  3.480289  0
N  N42  1  0.77455184  0.75840834  0.20373135  1  0  -0.414409  0  3.216935  0  0  -0.349349  0  3.505563  0  0  -0.36976  0  3.522749  0  0  -0.348369  -0.335238  0  3.493368  0
N  N43  1  0.31267585  0.74184745  0.29625050  1  0  -0.414242  0  3.217647  0  0  -0.349231  0  3.506163  0  0  -0.369611  0  3.523325  0  0  -0.34805  -0.335202  0  3.493986  0
N  N44  1  0.22545025  0.24159444  0.79626879  1  0  -0.414356  0  3.216938  0  0  -0.349313  0  3.505575  0  0  -0.369724  0  3.52276  0  0  -0.348324  -0.335199  0  3.493377  0
N  N45  1  0.68732818  0.25815330  0.70375017  1  0  -0.414214  0  3.217619  0  0  -0.349218  0  3.506129  0  0  -0.369599  0  3.523294  0  0  -0.348047  -0.335188  0  3.493944  0
N  N46  1  0.90117849  0.10386509  0.15099740  1  0  -0.337974  0  3.219858  0  0  -0.267159  0  3.52606  0  0  -0.284446  0  3.533617  0  0  -0.256577  -0.25555  0  3.520865  0
N  N47  1  0.14655745  0.39637438  0.34906662  1  0  -0.337191  0  3.219473  0  0  -0.266393  0  3.524804  0  0  -0.283675  0  3.532365  0  0  -0.256625  -0.254804  0  3.51961  0
N  N48  1  0.09881961  0.89613367  0.84900145  1  0  -0.337953  0  3.219738  0  0  -0.267184  0  3.525976  0  0  -0.28447  0  3.533531  0  0  -0.256595  -0.255571  0  3.520775  0
N  N49  1  0.85344527  0.60362430  0.65093696  1  0  -0.33732  0  3.219572  0  0  -0.266512  0  3.524943  0  0  -0.283794  0  3.5325  0  0  -0.25669  -0.254933  0  3.519763  0
N  N50  1  0.78788361  0.12263427  0.05769136  1  0  -0.116884  0  3.015597  0  0  -0.091402  0  3.298358  0  0  -0.093734  0  3.308526  0  0  -0.094964  -0.089843  0  3.291561  0
N  N51  1  0.10773777  0.37769853  0.44236126  1  0  -0.117702  0  3.016419  0  0  -0.092669  0  3.299504  0  0  -0.094939  0  3.309615  0  0  -0.095541  -0.090997  0  3.29267  0
N  N52  1  0.21211344  0.87736146  0.94230767  1  0  -0.11688  0  3.01545  0  0  -0.091378  0  3.298209  0  0  -0.093708  0  3.308377  0  0  -0.094942  -0.089824  0  3.291418  0
N  N53  1  0.89226352  0.62230024  0.55763743  1  0  -0.117673  0  3.016368  0  0  -0.092634  0  3.299453  0  0  -0.094904  0  3.309563  0  0  -0.095492  -0.090952  0  3.292609  0
N  N54  1  0.65129931  0.00714458  0.00405895  1  0  -0.039937  0  2.983777  0  0  -0.049954  0  3.289387  0  0  -0.045965  0  3.298859  0  0  -0.083439  -0.052279  0  3.282832  0
N  N55  1  0.14021475  0.49323414  0.49589462  1  0  -0.04041  0  2.985388  0  0  -0.050261  0  3.291157  0  0  -0.04627  0  3.300617  0  0  -0.083437  -0.052613  0  3.284733  0
N  N56  1  0.34870308  0.99285213  0.99594170  1  0  -0.040057  0  2.983622  0  0  -0.050073  0  3.289241  0  0  -0.046084  0  3.298712  0  0  -0.083515  -0.052396  0  3.282687  0
N  N57  1  0.85978432  0.50676361  0.50410450  1  0  -0.040386  0  2.985377  0  0  -0.050239  0  3.291148  0  0  -0.046248  0  3.30061  0  0  -0.083431  -0.052591  0  3.284719  0
N  N58  1  0.66995717  0.91153579  0.06032493  1  0  -0.317429  0  3.156215  0  0  -0.259649  0  3.457169  0  0  -0.276712  0  3.468389  0  0  -0.22169  -0.24843  0  3.449555  0
N  N59  1  0.19820920  0.58875021  0.43955723  1  0  -0.316597  0  3.157043  0  0  -0.259575  0  3.457899  0  0  -0.276715  0  3.469285  0  0  -0.221907  -0.2482  0  3.450142  0
N  N60  1  0.33004444  0.08846094  0.93967494  1  0  -0.317326  0  3.156066  0  0  -0.259577  0  3.457026  0  0  -0.27664  0  3.468248  0  0  -0.221665  -0.248366  0  3.449423  0
N  N61  1  0.80179165  0.41125054  0.56044360  1  0  -0.316661  0  3.15695  0  0  -0.259614  0  3.457806  0  0  -0.276755  0  3.469192  0  0  -0.221944  -0.248241  0  3.450053  0
N  N62  1  0.34980271  0.01522367  0.41430297  1  0  -0.282414  0  3.046995  0  0  -0.236282  0  3.321299  0  0  -0.249861  0  3.334225  0  0  -0.212879  -0.227222  0  3.312493  0
N  N63  1  0.42049745  0.48483286  0.08572918  1  0  -0.281801  0  3.045681  0  0  -0.235995  0  3.320122  0  0  -0.24957  0  3.333026  0  0  -0.212216  -0.226965  0  3.311445  0
N  N64  1  0.65020210  0.98478108  0.58570025  1  0  -0.282441  0  3.047275  0  0  -0.236327  0  3.321572  0  0  -0.249909  0  3.334504  0  0  -0.212897  -0.227267  0  3.312763  0
N  N65  1  0.57950206  0.51516691  0.91426956  1  0  -0.281779  0  3.045734  0  0  -0.235992  0  3.32018  0  0  -0.249563  0  3.333087  0  0  -0.212223  -0.226954  0  3.311503  0
N  N66  1  0.48194818  0.13850723  0.44073561  1  0  -0.083215  0  3.221252  0  0  -0.030083  0  3.521408  0  0  -0.036596  0  3.534637  0  0  -0.09385  -0.025614  0  3.512359  0
N  N67  1  0.40268897  0.36144513  0.05928053  1  0  -0.083059  0  3.220936  0  0  -0.029624  0  3.521049  0  0  -0.036124  0  3.534268  0  0  -0.094533  -0.025156  0  3.512088  0
N  N68  1  0.51805318  0.86149558  0.55926263  1  0  -0.083234  0  3.221146  0  0  -0.030069  0  3.521254  0  0  -0.036583  0  3.534481  0  0  -0.093864  -0.025588  0  3.512193  0
N  N69  1  0.59730662  0.63855468  0.94071647  1  0  -0.083065  0  3.220851  0  0  -0.029645  0  3.520988  0  0  -0.036145  0  3.534205  0  0  -0.094532  -0.025178  0  3.512029  0
N  N70  1  0.43080305  0.22440648  0.39645021  1  0  -0.053033  0  2.903953  0  0  -0.068696  0  3.188207  0  0  -0.063964  0  3.199304  0  0  -0.093171  -0.071649  0  3.18066  0
N  N71  1  0.30995274  0.27567157  0.10363006  1  0  -0.053175  0  2.902686  0  0  -0.06904  0  3.186968  0  0  -0.064361  0  3.198075  0  0  -0.093154  -0.071986  0  3.17944  0
N  N72  1  0.56919713  0.77559435  0.60354653  1  0  -0.05306  0  2.903904  0  0  -0.068754  0  3.188155  0  0  -0.064021  0  3.199251  0  0  -0.093185  -0.07171  0  3.180612  0
N  N73  1  0.69004657  0.72432921  0.89636920  1  0  -0.053134  0  2.902564  0  0  -0.069002  0  3.186848  0  0  -0.064322  0  3.197951  0  0  -0.093105  -0.071952  0  3.179322  0
N  N74  1  0.26042045  0.15709084  0.33918915  1  0  -0.320669  0  3.229192  0  0  -0.246956  0  3.539593  0  0  -0.264065  0  3.546891  0  0  -0.242662  -0.235536  0  3.534545  0
N  N75  1  0.26438029  0.34315573  0.16094865  1  0  -0.321425  0  3.228412  0  0  -0.247173  0  3.538552  0  0  -0.26428  0  3.5458  0  0  -0.242422  -0.235842  0  3.533754  0
N  N76  1  0.73957802  0.84290991  0.66081153  1  0  -0.320544  0  3.22949  0  0  -0.246814  0  3.539853  0  0  -0.263923  0  3.547152  0  0  -0.242609  -0.235398  0  3.53481  0
N  N77  1  0.73562338  0.65684704  0.83905196  1  0  -0.321454  0  3.228356  0  0  -0.247185  0  3.538456  0  0  -0.264285  0  3.545701  0  0  -0.242486  -0.235844  0  3.533656  0
O  O78  1  0.20754991  0.83234661  0.58638772  1  0  -0.774912  0  1.903208  0  0  -0.724491  0  2.094988  0  0  -0.742149  0  2.067938  0  0  -0.568671  -0.712083  0  2.113933  0
O  O79  1  0.28873801  0.66756152  0.91348843  1  0  -0.775112  0  1.903038  0  0  -0.72423  0  2.09587  0  0  -0.741903  0  2.068827  0  0  -0.568476  -0.711644  0  2.113933  0
O  O80  1  0.79244890  0.16765210  0.41361413  1  0  -0.774935  0  1.903224  0  0  -0.724514  0  2.094994  0  0  -0.742172  0  2.067944  0  0  -0.568683  -0.712108  0  2.11393  0
O  O81  1  0.71125784  0.33243621  0.08651195  1  0  -0.775053  0  1.903008  0  0  -0.724171  0  2.095856  0  0  -0.741844  0  2.068817  0  0  -0.568455  -0.711586  0  2.113926  0
