# generated using pymatgen
data_AgH6C6N3O4
_symmetry_space_group_name_H-M   'P 1'
_cell_length_a   8.05576553
_cell_length_b   7.98145150
_cell_length_c   12.67774415
_cell_angle_alpha   94.76185777
_cell_angle_beta   89.99987003
_cell_angle_gamma   90.00005103
_symmetry_Int_Tables_number   1
_chemical_formula_structural   AgH6C6N3O4
_chemical_formula_sum   'Ag4 H24 C24 N12 O16'
_cell_volume   812.32356237
_cell_formula_units_Z   4
loop_
 _symmetry_equiv_pos_site_id
 _symmetry_equiv_pos_as_xyz
  1  'x, y, z'
loop_
 _atom_site_type_symbol
 _atom_site_label
 _atom_site_symmetry_multiplicity
 _atom_site_fract_x
 _atom_site_fract_y
 _atom_site_fract_z
 _atom_site_occupancy
 _atom_site_hle17_bader_spin_density
 _atom_site_hle17_ddec_charge
 _atom_site_hle17_ddec_spin_density
 _atom_site_hle17_ddec_sum_bond_order
 _atom_site_hle17_magmom
 _atom_site_hse06_10hf_bader_spin_density
 _atom_site_hse06_10hf_ddec_charge
 _atom_site_hse06_10hf_ddec_spin_density
 _atom_site_hse06_10hf_ddec_sum_bond_order
 _atom_site_hse06_10hf_magmom
 _atom_site_hse06_bader_spin_density
 _atom_site_hse06_ddec_charge
 _atom_site_hse06_ddec_spin_density
 _atom_site_hse06_ddec_sum_bond_order
 _atom_site_hse06_magmom
 _atom_site_pbe_bader_spin_density
 _atom_site_pbe_cm5_charge
 _atom_site_pbe_ddec_charge
 _atom_site_pbe_ddec_spin_density
 _atom_site_pbe_ddec_sum_bond_order
 _atom_site_pbe_magmom
Ag  Ag0  1  0.25964436  0.53513698  0.54407230  1  0  0.574059  0  1.38555  0  0  0.430712  0  1.832643  0  0  0.458735  0  1.785577  0  0  0.479757  0.410622  0  1.864863  0
Ag  Ag1  1  0.75964077  0.46486286  0.95592565  1  0  0.574091  0  1.385564  0  0  0.430744  0  1.832661  0  0  0.458768  0  1.785593  0  0  0.479759  0.410653  0  1.864881  0
Ag  Ag2  1  0.74035858  0.46486061  0.45592583  1  0  0.574057  0  1.385534  0  0  0.430714  0  1.832618  0  0  0.458736  0  1.785553  0  0  0.479745  0.410623  0  1.864839  0
Ag  Ag3  1  0.24035596  0.53513850  0.04407269  1  0  0.574043  0  1.385549  0  0  0.430689  0  1.832639  0  0  0.458717  0  1.785571  0  0  0.479736  0.410599  0  1.864862  0
H  H4  1  0.18526583  0.70807212  0.30803801  1  0  0.112965  0  0.932022  0  0  0.122937  0  0.993389  0  0  0.1252  0  0.990361  0  0  0.141855  0.121024  0  0.995879  0
H  H5  1  0.68525806  0.29192443  0.19196045  1  0  0.112968  0  0.931978  0  0  0.122961  0  0.993315  0  0  0.125224  0  0.990286  0  0  0.141849  0.121047  0  0.995805  0
H  H6  1  0.81474207  0.29192421  0.69196005  1  0  0.112948  0  0.932007  0  0  0.122939  0  0.993345  0  0  0.125201  0  0.990317  0  0  0.141844  0.121024  0  0.995836  0
H  H7  1  0.31473742  0.70807316  0.80803768  1  0  0.113078  0  0.932153  0  0  0.123063  0  0.993474  0  0  0.125325  0  0.990447  0  0  0.14191  0.121148  0  0.995964  0
H  H8  1  0.15839813  0.20456529  0.17852827  1  0  0.125006  0  0.960065  0  0  0.129614  0  1.028636  0  0  0.132946  0  1.023356  0  0  0.144614  0.126763  0  1.032339  0
H  H9  1  0.65839903  0.79543248  0.32147266  1  0  0.124981  0  0.960024  0  0  0.129589  0  1.028621  0  0  0.132921  0  1.023339  0  0  0.144598  0.126738  0  1.032327  0
H  H10  1  0.84159860  0.79543102  0.82147216  1  0  0.124993  0  0.96006  0  0  0.129585  0  1.028659  0  0  0.132917  0  1.023378  0  0  0.144613  0.126733  0  1.032364  0
H  H11  1  0.34160391  0.20456635  0.67852711  1  0  0.124983  0  0.960046  0  0  0.129587  0  1.02863  0  0  0.132921  0  1.023352  0  0  0.144597  0.126737  0  1.032335  0
H  H12  1  0.15204065  0.22679589  0.48458149  1  0  0.091117  0  0.936255  0  0  0.096092  0  1.015246  0  0  0.10047  0  1.008108  0  0  0.122274  0.092912  0  1.019633  0
H  H13  1  0.65204139  0.77320565  0.01541966  1  0  0.091065  0  0.936265  0  0  0.096014  0  1.015278  0  0  0.100395  0  1.008135  0  0  0.122242  0.092832  0  1.019671  0
H  H14  1  0.84795980  0.77320546  0.51541921  1  0  0.091061  0  0.936239  0  0  0.096014  0  1.015235  0  0  0.100395  0  1.008094  0  0  0.122245  0.092829  0  1.01963  0
H  H15  1  0.34795534  0.22679570  0.98458026  1  0  0.091087  0  0.936276  0  0  0.096029  0  1.015274  0  0  0.10041  0  1.008137  0  0  0.122264  0.092849  0  1.019666  0
H  H16  1  0.30142749  0.99613261  0.30186659  1  0  0.126063  0  0.943218  0  0  0.13589  0  1.010306  0  0  0.138517  0  1.009387  0  0  0.108479  0.13395  0  1.011108  0
H  H17  1  0.80142814  0.00386777  0.19813507  1  0  0.126105  0  0.943142  0  0  0.135876  0  1.010283  0  0  0.138502  0  1.009363  0  0  0.108485  0.133937  0  1.011087  0
H  H18  1  0.69857296  0.00386873  0.69813411  1  0  0.126061  0  0.943245  0  0  0.135878  0  1.01033  0  0  0.138506  0  1.00941  0  0  0.108459  0.133936  0  1.011133  0
H  H19  1  0.19856983  0.99613357  0.80186564  1  0  0.126043  0  0.94324  0  0  0.135869  0  1.010337  0  0  0.138496  0  1.009416  0  0  0.108472  0.133927  0  1.011139  0
H  H20  1  0.28252648  0.95020732  0.43454105  1  0  0.137276  0  0.922808  0  0  0.151098  0  0.982588  0  0  0.153696  0  0.981523  0  0  0.116484  0.149099  0  0.983648  0
H  H21  1  0.78252640  0.04979431  0.06545991  1  0  0.137272  0  0.922803  0  0  0.151084  0  0.982578  0  0  0.153691  0  0.981498  0  0  0.116486  0.149085  0  0.983638  0
H  H22  1  0.71747645  0.04979401  0.56546044  1  0  0.137272  0  0.922832  0  0  0.151083  0  0.982618  0  0  0.153686  0  0.981545  0  0  0.116463  0.149082  0  0.983676  0
H  H23  1  0.21746908  0.95020830  0.93454007  1  0  0.137281  0  0.922822  0  0  0.151104  0  0.982604  0  0  0.153697  0  0.98154  0  0  0.116484  0.149102  0  0.983661  0
H  H24  1  0.71201986  0.10534589  0.37116010  1  0  0.389998  0  0.922659  0  0  0.356206  0  1.004149  0  0  0.369999  0  0.987571  0  0  0.289578  0.34657  0  1.013465  0
H  H25  1  0.21201974  0.89465191  0.12884154  1  0  0.389988  0  0.92266  0  0  0.356169  0  1.0042  0  0  0.369961  0  0.987626  0  0  0.289583  0.346532  0  1.013515  0
H  H26  1  0.28798183  0.89465168  0.62884039  1  0  0.389978  0  0.922689  0  0  0.35618  0  1.004188  0  0  0.369972  0  0.98761  0  0  0.28957  0.346544  0  1.013505  0
H  H27  1  0.78797699  0.10534692  0.87115902  1  0  0.389968  0  0.922677  0  0  0.356141  0  1.004234  0  0  0.369932  0  0.987668  0  0  0.289563  0.346505  0  1.013547  0
C  C28  1  0.18220462  0.57177515  0.29944212  1  0  0.228169  0  3.650338  0  0  0.169017  0  3.924763  0  0  0.184102  0  3.933922  0  0  0.157659  0.15931  0  3.916436  0
C  C29  1  0.68219819  0.42822644  0.20055584  1  0  0.228175  0  3.650391  0  0  0.169008  0  3.924836  0  0  0.184092  0  3.933995  0  0  0.157712  0.159304  0  3.916498  0
C  C30  1  0.81780079  0.42822497  0.70055536  1  0  0.228227  0  3.650295  0  0  0.169076  0  3.924737  0  0  0.18416  0  3.933895  0  0  0.157727  0.159371  0  3.9164  0
C  C31  1  0.31779854  0.57177997  0.79944121  1  0  0.227991  0  3.650607  0  0  0.168837  0  3.92503  0  0  0.183919  0  3.934201  0  0  0.157589  0.15913  0  3.9167  0
C  C32  1  0.16783852  0.31752330  0.23210701  1  0  0.197906  0  3.581163  0  0  0.123115  0  3.838394  0  0  0.149045  0  3.851981  0  0  0.172491  0.113041  0  3.831747  0
C  C33  1  0.66783952  0.68247449  0.26789312  1  0  0.197913  0  3.581147  0  0  0.123088  0  3.838426  0  0  0.149022  0  3.85201  0  0  0.17243  0.113014  0  3.831778  0
C  C34  1  0.83215945  0.68247427  0.76789349  1  0  0.197927  0  3.581106  0  0  0.123144  0  3.838343  0  0  0.149074  0  3.851928  0  0  0.172459  0.11307  0  3.831695  0
C  C35  1  0.33216342  0.31752561  0.73210594  1  0  0.19795  0  3.581176  0  0  0.123176  0  3.838419  0  0  0.149074  0  3.851995  0  0  0.172521  0.113101  0  3.831773  0
C  C36  1  0.98549601  0.08197259  0.38249554  1  0  0.655494  0  3.847544  0  0  0.604352  0  4.159248  0  0  0.637049  0  4.151121  0  0  0.213779  0.582271  0  4.162938  0
C  C37  1  0.48549595  0.91802416  0.11750486  1  0  0.655505  0  3.847636  0  0  0.604303  0  4.159423  0  0  0.637003  0  4.151293  0  0  0.213738  0.582223  0  4.163114  0
C  C38  1  0.01450692  0.91802373  0.61750410  1  0  0.655474  0  3.847543  0  0  0.604241  0  4.159373  0  0  0.636941  0  4.151243  0  0  0.213713  0.582159  0  4.163064  0
C  C39  1  0.51450202  0.08197216  0.88249556  1  0  0.655514  0  3.847585  0  0  0.604298  0  4.159366  0  0  0.636999  0  4.151241  0  0  0.213743  0.582219  0  4.163059  0
C  C40  1  0.15403066  0.17312053  0.40166153  1  0  0.001632  0  3.603633  0  0  -0.037467  0  3.837505  0  0  -0.027647  0  3.849627  0  0  0.02191  -0.037562  0  3.830419  0
C  C41  1  0.65403238  0.82687976  0.09833955  1  0  0.001685  0  3.603653  0  0  -0.037308  0  3.837335  0  0  -0.027513  0  3.849503  0  0  0.021945  -0.037405  0  3.830253  0
C  C42  1  0.84596980  0.82687955  0.59833989  1  0  0.001689  0  3.603662  0  0  -0.037291  0  3.837367  0  0  -0.027492  0  3.849525  0  0  0.021943  -0.037386  0  3.830281  0
C  C43  1  0.34596559  0.17312159  0.90166037  1  0  0.001695  0  3.60364  0  0  -0.037221  0  3.837274  0  0  -0.027456  0  3.849432  0  0  0.021964  -0.037319  0  3.830191  0
C  C44  1  0.29979208  0.05368086  0.38348450  1  0  -0.312381  0  3.673925  0  0  -0.358722  0  3.926186  0  0  -0.364671  0  3.931061  0  0  -0.163854  -0.354238  0  3.921051  0
C  C45  1  0.79979260  0.94632078  0.11651723  1  0  -0.312411  0  3.673933  0  0  -0.358683  0  3.926107  0  0  -0.364626  0  3.93096  0  0  -0.163865  -0.354209  0  3.920989  0
C  C46  1  0.70020962  0.94632048  0.61651621  1  0  -0.312409  0  3.673943  0  0  -0.35873  0  3.92613  0  0  -0.364683  0  3.931005  0  0  -0.163823  -0.354257  0  3.921014  0
C  C47  1  0.20020413  0.05368182  0.88348354  1  0  -0.312371  0  3.673952  0  0  -0.358739  0  3.926213  0  0  -0.364678  0  3.931083  0  0  -0.163834  -0.354258  0  3.921087  0
C  C48  1  0.46742108  0.13202923  0.40832060  1  0  0.725882  0  3.761725  0  0  0.673508  0  4.066209  0  0  0.706435  0  4.058859  0  0  0.225179  0.651185  0  4.070358  0
C  C49  1  0.96742162  0.86797126  0.09168161  1  0  0.725906  0  3.761708  0  0  0.673514  0  4.066181  0  0  0.706441  0  4.058827  0  0  0.2252  0.651191  0  4.070328  0
C  C50  1  0.53257937  0.86797086  0.59167924  1  0  0.725987  0  3.761659  0  0  0.673606  0  4.06613  0  0  0.706535  0  4.058776  0  0  0.225209  0.651283  0  4.070278  0
C  C51  1  0.03257635  0.13203133  0.90831995  1  0  0.725918  0  3.761806  0  0  0.673475  0  4.066381  0  0  0.706404  0  4.059027  0  0  0.225144  0.65115  0  4.070528  0
N  N52  1  0.17582143  0.47927968  0.38209196  1  0  -0.283374  0  3.170378  0  0  -0.239803  0  3.480868  0  0  -0.244937  0  3.495686  0  0  -0.251643  -0.229494  0  3.473998  0
N  N53  1  0.67581661  0.52071937  0.11790822  1  0  -0.283425  0  3.17056  0  0  -0.239837  0  3.481029  0  0  -0.244965  0  3.495845  0  0  -0.251703  -0.229527  0  3.474162  0
N  N54  1  0.82418151  0.52071916  0.61790781  1  0  -0.283392  0  3.170486  0  0  -0.239824  0  3.480972  0  0  -0.244956  0  3.495786  0  0  -0.251686  -0.229514  0  3.474103  0
N  N55  1  0.32417764  0.47928073  0.88209083  1  0  -0.283347  0  3.170502  0  0  -0.239753  0  3.480975  0  0  -0.244917  0  3.49578  0  0  -0.251635  -0.229445  0  3.474104  0
N  N56  1  0.17850305  0.47614837  0.20544080  1  0  -0.369438  0  3.237898  0  0  -0.291378  0  3.548085  0  0  -0.313056  0  3.554525  0  0  -0.356311  -0.27662  0  3.540945  0
N  N57  1  0.67850009  0.52384817  0.29455766  1  0  -0.369394  0  3.237782  0  0  -0.291348  0  3.547996  0  0  -0.313026  0  3.554435  0  0  -0.356301  -0.276589  0  3.540855  0
N  N58  1  0.82149864  0.52384670  0.79455797  1  0  -0.369478  0  3.237726  0  0  -0.291451  0  3.547945  0  0  -0.313129  0  3.554381  0  0  -0.356332  -0.276693  0  3.540806  0
N  N59  1  0.32150036  0.47614942  0.70543968  1  0  -0.369376  0  3.237893  0  0  -0.291331  0  3.548089  0  0  -0.313009  0  3.554542  0  0  -0.35633  -0.276573  0  3.540946  0
N  N60  1  0.16713449  0.31710272  0.33778776  1  0  0.034063  0  3.529091  0  0  0.151197  0  3.698896  0  0  0.109062  0  3.764678  0  0  -0.127955  0.158479  0  3.680617  0
N  N61  1  0.66713338  0.68289632  0.16221244  1  0  0.034039  0  3.529144  0  0  0.151176  0  3.69891  0  0  0.109035  0  3.764699  0  0  -0.127891  0.158459  0  3.680632  0
N  N62  1  0.83286472  0.68289612  0.66221202  1  0  0.034036  0  3.529114  0  0  0.15116  0  3.698885  0  0  0.109027  0  3.76466  0  0  -0.127944  0.15844  0  3.680607  0
N  N63  1  0.33286335  0.31710503  0.83778668  1  0  0.033978  0  3.529161  0  0  0.151036  0  3.699006  0  0  0.108997  0  3.76467  0  0  -0.127987  0.158316  0  3.680731  0
O  O64  1  0.86154262  0.18223849  0.37154993  1  0  -0.649047  0  2.100537  0  0  -0.594266  0  2.36752  0  0  -0.620089  0  2.351659  0  0  -0.338423  -0.575775  0  2.37618  0
O  O65  1  0.36154367  0.81776069  0.12845078  1  0  -0.649009  0  2.100583  0  0  -0.594213  0  2.367633  0  0  -0.620033  0  2.351772  0  0  -0.338412  -0.575719  0  2.376286  0
O  O66  1  0.13845659  0.81775909  0.62844977  1  0  -0.648993  0  2.100567  0  0  -0.594199  0  2.367608  0  0  -0.620019  0  2.351745  0  0  -0.338392  -0.575706  0  2.376262  0
O  O67  1  0.63845430  0.18223941  0.87154906  1  0  -0.64904  0  2.100499  0  0  -0.594244  0  2.367565  0  0  -0.620069  0  2.351713  0  0  -0.33845  -0.57574  0  2.376187  0
O  O68  1  0.97887380  0.92626502  0.38081137  1  0  -0.593872  0  1.90765  0  0  -0.548709  0  2.134557  0  0  -0.572732  0  2.128488  0  0  -0.31762  -0.532025  0  2.138365  0
O  O69  1  0.47887299  0.07373548  0.11919083  1  0  -0.593882  0  1.907645  0  0  -0.548725  0  2.134607  0  0  -0.572745  0  2.128532  0  0  -0.31759  -0.532039  0  2.138409  0
O  O70  1  0.02112914  0.07373631  0.61919170  1  0  -0.593866  0  1.90754  0  0  -0.548709  0  2.134536  0  0  -0.572726  0  2.128454  0  0  -0.317598  -0.532022  0  2.138338  0
O  O71  1  0.52112249  0.92626335  0.88080895  1  0  -0.593868  0  1.907724  0  0  -0.548719  0  2.134707  0  0  -0.572732  0  2.12862  0  0  -0.317566  -0.53203  0  2.138503  0
O  O72  1  0.58939960  0.04411016  0.36251057  1  0  -0.584997  0  2.115703  0  0  -0.519864  0  2.337938  0  0  -0.545752  0  2.324998  0  0  -0.329756  -0.501957  0  2.345088  0
O  O73  1  0.08940198  0.95588882  0.13749053  1  0  -0.584998  0  2.11565  0  0  -0.519853  0  2.337942  0  0  -0.545743  0  2.325002  0  0  -0.329779  -0.501948  0  2.345091  0
O  O74  1  0.41060086  0.95588867  0.63748999  1  0  -0.584994  0  2.11568  0  0  -0.519859  0  2.337927  0  0  -0.545747  0  2.324987  0  0  -0.329738  -0.501951  0  2.345077  0
O  O75  1  0.91059723  0.04411127  0.86250932  1  0  -0.585032  0  2.115622  0  0  -0.519838  0  2.337916  0  0  -0.545727  0  2.324981  0  0  -0.329764  -0.501936  0  2.345068  0
O  O76  1  0.48651791  0.26363750  0.46669628  1  0  -0.606533  0  1.978153  0  0  -0.55351  0  2.242972  0  0  -0.576355  0  2.229198  0  0  -0.308472  -0.53753  0  2.251901  0
O  O77  1  0.98651731  0.73636176  0.03330505  1  0  -0.606533  0  1.978133  0  0  -0.553523  0  2.242976  0  0  -0.576368  0  2.229201  0  0  -0.308465  -0.537541  0  2.251902  0
O  O78  1  0.51348378  0.73636386  0.53330285  1  0  -0.606575  0  1.97817  0  0  -0.553578  0  2.243038  0  0  -0.576423  0  2.229261  0  0  -0.308486  -0.537598  0  2.251968  0
O  O79  1  0.01347818  0.26363832  0.96669637  1  0  -0.606528  0  1.978218  0  0  -0.553491  0  2.243084  0  0  -0.576335  0  2.229311  0  0  -0.308456  -0.537513  0  2.252014  0
