# generated using pymatgen
data_ZnH12C6N2O9
_symmetry_space_group_name_H-M   'P 1'
_cell_length_a   4.99018515
_cell_length_b   4.99032527
_cell_length_c   24.00312851
_cell_angle_alpha   94.14309506
_cell_angle_beta   94.14124129
_cell_angle_gamma   81.04435275
_symmetry_Int_Tables_number   1
_chemical_formula_structural   ZnH12C6N2O9
_chemical_formula_sum   'Zn2 H24 C12 N4 O18'
_cell_volume   587.78274343
_cell_formula_units_Z   2
loop_
 _symmetry_equiv_pos_site_id
 _symmetry_equiv_pos_as_xyz
  1  'x, y, z'
loop_
 _atom_site_type_symbol
 _atom_site_label
 _atom_site_symmetry_multiplicity
 _atom_site_fract_x
 _atom_site_fract_y
 _atom_site_fract_z
 _atom_site_occupancy
 _atom_site_hle17_bader_spin_density
 _atom_site_hle17_ddec_charge
 _atom_site_hle17_ddec_spin_density
 _atom_site_hle17_ddec_sum_bond_order
 _atom_site_hle17_magmom
 _atom_site_hse06_10hf_bader_spin_density
 _atom_site_hse06_10hf_ddec_charge
 _atom_site_hse06_10hf_ddec_spin_density
 _atom_site_hse06_10hf_ddec_sum_bond_order
 _atom_site_hse06_10hf_magmom
 _atom_site_hse06_bader_spin_density
 _atom_site_hse06_ddec_charge
 _atom_site_hse06_ddec_spin_density
 _atom_site_hse06_ddec_sum_bond_order
 _atom_site_hse06_magmom
 _atom_site_pbe_bader_spin_density
 _atom_site_pbe_cm5_charge
 _atom_site_pbe_ddec_charge
 _atom_site_pbe_ddec_spin_density
 _atom_site_pbe_ddec_sum_bond_order
 _atom_site_pbe_magmom
Zn  Zn0  1  0.10892629  0.89107810  0.74999664  1  0  1.257718  0  1.606239  0  0  1.086681  0  2.064994  0  0  1.134169  0  2.001021  0  0  0.694297  1.052881  0  2.109541  0
Zn  Zn1  1  0.89108084  0.10892993  0.25000432  1  0  1.257723  0  1.60626  0  0  1.086656  0  2.065091  0  0  1.134131  0  2.001114  0  0  0.694294  1.05285  0  2.109643  0
H  H2  1  0.79106519  0.05207057  0.92123470  1  0  0.109846  0  0.912752  0  0  0.119705  0  0.978353  0  0  0.121416  0  0.977081  0  0  0.117518  0.118463  0  0.979321  0
H  H3  1  0.94792970  0.20895575  0.57877418  1  0  0.109914  0  0.912906  0  0  0.119759  0  0.978479  0  0  0.121468  0  0.977206  0  0  0.117566  0.11852  0  0.979446  0
H  H4  1  0.20892812  0.94792118  0.07876594  1  0  0.109831  0  0.912779  0  0  0.119714  0  0.9784  0  0  0.12143  0  0.977126  0  0  0.117531  0.118475  0  0.979363  0
H  H5  1  0.05208205  0.79105025  0.42123264  1  0  0.109883  0  0.912735  0  0  0.119712  0  0.978397  0  0  0.12142  0  0.977125  0  0  0.11753  0.118472  0  0.979361  0
H  H6  1  0.51731587  0.88925479  0.89168347  1  0  0.11076  0  0.913121  0  0  0.12742  0  0.967368  0  0  0.129757  0  0.965491  0  0  0.124303  0.125625  0  0.968955  0
H  H7  1  0.11079201  0.48266359  0.60832247  1  0  0.110795  0  0.91326  0  0  0.127396  0  0.967538  0  0  0.129723  0  0.965672  0  0  0.124308  0.125608  0  0.969118  0
H  H8  1  0.48266283  0.11074666  0.10831462  1  0  0.110839  0  0.913115  0  0  0.127523  0  0.967363  0  0  0.129858  0  0.965493  0  0  0.12436  0.125728  0  0.968952  0
H  H9  1  0.88921759  0.51733433  0.39168091  1  0  0.110822  0  0.913235  0  0  0.127419  0  0.967552  0  0  0.129757  0  0.96567  0  0  0.124314  0.125628  0  0.969134  0
H  H10  1  0.26097562  0.27990146  0.82563583  1  0  0.455558  0  0.835625  0  0  0.424021  0  0.898211  0  0  0.434882  0  0.882404  0  0  0.309088  0.416349  0  0.909375  0
H  H11  1  0.72010943  0.73904398  0.67436416  1  0  0.455486  0  0.835719  0  0  0.423942  0  0.898319  0  0  0.434802  0  0.882516  0  0  0.309047  0.416266  0  0.909487  0
H  H12  1  0.73903767  0.72009967  0.17436428  1  0  0.455481  0  0.835748  0  0  0.423946  0  0.898322  0  0  0.434805  0  0.88252  0  0  0.309062  0.416273  0  0.909488  0
H  H13  1  0.27989731  0.26097395  0.32563481  1  0  0.45551  0  0.835699  0  0  0.423973  0  0.898285  0  0  0.434833  0  0.88248  0  0  0.309072  0.416302  0  0.909449  0
H  H14  1  0.55054173  0.07625645  0.80958066  1  0  0.435679  0  0.86776  0  0  0.40103  0  0.935713  0  0  0.412083  0  0.919987  0  0  0.297049  0.393233  0  0.946783  0
H  H15  1  0.92374776  0.44948771  0.69041992  1  0  0.435695  0  0.86774  0  0  0.401001  0  0.935774  0  0  0.412061  0  0.92004  0  0  0.29704  0.393205  0  0.946844  0
H  H16  1  0.44946157  0.92374823  0.19042189  1  0  0.43567  0  0.867776  0  0  0.400977  0  0.935799  0  0  0.412033  0  0.92007  0  0  0.296996  0.393179  0  0.946871  0
H  H17  1  0.07626306  0.55053179  0.30957995  1  0  0.435734  0  0.867689  0  0  0.401082  0  0.935652  0  0  0.412131  0  0.919933  0  0  0.297025  0.393281  0  0.946727  0
H  H18  1  0.59995336  0.60034319  0.96105425  1  0  0.303433  0  0.922922  0  0  0.280303  0  0.996489  0  0  0.28903  0  0.989159  0  0  0.308203  0.274171  0  1.001621  0
H  H19  1  0.39966177  0.40002818  0.53894823  1  0  0.303505  0  0.922891  0  0  0.280305  0  0.996536  0  0  0.289034  0  0.98921  0  0  0.308246  0.274182  0  1.00166  0
H  H20  1  0.40004003  0.39965483  0.03894896  1  0  0.303553  0  0.922854  0  0  0.280387  0  0.996469  0  0  0.289113  0  0.989134  0  0  0.308204  0.274267  0  1.001611  0
H  H21  1  0.60033569  0.59996930  0.46105501  1  0  0.303506  0  0.92276  0  0  0.280324  0  0.996439  0  0  0.289054  0  0.989117  0  0  0.308211  0.274188  0  1.001579  0
H  H22  1  0.40111940  0.40692609  0.76411337  1  0  0.437157  0  0.870134  0  0  0.407115  0  0.930524  0  0  0.418385  0  0.914237  0  0  0.294072  0.399134  0  0.942059  0
H  H23  1  0.59306583  0.59887854  0.73588205  1  0  0.437242  0  0.87001  0  0  0.40722  0  0.930366  0  0  0.418489  0  0.914076  0  0  0.294139  0.399238  0  0.941901  0
H  H24  1  0.59889179  0.59306700  0.23588373  1  0  0.437137  0  0.870154  0  0  0.407061  0  0.930597  0  0  0.418331  0  0.914307  0  0  0.294007  0.39908  0  0.942133  0
H  H25  1  0.40693713  0.40112167  0.26411544  1  0  0.437172  0  0.870132  0  0  0.407133  0  0.930512  0  0  0.418401  0  0.914225  0  0  0.29405  0.39915  0  0.942049  0
C  C26  1  0.90005240  0.75873346  0.85418704  1  0  0.697747  0  3.822744  0  0  0.645505  0  4.131233  0  0  0.678319  0  4.123303  0  0  0.223884  0.623109  0  4.136121  0
C  C27  1  0.24128547  0.09997447  0.64581343  1  0  0.69774  0  3.822888  0  0  0.645543  0  4.131258  0  0  0.678359  0  4.123325  0  0  0.223925  0.62315  0  4.136147  0
C  C28  1  0.09994060  0.24127240  0.14581374  1  0  0.697506  0  3.823114  0  0  0.645476  0  4.131312  0  0  0.678296  0  4.123372  0  0  0.223843  0.623086  0  4.136199  0
C  C29  1  0.75872525  0.90003668  0.35418302  1  0  0.697344  0  3.823138  0  0  0.645433  0  4.131178  0  0  0.678237  0  4.123253  0  0  0.223869  0.623031  0  4.136071  0
C  C30  1  0.73424987  0.85481343  0.90512265  1  0  -0.099208  0  3.654457  0  0  -0.157287  0  3.911013  0  0  -0.156527  0  3.917394  0  0  -0.054564  -0.157769  0  3.906794  0
C  C31  1  0.14516465  0.26576384  0.59487673  1  0  -0.099407  0  3.654791  0  0  -0.15741  0  3.911219  0  0  -0.156636  0  3.917597  0  0  -0.054684  -0.157882  0  3.907012  0
C  C32  1  0.26572310  0.14516859  0.09487433  1  0  -0.099235  0  3.654659  0  0  -0.157525  0  3.911309  0  0  -0.156781  0  3.917688  0  0  -0.054713  -0.157981  0  3.9071  0
C  C33  1  0.85482616  0.73423800  0.40512107  1  0  -0.09922  0  3.654754  0  0  -0.157341  0  3.911322  0  0  -0.156573  0  3.91768  0  0  -0.05464  -0.157825  0  3.907105  0
C  C34  1  0.00606299  0.60306603  0.97797296  1  0  0.442668  0  3.861867  0  0  0.39823  0  4.153934  0  0  0.423958  0  4.151815  0  0  0.241295  0.380912  0  4.154943  0
C  C35  1  0.39691755  0.99394669  0.52203009  1  0  0.442826  0  3.861575  0  0  0.398286  0  4.153814  0  0  0.424017  0  4.151693  0  0  0.241408  0.380975  0  4.154823  0
C  C36  1  0.99393236  0.39691312  0.02202465  1  0  0.44311  0  3.861457  0  0  0.398466  0  4.153706  0  0  0.424195  0  4.151583  0  0  0.241374  0.381146  0  4.154753  0
C  C37  1  0.60307186  0.00606017  0.47797608  1  0  0.442907  0  3.861081  0  0  0.398351  0  4.153386  0  0  0.424084  0  4.151265  0  0  0.241368  0.381022  0  4.154394  0
N  N38  1  0.76982293  0.66477253  0.94830217  1  0  -0.364322  0  3.38954  0  0  -0.308577  0  3.634809  0  0  -0.329051  0  3.644677  0  0  -0.409482  -0.294586  0  3.627713  0
N  N39  1  0.33522888  0.23018191  0.55169948  1  0  -0.364268  0  3.389565  0  0  -0.308473  0  3.634909  0  0  -0.328953  0  3.644775  0  0  -0.409487  -0.294513  0  3.627838  0
N  N40  1  0.23015437  0.33520716  0.05169733  1  0  -0.364515  0  3.389811  0  0  -0.308583  0  3.635059  0  0  -0.329038  0  3.644911  0  0  -0.409399  -0.294663  0  3.628036  0
N  N41  1  0.66478628  0.76982496  0.44830031  1  0  -0.364379  0  3.389394  0  0  -0.308627  0  3.634843  0  0  -0.329114  0  3.64471  0  0  -0.409484  -0.294632  0  3.627746  0
O  O42  1  0.35751127  0.15265978  0.79698986  1  0  -0.871128  0  1.960229  0  0  -0.797736  0  2.166603  0  0  -0.822527  0  2.130971  0  0  -0.561861  -0.780215  0  2.191273  0
O  O43  1  0.84733307  0.64250439  0.70301159  1  0  -0.871056  0  1.96035  0  0  -0.797651  0  2.166743  0  0  -0.822443  0  2.131097  0  0  -0.561814  -0.780128  0  2.191415  0
O  O44  1  0.64250398  0.84734101  0.20300944  1  0  -0.871074  0  1.960308  0  0  -0.797625  0  2.166706  0  0  -0.822417  0  2.131078  0  0  -0.561816  -0.780101  0  2.191374  0
O  O45  1  0.15267615  0.35750137  0.29698937  1  0  -0.87109  0  1.960256  0  0  -0.797679  0  2.166612  0  0  -0.822472  0  2.130991  0  0  -0.5618  -0.78016  0  2.191288  0
O  O46  1  0.41128075  0.58870164  0.74999116  1  0  -0.898157  0  1.945533  0  0  -0.828858  0  2.179075  0  0  -0.851266  0  2.138441  0  0  -0.604626  -0.813071  0  2.207242  0
O  O47  1  0.58871168  0.41128512  0.24999816  1  0  -0.898124  0  1.945656  0  0  -0.82879  0  2.179241  0  0  -0.8512  0  2.138614  0  0  -0.604488  -0.812997  0  2.207396  0
O  O48  1  0.86247734  0.93245818  0.81499968  1  0  -0.707463  0  2.07043  0  0  -0.62374  0  2.331812  0  0  -0.654049  0  2.315069  0  0  -0.329218  -0.602542  0  2.342845  0
O  O49  1  0.06758644  0.13752343  0.68500204  1  0  -0.707524  0  2.070863  0  0  -0.623774  0  2.332197  0  0  -0.654103  0  2.315469  0  0  -0.329226  -0.602578  0  2.343234  0
O  O50  1  0.13752379  0.06754662  0.18500118  1  0  -0.707444  0  2.070617  0  0  -0.623706  0  2.331837  0  0  -0.654022  0  2.315096  0  0  -0.329204  -0.602507  0  2.342873  0
O  O51  1  0.93244519  0.86247126  0.31499778  1  0  -0.707359  0  2.07094  0  0  -0.623774  0  2.332239  0  0  -0.654056  0  2.315475  0  0  -0.329224  -0.602563  0  2.343264  0
O  O52  1  0.05381986  0.53842738  0.85261101  1  0  -0.596501  0  1.987839  0  0  -0.549175  0  2.213636  0  0  -0.572403  0  2.203524  0  0  -0.305304  -0.533126  0  2.22025  0
O  O53  1  0.46157536  0.94619234  0.64738499  1  0  -0.596468  0  1.987713  0  0  -0.549157  0  2.213487  0  0  -0.572381  0  2.20337  0  0  -0.305334  -0.533105  0  2.220098  0
O  O54  1  0.94617754  0.46156799  0.14739096  1  0  -0.596304  0  1.988098  0  0  -0.549061  0  2.213795  0  0  -0.57229  0  2.203687  0  0  -0.305216  -0.533007  0  2.220405  0
O  O55  1  0.53840716  0.05382276  0.35261411  1  0  -0.59633  0  1.987728  0  0  -0.549088  0  2.213351  0  0  -0.572316  0  2.203238  0  0  -0.305259  -0.533037  0  2.219967  0
O  O56  1  0.21758609  0.69887508  0.97193518  1  0  -0.534074  0  1.968813  0  0  -0.495745  0  2.194113  0  0  -0.514746  0  2.187311  0  0  -0.299819  -0.482681  0  2.198463  0
O  O57  1  0.30108948  0.78243133  0.52806673  1  0  -0.534232  0  1.96853  0  0  -0.495836  0  2.193857  0  0  -0.514828  0  2.187036  0  0  -0.299923  -0.482772  0  2.198209  0
O  O58  1  0.78238961  0.30109297  0.02806627  1  0  -0.534345  0  1.968251  0  0  -0.496019  0  2.193708  0  0  -0.515014  0  2.186888  0  0  -0.299971  -0.482938  0  2.198059  0
O  O59  1  0.69891973  0.21757443  0.47193422  1  0  -0.534272  0  1.968172  0  0  -0.495856  0  2.193505  0  0  -0.514852  0  2.186687  0  0  -0.29994  -0.4828  0  2.19788  0
