# generated using pymatgen
data_Zn2H4C9O7
_symmetry_space_group_name_H-M   'P 1'
_cell_length_a   11.50127106
_cell_length_b   16.48050393
_cell_length_c   16.48052893
_cell_angle_alpha   90.00005392
_cell_angle_beta   89.99981213
_cell_angle_gamma   89.99999212
_symmetry_Int_Tables_number   1
_chemical_formula_structural   Zn2H4C9O7
_chemical_formula_sum   'Zn16 H32 C72 O56'
_cell_volume   3123.83058094
_cell_formula_units_Z   8
loop_
 _symmetry_equiv_pos_site_id
 _symmetry_equiv_pos_as_xyz
  1  'x, y, z'
loop_
 _atom_site_type_symbol
 _atom_site_label
 _atom_site_symmetry_multiplicity
 _atom_site_fract_x
 _atom_site_fract_y
 _atom_site_fract_z
 _atom_site_occupancy
 _atom_site_pbe_bader_charge
 _atom_site_pbe_bader_spin_density
 _atom_site_pbe_cm5_charge
 _atom_site_pbe_ddec_charge
 _atom_site_pbe_ddec_spin_density
 _atom_site_pbe_ddec_sum_bond_order
 _atom_site_pbe_magmom
Zn  Zn0  1  0.13915855  0.37663610  0.35788234  1  1.323227  0  0.687024  0.969063  0  2.267298  0
Zn  Zn1  1  0.13915787  0.62336412  0.64211726  1  1.323208  0  0.68699  0.968995  0  2.267382  0
Zn  Zn2  1  0.13915761  0.64211585  0.37663550  1  1.3232  0  0.687006  0.96902  0  2.267395  0
Zn  Zn3  1  0.13915707  0.35788497  0.62336349  1  1.323161  0  0.68703  0.969029  0  2.267429  0
Zn  Zn4  1  0.36084422  0.12336312  0.85788533  1  1.32332  0  0.687015  0.969015  0  2.267429  0
Zn  Zn5  1  0.36084232  0.87663586  0.14211193  1  1.323349  0  0.687037  0.969058  0  2.267407  0
Zn  Zn6  1  0.36083976  0.85788193  0.87663568  1  1.323219  0  0.687016  0.96903  0  2.267305  0
Zn  Zn7  1  0.36084330  0.14211948  0.12336280  1  1.323214  0  0.687026  0.969048  0  2.267297  0
Zn  Zn8  1  0.86083984  0.62336409  0.64211338  1  1.32319  0  0.68701  0.969034  0  2.267372  0
Zn  Zn9  1  0.86084226  0.37663606  0.35788513  1  1.323163  0  0.687013  0.969011  0  2.267422  0
Zn  Zn10  1  0.86084426  0.35788251  0.62336386  1  1.32319  0  0.687019  0.969032  0  2.267393  0
Zn  Zn11  1  0.86084132  0.64211885  0.37663769  1  1.32317  0  0.687028  0.969022  0  2.267357  0
Zn  Zn12  1  0.63915677  0.87663706  0.14211768  1  1.323168  0  0.687002  0.968954  0  2.267445  0
Zn  Zn13  1  0.63915955  0.12336492  0.85788440  1  1.323207  0  0.687028  0.969027  0  2.267372  0
Zn  Zn14  1  0.63916036  0.14211340  0.12336429  1  1.32318  0  0.686999  0.968975  0  2.267508  0
Zn  Zn15  1  0.63915683  0.85788434  0.87663535  1  1.323375  0  0.686996  0.968972  0  2.267482  0
H  H16  1  0.18640143  0.15543346  0.24453812  1  0.132613  0  0.114201  0.11975  0  1.016386  0
H  H17  1  0.18640541  0.84456857  0.75546137  1  0.132851  0  0.114175  0.119688  0  1.016415  0
H  H18  1  0.18640245  0.75545937  0.15543508  1  0.132894  0  0.114169  0.11971  0  1.016336  0
H  H19  1  0.18640613  0.24454085  0.84456563  1  0.132813  0  0.114165  0.11972  0  1.016359  0
H  H20  1  0.31359490  0.34456504  0.74453961  1  0.13283  0  0.114184  0.119701  0  1.016375  0
H  H21  1  0.31359773  0.65543577  0.25545898  1  0.132777  0  0.114167  0.119709  0  1.016339  0
H  H22  1  0.31359507  0.74453578  0.65543162  1  0.132589  0  0.114194  0.119683  0  1.016419  0
H  H23  1  0.31359757  0.25546078  0.34456515  1  0.1325  0  0.114172  0.119715  0  1.016392  0
H  H24  1  0.81359435  0.84456247  0.75546124  1  0.132415  0  0.114167  0.119685  0  1.016403  0
H  H25  1  0.81359211  0.15543161  0.24453982  1  0.132921  0  0.114182  0.119672  0  1.016359  0
H  H26  1  0.81359594  0.24454203  0.84456793  1  0.132949  0  0.114199  0.119759  0  1.016387  0
H  H27  1  0.81359226  0.75546115  0.15543252  1  0.132905  0  0.114167  0.119699  0  1.016387  0
H  H28  1  0.68640696  0.65543393  0.25546218  1  0.132733  0  0.11416  0.119704  0  1.016405  0
H  H29  1  0.68640500  0.34456442  0.74453675  1  0.132468  0  0.114188  0.119689  0  1.016383  0
H  H30  1  0.68640767  0.25546076  0.34456775  1  0.132824  0  0.114171  0.119694  0  1.016372  0
H  H31  1  0.68640430  0.74453819  0.65543725  1  0.132517  0  0.114181  0.119696  0  1.016411  0
H  H32  1  0.99999807  0.48678380  0.40287569  1  0.621463  0  0.274488  0.386377  0  0.953916  0
H  H33  1  0.00000125  0.93864310  0.17590863  1  0.152288  0  0.110924  0.118882  0  1.015422  0
H  H34  1  0.99999762  0.51321876  0.59712493  1  0.621493  0  0.274547  0.386446  0  0.953812  0
H  H35  1  0.99999540  0.06135586  0.82409013  1  0.152289  0  0.110955  0.118939  0  1.015386  0
H  H36  1  0.99999960  0.59712573  0.48678385  1  0.621461  0  0.274484  0.386379  0  0.95392  0
H  H37  1  0.99999942  0.82409230  0.93864385  1  0.152215  0  0.110979  0.118962  0  1.015378  0
H  H38  1  0.00000139  0.40287627  0.51321612  1  0.621457  0  0.274483  0.386369  0  0.95393  0
H  H39  1  0.00000245  0.17590970  0.06135734  1  0.152324  0  0.110919  0.11887  0  1.015431  0
H  H40  1  0.50000092  0.01321602  0.90287578  1  0.621461  0  0.274492  0.386366  0  0.953928  0
H  H41  1  0.49999965  0.56135449  0.67590699  1  0.152232  0  0.110978  0.118942  0  1.015444  0
H  H42  1  0.49999746  0.98678417  0.09712480  1  0.621461  0  0.274493  0.386374  0  0.953918  0
H  H43  1  0.49999960  0.43864570  0.32409237  1  0.152239  0  0.110974  0.118944  0  1.015432  0
H  H44  1  0.50000065  0.90287453  0.98678188  1  0.621486  0  0.274534  0.386438  0  0.953832  0
H  H45  1  0.50000540  0.67591398  0.43864221  1  0.152298  0  0.11095  0.118937  0  1.015371  0
H  H46  1  0.50000209  0.09712444  0.01321748  1  0.621476  0  0.274513  0.386409  0  0.953874  0
H  H47  1  0.49999994  0.32409166  0.56135716  1  0.152319  0  0.110949  0.118934  0  1.015373  0
C  C48  1  0.10526956  0.12298967  0.23412227  1  0.026536  0  -0.059179  -0.067949  0  3.887108  0
C  C49  1  0.10551568  0.04229916  0.20761520  1  0.024614  0  -0.016066  -0.050854  0  3.984547  0
C  C50  1  0.21720329  0.99997678  0.18964461  1  1.542738  0  0.222025  0.598204  0  4.167595  0
C  C51  1  0.10527348  0.87701116  0.76587680  1  0.026399  0  -0.059141  -0.067837  0  3.887085  0
C  C52  1  0.10551078  0.95769924  0.79238509  1  0.024419  0  -0.016078  -0.050957  0  3.984696  0
C  C53  1  0.21720283  0.00002586  0.81035420  1  1.542834  0  0.222065  0.598214  0  4.167504  0
C  C54  1  0.10527236  0.76587469  0.12298901  1  0.02648  0  -0.059166  -0.067872  0  3.887032  0
C  C55  1  0.10551425  0.79238477  0.04229986  1  0.02438  0  -0.01603  -0.050833  0  3.984565  0
C  C56  1  0.21720145  0.81035129  0.99997410  1  1.542736  0  0.222075  0.598227  0  4.167462  0
C  C57  1  0.10527329  0.23412735  0.87701067  1  0.026434  0  -0.059157  -0.067928  0  3.887125  0
C  C58  1  0.10551916  0.20761970  0.95769982  1  0.024364  0  -0.016056  -0.050873  0  3.984455  0
C  C59  1  0.21720467  0.18965014  0.00002411  1  1.542783  0  0.222099  0.598301  0  4.167394  0
C  C60  1  0.39472770  0.37700821  0.73412300  1  0.026436  0  -0.059191  -0.067909  0  3.887171  0
C  C61  1  0.39448169  0.45769870  0.70761418  1  0.024403  0  -0.01602  -0.050804  0  3.984318  0
C  C62  1  0.28279668  0.50002507  0.68964767  1  1.542783  0  0.222106  0.598315  0  4.167317  0
C  C63  1  0.39472962  0.62299016  0.26587479  1  0.026493  0  -0.059168  -0.067889  0  3.887067  0
C  C64  1  0.39448437  0.54230089  0.29238361  1  0.024418  0  -0.016027  -0.050833  0  3.984453  0
C  C65  1  0.28279668  0.49997635  0.31035099  1  1.542809  0  0.222095  0.598345  0  4.16734  0
C  C66  1  0.39472792  0.73412103  0.62298899  1  0.026585  0  -0.059155  -0.06784  0  3.887053  0
C  C67  1  0.39448900  0.70761513  0.54229982  1  0.024513  0  -0.016142  -0.05102  0  3.984645  0
C  C68  1  0.28279797  0.68964540  0.49997424  1  1.542815  0  0.222141  0.598335  0  4.167497  0
C  C69  1  0.39472939  0.26587795  0.37701062  1  0.026575  0  -0.059177  -0.067988  0  3.887015  0
C  C70  1  0.39448402  0.29238264  0.45770161  1  0.024568  0  -0.016076  -0.050852  0  3.984613  0
C  C71  1  0.28279539  0.31035238  0.50002503  1  1.542783  0  0.222075  0.598298  0  4.167511  0
C  C72  1  0.89472536  0.87700930  0.76587527  1  0.02675  0  -0.059151  -0.067871  0  3.887013  0
C  C73  1  0.89448097  0.95769859  0.79238417  1  0.024314  0  -0.016043  -0.05091  0  3.984507  0
C  C74  1  0.78279336  0.00002340  0.81034929  1  1.542903  0  0.222099  0.598348  0  4.167396  0
C  C75  1  0.89472665  0.12298842  0.23412438  1  0.026244  0  -0.059144  -0.067765  0  3.887067  0
C  C76  1  0.89448239  0.04229730  0.20761670  1  0.024517  0  -0.016078  -0.050938  0  3.98444  0
C  C77  1  0.78279817  0.99997129  0.18964881  1  1.54268  0  0.221972  0.598152  0  4.167649  0
C  C78  1  0.89472603  0.23412792  0.87701339  1  0.026371  0  -0.059153  -0.067927  0  3.886974  0
C  C79  1  0.89448587  0.20761966  0.95770193  1  0.024423  0  -0.016095  -0.05089  0  3.9845  0
C  C80  1  0.78279868  0.18964829  0.00002648  1  1.54272  0  0.222041  0.598214  0  4.167431  0
C  C81  1  0.89472249  0.76587647  0.12298626  1  0.026367  0  -0.059111  -0.067818  0  3.886867  0
C  C82  1  0.89448531  0.79238594  0.04230015  1  0.024347  0  -0.016054  -0.050829  0  3.984587  0
C  C83  1  0.78279459  0.81035551  0.99997526  1  1.542811  0  0.222107  0.598235  0  4.16754  0
C  C84  1  0.60527678  0.62298893  0.26587758  1  0.026305  0  -0.059168  -0.067976  0  3.887076  0
C  C85  1  0.60551757  0.54229967  0.29238640  1  0.024513  0  -0.016025  -0.05074  0  3.984461  0
C  C86  1  0.71720345  0.49997511  0.31035655  1  1.542756  0  0.222102  0.598258  0  4.167496  0
C  C87  1  0.60527225  0.37701124  0.73412093  1  0.026538  0  -0.059173  -0.067935  0  3.887035  0
C  C88  1  0.60551576  0.45770051  0.70761393  1  0.024539  0  -0.016064  -0.050823  0  3.984557  0
C  C89  1  0.71720258  0.50002444  0.68964534  1  1.542741  0  0.222103  0.598229  0  4.167568  0
C  C90  1  0.60527221  0.26587612  0.37701037  1  0.026276  0  -0.059183  -0.067872  0  3.88718  0
C  C91  1  0.60551895  0.29238506  0.45770015  1  0.024495  0  -0.016073  -0.050958  0  3.984475  0
C  C92  1  0.71720477  0.31035236  0.50002634  1  1.542713  0  0.222115  0.598332  0  4.16742  0
C  C93  1  0.60527508  0.73412466  0.62299056  1  0.026735  0  -0.059172  -0.067931  0  3.886968  0
C  C94  1  0.60551872  0.70761815  0.54230018  1  0.024372  0  -0.016064  -0.050867  0  3.9843  0
C  C95  1  0.71720560  0.68965083  0.49997373  1  1.542806  0  0.222092  0.598305  0  4.167452  0
C  C96  1  0.99999324  0.16306608  0.24812747  1  -0.129868  0  -0.010324  -0.036453  0  3.949569  0
C  C97  1  0.00000129  0.00165174  0.19569214  1  -0.055875  0  -0.059539  -0.069183  0  3.875741  0
C  C98  1  0.99999664  0.24859017  0.27861925  1  1.5678  0  0.23223  0.61397  0  4.14973  0
C  C99  1  0.99999810  0.83693102  0.75187315  1  -0.129796  0  -0.010335  -0.036437  0  3.949182  0
C  C100  1  0.99999710  0.99834419  0.80430844  1  -0.055917  0  -0.059624  -0.069231  0  3.875937  0
C  C101  1  0.00000175  0.75140576  0.72138193  1  1.567979  0  0.232235  0.614068  0  4.149754  0
C  C102  1  0.99999772  0.75187206  0.16306676  1  -0.12977  0  -0.010328  -0.036506  0  3.949239  0
C  C103  1  0.99999983  0.80430909  0.00165631  1  -0.055876  0  -0.059699  -0.069359  0  3.875949  0
C  C104  1  0.99999492  0.72137971  0.24859070  1  1.567791  0  0.232227  0.614016  0  4.149615  0
C  C105  1  0.00000327  0.24812994  0.83693260  1  -0.129999  0  -0.010293  -0.036365  0  3.949311  0
C  C106  1  0.00000117  0.19569594  0.99834669  1  -0.055822  0  -0.059533  -0.069161  0  3.875732  0
C  C107  1  0.99999990  0.27862103  0.75140931  1  1.56777  0  0.23215  0.613877  0  4.14987  0
C  C108  1  0.49999603  0.33693177  0.74812483  1  -0.129767  0  -0.010384  -0.036498  0  3.949555  0
C  C109  1  0.50000135  0.49834368  0.69569213  1  -0.055821  0  -0.059624  -0.069276  0  3.875956  0
C  C110  1  0.50000119  0.25140831  0.77861835  1  1.56781  0  0.232232  0.614034  0  4.149633  0
C  C111  1  0.50000236  0.66306780  0.25187332  1  -0.129826  0  -0.010351  -0.036495  0  3.949383  0
C  C112  1  0.49999964  0.50165650  0.30430784  1  -0.055826  0  -0.059681  -0.069345  0  3.875958  0
C  C113  1  0.50000329  0.74859187  0.22138101  1  1.567805  0  0.232273  0.614144  0  4.149445  0
C  C114  1  0.50000227  0.74812547  0.66306950  1  -0.129815  0  -0.010351  -0.0364  0  3.949177  0
C  C115  1  0.50000265  0.69569435  0.50165415  1  -0.055844  0  -0.059564  -0.069232  0  3.875704  0
C  C116  1  0.49999773  0.77861487  0.74859408  1  1.56795  0  0.232213  0.614039  0  4.149788  0
C  C117  1  0.50000742  0.25187411  0.33693107  1  -0.129782  0  -0.010328  -0.036439  0  3.949477  0
C  C118  1  0.49999748  0.30430765  0.49834521  1  -0.055931  0  -0.059528  -0.069177  0  3.875808  0
C  C119  1  0.50000327  0.22138046  0.25140893  1  1.567781  0  0.23225  0.614111  0  4.14969  0
O  O120  1  0.09885795  0.28152186  0.29058596  1  -1.174712  0  -0.310411  -0.546809  0  2.342848  0
O  O121  1  0.31146168  0.03924462  0.18041195  1  -1.194329  0  -0.321515  -0.571985  0  2.363386  0
O  O122  1  0.21443231  0.92243000  0.18337719  1  -1.148429  0  -0.306174  -0.53063  0  2.313989  0
O  O123  1  0.09886477  0.71847411  0.70942345  1  -1.174972  0  -0.310304  -0.546673  0  2.342954  0
O  O124  1  0.31146013  0.96075437  0.81958422  1  -1.194285  0  -0.321535  -0.571993  0  2.363362  0
O  O125  1  0.21443094  0.07757082  0.81662163  1  -1.148524  0  -0.306186  -0.530612  0  2.31408  0
O  O126  1  0.09885619  0.70941472  0.28152395  1  -1.174684  0  -0.310414  -0.546828  0  2.342792  0
O  O127  1  0.31146280  0.81958234  0.03924391  1  -1.194291  0  -0.321572  -0.572066  0  2.363312  0
O  O128  1  0.21442802  0.81661744  0.92243048  1  -1.148385  0  -0.306177  -0.530616  0  2.3141  0
O  O129  1  0.09886479  0.29058793  0.71847817  1  -1.174769  0  -0.310344  -0.546716  0  2.342803  0
O  O130  1  0.31146509  0.18041725  0.96075408  1  -1.194346  0  -0.32157  -0.57207  0  2.363408  0
O  O131  1  0.21443263  0.18338337  0.07756895  1  -1.148345  0  -0.306222  -0.530684  0  2.313964  0
O  O132  1  0.40113383  0.21847729  0.79058591  1  -1.174706  0  -0.310374  -0.546785  0  2.342611  0
O  O133  1  0.18853582  0.46075443  0.68041505  1  -1.194311  0  -0.321577  -0.572103  0  2.363302  0
O  O134  1  0.28556768  0.57756942  0.68338213  1  -1.148355  0  -0.306213  -0.530668  0  2.314005  0
O  O135  1  0.40114207  0.78152472  0.20941429  1  -1.174711  0  -0.310383  -0.546825  0  2.342728  0
O  O136  1  0.18853664  0.53924700  0.31958140  1  -1.19434  0  -0.321566  -0.572099  0  2.363377  0
O  O137  1  0.28556854  0.42243139  0.31661713  1  -1.148397  0  -0.306191  -0.530679  0  2.313973  0
O  O138  1  0.40113554  0.79057569  0.78152579  1  -1.174965  0  -0.310316  -0.546695  0  2.342963  0
O  O139  1  0.18853960  0.68041390  0.53924432  1  -1.194279  0  -0.321563  -0.57206  0  2.363379  0
O  O140  1  0.28557088  0.68337795  0.42242939  1  -1.148359  0  -0.306192  -0.530618  0  2.31404  0
O  O141  1  0.40114210  0.20941601  0.21847745  1  -1.174736  0  -0.310414  -0.546857  0  2.342845  0
O  O142  1  0.18853807  0.31958510  0.46075456  1  -1.194331  0  -0.32151  -0.572023  0  2.363392  0
O  O143  1  0.28556795  0.31661800  0.57757108  1  -1.148385  0  -0.306187  -0.530633  0  2.314017  0
O  O144  1  0.90113957  0.71847711  0.70941159  1  -1.174793  0  -0.310397  -0.546837  0  2.342779  0
O  O145  1  0.68853323  0.96075253  0.81957953  1  -1.194462  0  -0.321552  -0.572058  0  2.363442  0
O  O146  1  0.78556694  0.07756775  0.81661732  1  -1.148377  0  -0.306237  -0.530703  0  2.313936  0
O  O147  1  0.90113188  0.28152061  0.29058684  1  -1.174768  0  -0.310336  -0.546664  0  2.342835  0
O  O148  1  0.68853826  0.03924218  0.18041272  1  -1.194212  0  -0.321518  -0.572012  0  2.363429  0
O  O149  1  0.78556832  0.92242694  0.18338501  1  -1.148452  0  -0.306134  -0.530533  0  2.314074  0
O  O150  1  0.90113959  0.29058607  0.71847845  1  -1.174743  0  -0.310363  -0.546714  0  2.342947  0
O  O151  1  0.68853994  0.18041298  0.96075728  1  -1.1942  0  -0.321493  -0.571984  0  2.363333  0
O  O152  1  0.78557037  0.18338092  0.07757253  1  -1.148427  0  -0.306183  -0.530607  0  2.314053  0
O  O153  1  0.90113012  0.70941347  0.28152058  1  -1.174826  0  -0.310326  -0.546687  0  2.342841  0
O  O154  1  0.68853590  0.81958718  0.03924468  1  -1.194344  0  -0.321561  -0.572025  0  2.363437  0
O  O155  1  0.78556924  0.81662227  0.92242920  1  -1.148481  0  -0.306185  -0.530601  0  2.314011  0
O  O156  1  0.59886978  0.78152229  0.20941588  1  -1.174815  0  -0.310334  -0.546721  0  2.342723  0
O  O157  1  0.81146257  0.53924454  0.31959099  1  -1.19432  0  -0.321535  -0.572036  0  2.363376  0
O  O158  1  0.71442984  0.42242955  0.31662209  1  -1.148341  0  -0.306215  -0.530659  0  2.313951  0
O  O159  1  0.59886067  0.21847788  0.79058568  1  -1.174818  0  -0.310308  -0.546662  0  2.34297  0
O  O160  1  0.81146175  0.46075682  0.68041311  1  -1.194278  0  -0.321517  -0.571989  0  2.363472  0
O  O161  1  0.71442811  0.57757000  0.68337859  1  -1.148334  0  -0.306216  -0.530638  0  2.313948  0
O  O162  1  0.59886807  0.20941236  0.21847904  1  -1.174779  0  -0.310342  -0.546739  0  2.342815  0
O  O163  1  0.81146488  0.31958506  0.46075565  1  -1.194309  0  -0.321564  -0.572069  0  2.363296  0
O  O164  1  0.71443359  0.31661737  0.57757119  1  -1.148348  0  -0.306233  -0.530676  0  2.31407  0
O  O165  1  0.59885977  0.79058357  0.78152434  1  -1.174788  0  -0.310344  -0.546766  0  2.342845  0
O  O166  1  0.81146553  0.68041691  0.53924420  1  -1.194354  0  -0.321565  -0.572049  0  2.36336  0
O  O167  1  0.71443218  0.68338643  0.42243010  1  -1.148412  0  -0.306202  -0.530659  0  2.314087  0
O  O168  1  0.99999981  0.42646829  0.40359409  1  -1.220137  0  -0.567654  -0.851256  0  2.218684  0
O  O169  1  0.99999935  0.57353306  0.59640593  1  -1.220163  0  -0.567678  -0.85129  0  2.218656  0
O  O170  1  0.99999887  0.59640667  0.42646843  1  -1.22013  0  -0.567631  -0.851234  0  2.218654  0
O  O171  1  0.00000125  0.40359412  0.57353093  1  -1.220288  0  -0.567648  -0.851262  0  2.218729  0
O  O172  1  0.50000092  0.07353153  0.90359484  1  -1.220143  0  -0.567657  -0.851232  0  2.218708  0
O  O173  1  0.50000095  0.92646805  0.09640513  1  -1.220154  0  -0.56766  -0.851245  0  2.218717  0
O  O174  1  0.49999818  0.90359293  0.92646707  1  -1.220143  0  -0.567668  -0.851281  0  2.218654  0
O  O175  1  0.50000108  0.09640726  0.07353229  1  -1.220286  0  -0.567638  -0.851237  0  2.218646  0
