# generated using pymatgen
data_CdH12C6SO6
_symmetry_space_group_name_H-M   'P 1'
_cell_length_a   7.63559045
_cell_length_b   10.04804294
_cell_length_c   13.14439208
_cell_angle_alpha   89.99881361
_cell_angle_beta   89.99887347
_cell_angle_gamma   94.31667463
_symmetry_Int_Tables_number   1
_chemical_formula_structural   CdH12C6SO6
_chemical_formula_sum   'Cd4 H48 C24 S4 O24'
_cell_volume   1005.61301786
_cell_formula_units_Z   4
loop_
 _symmetry_equiv_pos_site_id
 _symmetry_equiv_pos_as_xyz
  1  'x, y, z'
loop_
 _atom_site_type_symbol
 _atom_site_label
 _atom_site_symmetry_multiplicity
 _atom_site_fract_x
 _atom_site_fract_y
 _atom_site_fract_z
 _atom_site_occupancy
 _atom_site_hle17_bader_spin_density
 _atom_site_hle17_ddec_charge
 _atom_site_hle17_ddec_spin_density
 _atom_site_hle17_ddec_sum_bond_order
 _atom_site_hle17_magmom
 _atom_site_hse06_10hf_bader_spin_density
 _atom_site_hse06_10hf_ddec_charge
 _atom_site_hse06_10hf_ddec_spin_density
 _atom_site_hse06_10hf_ddec_sum_bond_order
 _atom_site_hse06_10hf_magmom
 _atom_site_hse06_bader_spin_density
 _atom_site_hse06_ddec_charge
 _atom_site_hse06_ddec_spin_density
 _atom_site_hse06_ddec_sum_bond_order
 _atom_site_hse06_magmom
 _atom_site_pbe_bader_spin_density
 _atom_site_pbe_cm5_charge
 _atom_site_pbe_ddec_charge
 _atom_site_pbe_ddec_spin_density
 _atom_site_pbe_ddec_sum_bond_order
 _atom_site_pbe_magmom
Cd  Cd0  1  0.34783035  0.67115236  0.39676858  1  0  1.088385  0  1.614651  0  0  0.906722  0  2.042625  0  0  0.96524  0  1.991269  0  0  0.709907  0.865249  0  2.077642  0
Cd  Cd1  1  0.15215279  0.82885214  0.89675109  1  0  1.088438  0  1.614442  0  0  0.906802  0  2.042427  0  0  0.965311  0  1.991078  0  0  0.709959  0.865334  0  2.077439  0
Cd  Cd2  1  0.65214603  0.32885061  0.60323609  1  0  1.088409  0  1.614459  0  0  0.906692  0  2.042431  0  0  0.965212  0  1.991073  0  0  0.709926  0.865226  0  2.077448  0
Cd  Cd3  1  0.84785238  0.17114036  0.10323760  1  0  1.088437  0  1.614477  0  0  0.906746  0  2.04243  0  0  0.965256  0  1.991085  0  0  0.709965  0.865284  0  2.077446  0
H  H4  1  0.39577165  0.32445300  0.96244844  1  0  0.106456  0  0.933972  0  0  0.121017  0  0.99361  0  0  0.123574  0  0.992013  0  0  0.097684  0.119192  0  0.994826  0
H  H5  1  0.10423501  0.17551714  0.46244680  1  0  0.106395  0  0.933926  0  0  0.120947  0  0.993555  0  0  0.1235  0  0.991964  0  0  0.097676  0.119123  0  0.994768  0
H  H6  1  0.60423618  0.67552946  0.03754710  1  0  0.106408  0  0.934158  0  0  0.120934  0  0.993798  0  0  0.12348  0  0.99222  0  0  0.097665  0.119142  0  0.994972  0
H  H7  1  0.89571982  0.82448117  0.53753733  1  0  0.106379  0  0.934049  0  0  0.121002  0  0.99365  0  0  0.123552  0  0.992063  0  0  0.097667  0.119182  0  0.994865  0
H  H8  1  0.45655665  0.18873804  0.03584361  1  0  0.110135  0  0.955793  0  0  0.124585  0  1.01791  0  0  0.12684  0  1.016978  0  0  0.100726  0.122955  0  1.018638  0
H  H9  1  0.04346414  0.31125051  0.53583606  1  0  0.110204  0  0.955982  0  0  0.124553  0  1.018187  0  0  0.126807  0  1.017257  0  0  0.100694  0.122945  0  1.018897  0
H  H10  1  0.54343351  0.81124971  0.96415346  1  0  0.110284  0  0.955817  0  0  0.124694  0  1.017953  0  0  0.126947  0  1.017024  0  0  0.100768  0.123064  0  1.018681  0
H  H11  1  0.95653142  0.68875915  0.46415339  1  0  0.110244  0  0.955919  0  0  0.124671  0  1.018092  0  0  0.126924  0  1.017164  0  0  0.10074  0.123067  0  1.018802  0
H  H12  1  0.49299807  0.33646183  0.19127383  1  0  0.107433  0  0.945386  0  0  0.12014  0  1.009026  0  0  0.122102  0  1.007907  0  0  0.101535  0.118668  0  1.009916  0
H  H13  1  0.00700622  0.16355555  0.69129280  1  0  0.107543  0  0.945149  0  0  0.120216  0  1.008802  0  0  0.122166  0  1.007683  0  0  0.101521  0.118742  0  1.00969  0
H  H14  1  0.50701073  0.66350761  0.80872399  1  0  0.107509  0  0.945621  0  0  0.120136  0  1.009351  0  0  0.122092  0  1.008225  0  0  0.101511  0.118661  0  1.010242  0
H  H15  1  0.99298711  0.83648814  0.30871264  1  0  0.107534  0  0.945434  0  0  0.120158  0  1.009173  0  0  0.122114  0  1.008043  0  0  0.101539  0.118679  0  1.010072  0
H  H16  1  0.43617286  0.47435607  0.11798764  1  0  0.094801  0  0.936246  0  0  0.108148  0  1.002507  0  0  0.109408  0  1.002239  0  0  0.096043  0.10721  0  1.002776  0
H  H17  1  0.06383834  0.02564512  0.61801153  1  0  0.094804  0  0.936547  0  0  0.108148  0  1.002805  0  0  0.1094  0  1.002526  0  0  0.096058  0.107205  0  1.003079  0
H  H18  1  0.56382405  0.52561257  0.88201779  1  0  0.094823  0  0.936371  0  0  0.108238  0  1.002534  0  0  0.109498  0  1.002265  0  0  0.096032  0.107299  0  1.002797  0
H  H19  1  0.93615516  0.97438957  0.38199770  1  0  0.094704  0  0.93648  0  0  0.108109  0  1.00268  0  0  0.109363  0  1.002406  0  0  0.096083  0.10717  0  1.002944  0
H  H20  1  0.72591719  0.57608395  0.20126472  1  0  0.11143  0  0.912947  0  0  0.130706  0  0.965048  0  0  0.131918  0  0.965122  0  0  0.106531  0.129762  0  0.965169  0
H  H21  1  0.77411119  0.92391952  0.70126429  1  0  0.111609  0  0.913249  0  0  0.130791  0  0.965441  0  0  0.132016  0  0.965516  0  0  0.106578  0.12984  0  0.96556  0
H  H22  1  0.27406445  0.42390893  0.79874908  1  0  0.111606  0  0.913206  0  0  0.130752  0  0.965421  0  0  0.131958  0  0.965497  0  0  0.10657  0.129808  0  0.965538  0
H  H23  1  0.22592135  0.07609254  0.29873049  1  0  0.11152  0  0.913267  0  0  0.130774  0  0.965393  0  0  0.131986  0  0.965478  0  0  0.106583  0.129825  0  0.965509  0
H  H24  1  0.81862186  0.42742426  0.24196917  1  0  0.08301  0  0.993183  0  0  0.097278  0  1.059616  0  0  0.098907  0  1.058787  0  0  0.098147  0.096018  0  1.060378  0
H  H25  1  0.68138280  0.07257530  0.74196962  1  0  0.083009  0  0.993251  0  0  0.097334  0  1.059633  0  0  0.098972  0  1.058807  0  0  0.09817  0.096072  0  1.060388  0
H  H26  1  0.18136527  0.57257054  0.75802256  1  0  0.083076  0  0.99299  0  0  0.09738  0  1.05936  0  0  0.099008  0  1.058528  0  0  0.098143  0.096114  0  1.060125  0
H  H27  1  0.31864185  0.92741589  0.25802821  1  0  0.08305  0  0.992966  0  0  0.097266  0  1.059567  0  0  0.098892  0  1.058756  0  0  0.09812  0.096007  0  1.060316  0
H  H28  1  0.07069064  0.48517030  0.11274426  1  0  0.106525  0  0.957094  0  0  0.117565  0  1.026046  0  0  0.119275  0  1.02603  0  0  0.098236  0.116352  0  1.026116  0
H  H29  1  0.42933768  0.01481697  0.61273104  1  0  0.106555  0  0.95709  0  0  0.117577  0  1.026149  0  0  0.119293  0  1.026126  0  0  0.098233  0.116358  0  1.026223  0
H  H30  1  0.92930521  0.51483135  0.88726726  1  0  0.106438  0  0.957335  0  0  0.117481  0  1.026396  0  0  0.119193  0  1.026381  0  0  0.098157  0.11626  0  1.026463  0
H  H31  1  0.57068420  0.98518327  0.38725994  1  0  0.106486  0  0.957333  0  0  0.117535  0  1.026343  0  0  0.119246  0  1.026323  0  0  0.098211  0.116317  0  1.026421  0
H  H32  1  0.98765185  0.64366114  0.10023712  1  0  0.11554  0  0.979167  0  0  0.124451  0  1.04593  0  0  0.127343  0  1.044954  0  0  0.096309  0.122397  0  1.046668  0
H  H33  1  0.51238994  0.85633390  0.60024603  1  0  0.11548  0  0.97937  0  0  0.124439  0  1.046073  0  0  0.127332  0  1.045089  0  0  0.096298  0.122386  0  1.04681  0
H  H34  1  0.01234097  0.35634756  0.89977212  1  0  0.115376  0  0.979354  0  0  0.124333  0  1.046144  0  0  0.127226  0  1.045165  0  0  0.096257  0.12228  0  1.046874  0
H  H35  1  0.48764404  0.14364814  0.39975559  1  0  0.115594  0  0.979347  0  0  0.124562  0  1.046041  0  0  0.127456  0  1.045058  0  0  0.096372  0.122509  0  1.046775  0
H  H36  1  0.10952387  0.55859670  0.60411386  1  0  0.435196  0  0.842364  0  0  0.405639  0  0.908205  0  0  0.416479  0  0.892361  0  0  0.29836  0.397914  0  0.91949  0
H  H37  1  0.39049284  0.94141090  0.10411667  1  0  0.435214  0  0.842593  0  0  0.405697  0  0.908173  0  0  0.416537  0  0.892332  0  0  0.298395  0.397977  0  0.91945  0
H  H38  1  0.89047448  0.44140391  0.39588473  1  0  0.435184  0  0.842383  0  0  0.405599  0  0.908274  0  0  0.416438  0  0.89243  0  0  0.298338  0.397873  0  0.91956  0
H  H39  1  0.60952405  0.05859141  0.89588572  1  0  0.435102  0  0.842619  0  0  0.405539  0  0.908384  0  0  0.416377  0  0.892543  0  0  0.298372  0.397821  0  0.919658  0
H  H40  1  0.22584433  0.69315559  0.62465283  1  0  0.42632  0  0.870212  0  0  0.393413  0  0.937648  0  0  0.404921  0  0.920858  0  0  0.289487  0.385245  0  0.949548  0
H  H41  1  0.27417778  0.80684954  0.12465452  1  0  0.426409  0  0.87021  0  0  0.393493  0  0.93756  0  0  0.405002  0  0.92077  0  0  0.28952  0.385324  0  0.949462  0
H  H42  1  0.77416287  0.30685287  0.37535488  1  0  0.426358  0  0.870245  0  0  0.393435  0  0.937649  0  0  0.404942  0  0.920863  0  0  0.289526  0.385267  0  0.949549  0
H  H43  1  0.72584329  0.19315470  0.87534406  1  0  0.42637  0  0.870093  0  0  0.393466  0  0.937566  0  0  0.404975  0  0.920779  0  0  0.289509  0.385294  0  0.949473  0
H  H44  1  0.40112781  0.39781878  0.40306097  1  0  0.428448  0  0.870157  0  0  0.398837  0  0.930319  0  0  0.41058  0  0.913375  0  0  0.291804  0.390515  0  0.9423  0
H  H45  1  0.09886922  0.10218150  0.90306575  1  0  0.42844  0  0.870125  0  0  0.398865  0  0.930232  0  0  0.410609  0  0.913283  0  0  0.291817  0.390541  0  0.942218  0
H  H46  1  0.59886176  0.60218497  0.59692772  1  0  0.428273  0  0.870361  0  0  0.398733  0  0.930407  0  0  0.410476  0  0.913457  0  0  0.291757  0.390405  0  0.942402  0
H  H47  1  0.90113506  0.89780402  0.09692523  1  0  0.428284  0  0.870349  0  0  0.398732  0  0.930419  0  0  0.410479  0  0.913466  0  0  0.291725  0.390403  0  0.942411  0
H  H48  1  0.58209478  0.46481606  0.37549611  1  0  0.411245  0  0.877289  0  0  0.383074  0  0.949057  0  0  0.393236  0  0.934414  0  0  0.290003  0.375792  0  0.959552  0
H  H49  1  0.91789525  0.03519877  0.87549573  1  0  0.411138  0  0.877484  0  0  0.383025  0  0.949159  0  0  0.393183  0  0.93452  0  0  0.289973  0.37574  0  0.959663  0
H  H50  1  0.41789449  0.53519570  0.62450551  1  0  0.411136  0  0.877359  0  0  0.382991  0  0.949166  0  0  0.393151  0  0.934526  0  0  0.289988  0.375714  0  0.959654  0
H  H51  1  0.08210351  0.96479484  0.12450362  1  0  0.411098  0  0.877577  0  0  0.382998  0  0.949199  0  0  0.393154  0  0.934565  0  0  0.289966  0.375719  0  0.959693  0
C  C52  1  0.39429537  0.28382504  0.04005882  1  0  -0.271448  0  3.716952  0  0  -0.31215  0  3.973879  0  0  -0.318232  0  3.981912  0  0  -0.172816  -0.307825  0  3.968195  0
C  C53  1  0.10572841  0.21618018  0.54005563  1  0  -0.271551  0  3.716858  0  0  -0.312055  0  3.973842  0  0  -0.31813  0  3.981829  0  0  -0.17281  -0.307782  0  3.96819  0
C  C54  1  0.60571073  0.71616445  0.95994737  1  0  -0.271481  0  3.717167  0  0  -0.31203  0  3.974092  0  0  -0.318119  0  3.98211  0  0  -0.172836  -0.307736  0  3.968409  0
C  C55  1  0.89424700  0.78383581  0.45993230  1  0  -0.271462  0  3.717153  0  0  -0.312221  0  3.974347  0  0  -0.318303  0  3.982342  0  0  -0.172834  -0.307937  0  3.968673  0
C  C56  1  0.49387263  0.37753201  0.11411551  1  0  -0.119746  0  3.659655  0  0  -0.161993  0  3.927241  0  0  -0.160578  0  3.939  0  0  -0.15152  -0.16275  0  3.91904  0
C  C57  1  0.00615351  0.12247020  0.61412979  1  0  -0.119868  0  3.659454  0  0  -0.161971  0  3.926691  0  0  -0.160581  0  3.938568  0  0  -0.151469  -0.162725  0  3.918479  0
C  C58  1  0.50612879  0.62245155  0.88587471  1  0  -0.120053  0  3.659622  0  0  -0.162239  0  3.927002  0  0  -0.160792  0  3.938709  0  0  -0.151475  -0.162998  0  3.918805  0
C  C59  1  0.99384370  0.87755243  0.38587032  1  0  -0.119895  0  3.659545  0  0  -0.162007  0  3.926909  0  0  -0.160569  0  3.938653  0  0  -0.151551  -0.162754  0  3.918698  0
C  C60  1  0.81367282  0.49885817  0.17970770  1  0  -0.111968  0  3.635298  0  0  -0.156127  0  3.898777  0  0  -0.154454  0  3.909829  0  0  -0.150447  -0.157209  0  3.891307  0
C  C61  1  0.68634603  0.00111935  0.67972400  1  0  -0.112005  0  3.634746  0  0  -0.156147  0  3.89829  0  0  -0.154517  0  3.909402  0  0  -0.150428  -0.157211  0  3.890805  0
C  C62  1  0.18633776  0.50112525  0.82029240  1  0  -0.112256  0  3.634898  0  0  -0.156232  0  3.898295  0  0  -0.154538  0  3.909311  0  0  -0.150432  -0.157309  0  3.89082  0
C  C63  1  0.31366855  0.99887501  0.32027763  1  0  -0.111854  0  3.634462  0  0  -0.156069  0  3.898121  0  0  -0.154413  0  3.909197  0  0  -0.150391  -0.15713  0  3.890623  0
C  C64  1  0.99575726  0.55906025  0.15223414  1  0  -0.275678  0  3.697886  0  0  -0.311992  0  3.948494  0  0  -0.318509  0  3.955956  0  0  -0.17596  -0.307443  0  3.943299  0
C  C65  1  0.50423203  0.94092515  0.65221883  1  0  -0.27554  0  3.697662  0  0  -0.311969  0  3.94841  0  0  -0.318471  0  3.955863  0  0  -0.176076  -0.307424  0  3.943224  0
C  C66  1  0.00421519  0.44094278  0.84778727  1  0  -0.275375  0  3.697559  0  0  -0.311804  0  3.948271  0  0  -0.318325  0  3.95573  0  0  -0.176  -0.307231  0  3.943035  0
C  C67  1  0.49578479  0.05906617  0.34777291  1  0  -0.275808  0  3.697869  0  0  -0.312233  0  3.948669  0  0  -0.318742  0  3.956117  0  0  -0.176188  -0.307689  0  3.943471  0
C  C68  1  0.10904138  0.60307194  0.24204772  1  0  0.722698  0  3.794232  0  0  0.675789  0  4.085407  0  0  0.709921  0  4.079902  0  0  0.21041  0.652601  0  4.088226  0
C  C69  1  0.39096189  0.89695362  0.74204265  1  0  0.72245  0  3.794776  0  0  0.67579  0  4.085675  0  0  0.709925  0  4.080164  0  0  0.210523  0.652602  0  4.088491  0
C  C70  1  0.89095637  0.39691368  0.75796608  1  0  0.722519  0  3.793997  0  0  0.675603  0  4.085277  0  0  0.709734  0  4.079769  0  0  0.210494  0.652411  0  4.088094  0
C  C71  1  0.60906905  0.10306647  0.25796354  1  0  0.722745  0  3.793947  0  0  0.675895  0  4.085075  0  0  0.71003  0  4.07956  0  0  0.210572  0.652707  0  4.087901  0
C  C72  1  0.20536688  0.25131787  0.07207120  1  0  0.693697  0  3.848875  0  0  0.645282  0  4.147579  0  0  0.678347  0  4.142747  0  0  0.199429  0.622841  0  4.14999  0
C  C73  1  0.29465898  0.24869916  0.57206827  1  0  0.693911  0  3.848527  0  0  0.645201  0  4.147588  0  0  0.678269  0  4.142745  0  0  0.199356  0.622758  0  4.15  0
C  C74  1  0.79463290  0.74865272  0.92794412  1  0  0.693949  0  3.848374  0  0  0.645419  0  4.147252  0  0  0.678505  0  4.142403  0  0  0.199582  0.622949  0  4.149684  0
C  C75  1  0.70532949  0.75134760  0.42793792  1  0  0.69407  0  3.848019  0  0  0.645521  0  4.146996  0  0  0.678604  0  4.142141  0  0  0.199439  0.62306  0  4.149428  0
S  S76  1  0.71868954  0.40856567  0.07078827  1  0  -0.010498  0  2.50955  0  0  0.029858  0  2.88959  0  0  0.018  0  2.889817  0  0  0.024436  0.037491  0  2.890074  0
S  S77  1  0.78130983  0.09144746  0.57078018  1  0  -0.010636  0  2.508983  0  0  0.029796  0  2.888984  0  0  0.017947  0  2.889208  0  0  0.024427  0.037449  0  2.88942  0
S  S78  1  0.28130134  0.59143806  0.92923314  1  0  -0.010379  0  2.508987  0  0  0.030022  0  2.888928  0  0  0.018143  0  2.889123  0  0  0.024492  0.037631  0  2.889446  0
S  S79  1  0.21868062  0.90856328  0.42923590  1  0  -0.010533  0  2.508475  0  0  0.029907  0  2.888498  0  0  0.018047  0  2.888696  0  0  0.02448  0.037542  0  2.888959  0
O  O80  1  0.24284834  0.68474528  0.22393680  1  0  -0.668741  0  1.96453  0  0  -0.599101  0  2.197847  0  0  -0.629596  0  2.187909  0  0  -0.327096  -0.577669  0  2.203855  0
O  O81  1  0.25716098  0.81526140  0.72392976  1  0  -0.668661  0  1.964586  0  0  -0.599162  0  2.197882  0  0  -0.629652  0  2.187939  0  0  -0.327148  -0.577726  0  2.203887  0
O  O82  1  0.75714245  0.31524745  0.77607776  1  0  -0.668527  0  1.964314  0  0  -0.598964  0  2.197725  0  0  -0.629453  0  2.187785  0  0  -0.327034  -0.577533  0  2.203738  0
O  O83  1  0.74285233  0.18475397  0.27606958  1  0  -0.668602  0  1.964545  0  0  -0.59901  0  2.197875  0  0  -0.629496  0  2.187935  0  0  -0.327093  -0.577577  0  2.203883  0
O  O84  1  0.07587077  0.55782991  0.33126648  1  0  -0.645038  0  1.927869  0  0  -0.568443  0  2.144487  0  0  -0.59907  0  2.136233  0  0  -0.317702  -0.547062  0  2.14948  0
O  O85  1  0.42413034  0.94217970  0.83126425  1  0  -0.644877  0  1.928098  0  0  -0.568365  0  2.14458  0  0  -0.598996  0  2.136323  0  0  -0.317687  -0.546992  0  2.149578  0
O  O86  1  0.92412412  0.44218476  0.66875264  1  0  -0.645125  0  1.927838  0  0  -0.568474  0  2.144367  0  0  -0.599101  0  2.136115  0  0  -0.317803  -0.547093  0  2.149363  0
O  O87  1  0.57587686  0.05782877  0.16874042  1  0  -0.645181  0  1.927489  0  0  -0.568565  0  2.143981  0  0  -0.599207  0  2.135737  0  0  -0.317798  -0.547184  0  2.148972  0
O  O88  1  0.21492162  0.61268898  0.57978865  1  0  -0.839802  0  1.839592  0  0  -0.778606  0  2.023556  0  0  -0.800032  0  1.988923  0  0  -0.573575  -0.763304  0  2.047723  0
O  O89  1  0.28510319  0.88732112  0.07978842  1  0  -0.839976  0  1.839731  0  0  -0.778769  0  2.023419  0  0  -0.800137  0  1.988663  0  0  -0.573674  -0.763469  0  2.047581  0
O  O90  1  0.78507854  0.38731560  0.42022134  1  0  -0.839865  0  1.839516  0  0  -0.778604  0  2.0234  0  0  -0.800029  0  1.988768  0  0  -0.573617  -0.763304  0  2.04757  0
O  O91  1  0.71490810  0.11267828  0.92021396  1  0  -0.83984  0  1.839604  0  0  -0.778621  0  2.023489  0  0  -0.800018  0  1.988803  0  0  -0.573664  -0.763318  0  2.047652  0
O  O92  1  0.45650397  0.46897609  0.35796007  1  0  -0.8029  0  1.877812  0  0  -0.740834  0  2.075295  0  0  -0.764167  0  2.042662  0  0  -0.585281  -0.724386  0  2.098009  0
O  O93  1  0.04346470  0.03102168  0.85796317  1  0  -0.80284  0  1.877896  0  0  -0.740888  0  2.075257  0  0  -0.764214  0  2.042632  0  0  -0.58531  -0.72444  0  2.097967  0
O  O94  1  0.54347919  0.53102877  0.64203395  1  0  -0.802668  0  1.877931  0  0  -0.740635  0  2.075383  0  0  -0.763959  0  2.04276  0  0  -0.585233  -0.724194  0  2.098088  0
O  O95  1  0.95653474  0.96896692  0.14203161  1  0  -0.802653  0  1.878159  0  0  -0.740679  0  2.075441  0  0  -0.764011  0  2.042822  0  0  -0.58519  -0.724232  0  2.098153  0
O  O96  1  0.15641294  0.26513433  0.16252620  1  0  -0.601352  0  1.873958  0  0  -0.53983  0  2.085842  0  0  -0.565686  0  2.078333  0  0  -0.318759  -0.521809  0  2.090372  0
O  O97  1  0.34361175  0.23484466  0.66252007  1  0  -0.601502  0  1.873889  0  0  -0.539962  0  2.086001  0  0  -0.565827  0  2.078507  0  0  -0.318879  -0.521935  0  2.09053  0
O  O98  1  0.84360240  0.73483502  0.83744423  1  0  -0.601886  0  1.872691  0  0  -0.540361  0  2.084682  0  0  -0.566253  0  2.077189  0  0  -0.319101  -0.522314  0  2.089206  0
O  O99  1  0.65638288  0.76516801  0.33743515  1  0  -0.601871  0  1.872571  0  0  -0.540262  0  2.08449  0  0  -0.566155  0  2.077004  0  0  -0.318915  -0.52222  0  2.089014  0
O  O100  1  0.09758988  0.20821383  0.00133761  1  0  -0.694103  0  2.072976  0  0  -0.613385  0  2.308824  0  0  -0.645732  0  2.299646  0  0  -0.335858  -0.590711  0  2.314307  0
O  O101  1  0.40242397  0.29177415  0.50132632  1  0  -0.694103  0  2.072876  0  0  -0.613226  0  2.308803  0  0  -0.64556  0  2.299616  0  0  -0.335695  -0.590555  0  2.314285  0
O  O102  1  0.90240315  0.79177587  0.99865108  1  0  -0.693812  0  2.07332  0  0  -0.613208  0  2.309368  0  0  -0.645553  0  2.300186  0  0  -0.335733  -0.590505  0  2.314832  0
O  O103  1  0.59756957  0.70821954  0.49864336  1  0  -0.693929  0  2.073371  0  0  -0.613305  0  2.309419  0  0  -0.645639  0  2.300223  0  0  -0.335716  -0.590605  0  2.314878  0
