# generated using pymatgen
data_SrH2C5(NO2)2
_symmetry_space_group_name_H-M   'P 1'
_cell_length_a   9.60825896
_cell_length_b   16.36701704
_cell_length_c   16.36707012
_cell_angle_alpha   116.27180708
_cell_angle_beta   101.28696574
_cell_angle_gamma   101.28703568
_symmetry_Int_Tables_number   1
_chemical_formula_structural   SrH2C5(NO2)2
_chemical_formula_sum   'Sr12 H24 C60 N24 O48'
_cell_volume   2143.50416731
_cell_formula_units_Z   12
loop_
 _symmetry_equiv_pos_site_id
 _symmetry_equiv_pos_as_xyz
  1  'x, y, z'
loop_
 _atom_site_type_symbol
 _atom_site_label
 _atom_site_symmetry_multiplicity
 _atom_site_fract_x
 _atom_site_fract_y
 _atom_site_fract_z
 _atom_site_occupancy
 _atom_site_pbe_bader_charge
 _atom_site_pbe_bader_spin_density
 _atom_site_pbe_cm5_charge
 _atom_site_pbe_ddec_charge
 _atom_site_pbe_ddec_spin_density
 _atom_site_pbe_ddec_sum_bond_order
 _atom_site_pbe_magmom
Sr  Sr0  1  0.41564453  0.41590677  0.28668434  1  1.698978  0  1.029146  1.497621  0  1.56113  0
Sr  Sr1  1  0.99981161  0.87081149  0.58406066  1  1.699577  0  1.029873  1.49826  0  1.561102  0
Sr  Sr2  1  0.12893655  0.71325349  0.12914509  1  1.69983  0  1.030744  1.499739  0  1.559505  0
Sr  Sr3  1  0.49980674  0.58405695  0.87080891  1  1.699563  0  1.029901  1.498349  0  1.560839  0
Sr  Sr4  1  0.62894199  0.12914763  0.71325523  1  1.699809  0  1.030734  1.499742  0  1.559448  0
Sr  Sr5  1  0.91564526  0.28668457  0.41590781  1  1.699041  0  1.02916  1.497684  0  1.561227  0
Sr  Sr6  1  0.35886564  0.53190742  0.58603479  1  1.661467  0  0.973325  1.353809  0  1.510193  0
Sr  Sr7  1  0.82702991  0.05409506  0.46810803  1  1.662178  0  0.972781  1.353672  0  1.510336  0
Sr  Sr8  1  0.77295264  0.41399617  0.94584501  1  1.663638  0  0.974187  1.354089  0  1.510898  0
Sr  Sr9  1  0.32703023  0.46810982  0.05409638  1  1.662161  0  0.972768  1.353686  0  1.510277  0
Sr  Sr10  1  0.27295178  0.94584317  0.41399534  1  1.663635  0  0.974193  1.354049  0  1.51098  0
Sr  Sr11  1  0.85886560  0.58603546  0.53190762  1  1.66147  0  0.973347  1.353838  0  1.510225  0
H  H12  1  0.92111358  0.58476264  0.19766066  1  0.561054  0  0.315294  0.273803  0  1.028751  0
H  H13  1  0.33622723  0.61282399  0.41533757  1  0.55652  0  0.315663  0.273731  0  1.028945  0
H  H14  1  0.72361890  0.80239176  0.38721668  1  0.560232  0  0.315836  0.273956  0  1.028964  0
H  H15  1  0.83622558  0.41533571  0.61282160  1  0.556508  0  0.315667  0.273695  0  1.029089  0
H  H16  1  0.22361260  0.38721120  0.80238783  1  0.560322  0  0.315792  0.273875  0  1.02915  0
H  H17  1  0.42111344  0.19766071  0.58476338  1  0.561046  0  0.315309  0.273852  0  1.028678  0
H  H18  1  0.89849895  0.24606344  0.19527588  1  0.558358  0  0.313888  0.287676  0  0.989254  0
H  H19  1  0.65239324  0.94933174  0.75398688  1  0.553285  0  0.314264  0.288356  0  0.990136  0
H  H20  1  0.70312990  0.80458167  0.05068967  1  0.556299  0  0.313793  0.288097  0  0.990719  0
H  H21  1  0.15239180  0.75398687  0.94933060  1  0.55331  0  0.314271  0.288365  0  0.99015  0
H  H22  1  0.20312814  0.05069149  0.80458271  1  0.556325  0  0.313825  0.288135  0  0.990744  0
H  H23  1  0.39849430  0.19527411  0.24606250  1  0.558373  0  0.313894  0.287731  0  0.989215  0
H  H24  1  0.76053335  0.58234301  0.30803413  1  0.147639  0  0.145432  0.096042  0  1.02633  0
H  H25  1  0.17813332  0.72562784  0.41759649  1  0.13572  0  0.14425  0.094988  0  1.026319  0
H  H26  1  0.45268313  0.69196926  0.27438224  1  0.153374  0  0.145384  0.095877  0  1.024398  0
H  H27  1  0.67812674  0.41759333  0.72562343  1  0.135712  0  0.144233  0.094931  0  1.026254  0
H  H28  1  0.95268021  0.27437409  0.69196437  1  0.153492  0  0.145409  0.095881  0  1.024403  0
H  H29  1  0.26052940  0.30803397  0.58234293  1  0.147634  0  0.14542  0.096048  0  1.026329  0
H  H30  1  0.99184439  0.29254229  0.07997988  1  0.141896  0  0.147235  0.102029  0  0.98725  0
H  H31  1  0.69923858  0.78756729  0.70754095  1  0.154121  0  0.146244  0.100668  0  0.988952  0
H  H32  1  0.91175620  0.91986464  0.21250725  1  0.13689  0  0.146005  0.099931  0  0.989931  0
H  H33  1  0.19923557  0.70754111  0.78756633  1  0.154147  0  0.146246  0.100655  0  0.988967  0
H  H34  1  0.41175743  0.21250768  0.91986404  1  0.136816  0  0.14603  0.099978  0  0.989856  0
H  H35  1  0.49184287  0.07998091  0.29254275  1  0.141926  0  0.14722  0.102013  0  0.987233  0
C  C36  1  0.86143997  0.56198610  0.30839122  1  0.989354  0  0.160881  0.162278  0  3.973094  0
C  C37  1  0.29944566  0.74633650  0.43800475  1  0.990999  0  0.163942  0.165524  0  3.968867  0
C  C38  1  0.55328259  0.69160637  0.25368453  1  1.011816  0  0.16226  0.164108  0  3.969124  0
C  C39  1  0.79944261  0.43800488  0.74633485  1  0.991047  0  0.163982  0.165623  0  3.968685  0
C  C40  1  0.05328200  0.25367717  0.69160233  1  1.011704  0  0.162112  0.164046  0  3.969306  0
C  C41  1  0.36144014  0.30839126  0.56198573  1  0.989367  0  0.160865  0.162196  0  3.973234  0
C  C42  1  0.04410336  0.51022056  0.33972926  1  0.444534  0  0.092372  0.004467  0  3.964652  0
C  C43  1  0.53389414  0.82943330  0.48979689  1  0.447354  0  0.093323  0.004462  0  3.962752  0
C  C44  1  0.70462347  0.66028660  0.17058292  1  0.484027  0  0.094402  0.006838  0  3.964558  0
C  C45  1  0.03389014  0.48979547  0.82943031  1  0.446943  0  0.093341  0.004414  0  3.962811  0
C  C46  1  0.20462464  0.17057909  0.66028340  1  0.483587  0  0.094349  0.006751  0  3.964453  0
C  C47  1  0.54410280  0.33972966  0.51021889  1  0.4447  0  0.092356  0.00434  0  3.96461  0
C  C48  1  0.06241062  0.53507914  0.27010440  1  0.377342  0  0.096884  -0.006365  0  3.89577  0
C  C49  1  0.52733864  0.73495979  0.46500401  1  0.386055  0  0.096114  -0.004707  0  3.89983  0
C  C50  1  0.79253429  0.72992831  0.26507278  1  0.3245  0  0.097579  -0.004408  0  3.901306  0
C  C51  1  0.02733444  0.46500308  0.73495741  1  0.385768  0  0.096081  -0.004693  0  3.899665  0
C  C52  1  0.29253395  0.26507079  0.72992777  1  0.324626  0  0.097551  -0.004391  0  3.901324  0
C  C53  1  0.56240948  0.27010606  0.53507680  1  0.377135  0  0.096857  -0.006342  0  3.895721  0
C  C54  1  0.14129439  0.47717864  0.39192339  1  1.567094  0  0.234783  0.598022  0  4.224451  0
C  C55  1  0.66412833  0.91466831  0.52279279  1  1.571469  0  0.238402  0.603079  0  4.221064  0
C  C56  1  0.74962237  0.60810635  0.08533847  1  1.580195  0  0.233345  0.59567  0  4.229348  0
C  C57  1  0.16412261  0.52279105  0.91466524  1  1.571578  0  0.238336  0.60293  0  4.221134  0
C  C58  1  0.24963163  0.08533841  0.60810560  1  1.580248  0  0.233333  0.59564  0  4.229073  0
C  C59  1  0.64128867  0.39192573  0.47717537  1  1.567196  0  0.234878  0.598166  0  4.224567  0
C  C60  1  0.17241839  0.53431890  0.21727975  1  1.631176  0  0.229275  0.59615  0  4.258494  0
C  C61  1  0.63814544  0.68294872  0.46583599  1  1.632346  0  0.227022  0.594235  0  4.261194  0
C  C62  1  0.95537747  0.78278775  0.31707213  1  1.641485  0  0.228343  0.596101  0  4.259601  0
C  C63  1  0.13813986  0.46583358  0.68294678  1  1.632225  0  0.226926  0.593938  0  4.261294  0
C  C64  1  0.45537753  0.31707199  0.78278838  1  1.641289  0  0.228339  0.596121  0  4.25966  0
C  C65  1  0.67241690  0.21728263  0.53432017  1  1.631115  0  0.229382  0.596342  0  4.258217  0
C  C66  1  0.89087757  0.30150226  0.09784118  1  1.008359  0  0.16163  0.182837  0  3.944594  0
C  C67  1  0.58931499  0.79647943  0.69858649  1  0.992907  0  0.164466  0.18637  0  3.946835  0
C  C68  1  0.79292055  0.90198194  0.20358486  1  1.012963  0  0.165751  0.187761  0  3.945204  0
C  C69  1  0.08931445  0.69858641  0.79647976  1  0.992898  0  0.164469  0.186408  0  3.946836  0
C  C70  1  0.29292296  0.20358789  0.90198377  1  1.012982  0  0.165732  0.187688  0  3.94512  0
C  C71  1  0.39087309  0.09783977  0.30150164  1  1.008399  0  0.161665  0.182857  0  3.944735  0
C  C72  1  0.71487245  0.29750930  0.16651379  1  0.403083  0  0.100951  0.005499  0  3.882264  0
C  C73  1  0.41728357  0.86910980  0.70252945  1  0.446212  0  0.09996  0.004906  0  3.883836  0
C  C74  1  0.54825185  0.83330619  0.13090485  1  0.335486  0  0.101343  0.005972  0  3.88467  0
C  C75  1  0.91728219  0.70252881  0.86910909  1  0.446179  0  0.099952  0.004932  0  3.883933  0
C  C76  1  0.04825222  0.13090440  0.83330571  1  0.335818  0  0.101373  0.006017  0  3.884641  0
C  C77  1  0.21486919  0.16651053  0.29750800  1  0.402896  0  0.101034  0.00571  0  3.882309  0
C  C78  1  0.69053385  0.34113128  0.11063403  1  0.39018  0  0.078708  -0.013843  0  3.996467  0
C  C79  1  0.34932225  0.76958692  0.65889267  1  0.395403  0  0.078543  -0.015398  0  3.997313  0
C  C80  1  0.57980850  0.88917329  0.23041169  1  0.461357  0  0.078041  -0.016052  0  3.995261  0
C  C81  1  0.84932189  0.65889412  0.76958763  1  0.395457  0  0.078561  -0.015373  0  3.99719  0
C  C82  1  0.07980828  0.23041204  0.88917384  1  0.461384  0  0.078035  -0.016113  0  3.995263  0
C  C83  1  0.19053063  0.11063040  0.34112988  1  0.390115  0  0.078708  -0.013921  0  3.99652  0
C  C84  1  0.63248518  0.26938079  0.22333576  1  1.642208  0  0.227906  0.59852  0  4.259222  0
C  C85  1  0.36301201  0.95405245  0.73068381  1  1.63262  0  0.229791  0.600345  0  4.253652  0
C  C86  1  0.40902983  0.77656618  0.04594326  1  1.645602  0  0.229325  0.601331  0  4.257825  0
C  C87  1  0.86300418  0.73068329  0.95404707  1  1.632559  0  0.229734  0.600259  0  4.253625  0
C  C88  1  0.90903022  0.04594731  0.77656919  1  1.645133  0  0.229247  0.601316  0  4.257864  0
C  C89  1  0.13248313  0.22333297  0.26937888  1  1.641472  0  0.2278  0.598271  0  4.259713  0
C  C90  1  0.58163777  0.39046823  0.09705544  1  1.559486  0  0.216935  0.590929  0  4.238576  0
C  C91  1  0.19106868  0.70665637  0.60954194  1  1.545663  0  0.217675  0.590102  0  4.238989  0
C  C92  1  0.48447547  0.90280733  0.29332972  1  1.593615  0  0.220841  0.595066  0  4.235728  0
C  C93  1  0.69106664  0.60953708  0.70665651  1  1.545661  0  0.217733  0.590159  0  4.238914  0
C  C94  1  0.98447556  0.29333207  0.90280654  1  1.593384  0  0.220901  0.595183  0  4.2356  0
C  C95  1  0.08163596  0.09705140  0.39046691  1  1.559335  0  0.216881  0.590916  0  4.238524  0
N  N96  1  0.91832639  0.52815201  0.36307885  1  -1.197258  0  -0.373043  -0.387377  0  3.357491  0
N  N97  1  0.39017693  0.83484622  0.47178944  1  -1.199532  0  -0.373745  -0.388795  0  3.359293  0
N  N98  1  0.55549001  0.63692777  0.16516055  1  -1.229591  0  -0.374508  -0.389359  0  3.35828  0
N  N99  1  0.89017007  0.47178823  0.83484280  1  -1.199235  0  -0.373754  -0.388767  0  3.359277  0
N  N100  1  0.05548930  0.16515472  0.63692296  1  -1.229665  0  -0.374498  -0.389288  0  3.358206  0
N  N101  1  0.41832535  0.36307847  0.52815104  1  -1.197302  0  -0.373066  -0.387356  0  3.357481  0
N  N102  1  0.94516610  0.56779207  0.25262806  1  -1.308003  0  -0.365164  -0.23356  0  3.692486  0
N  N103  1  0.37736840  0.68478096  0.43232246  1  -1.30183  0  -0.367166  -0.23626  0  3.690705  0
N  N104  1  0.69275839  0.74740544  0.31527039  1  -1.304091  0  -0.367497  -0.236608  0  3.694541  0
N  N105  1  0.87736379  0.43231956  0.68477672  1  -1.301976  0  -0.367171  -0.236259  0  3.690583  0
N  N106  1  0.19275507  0.31526519  0.74740154  1  -1.303995  0  -0.367328  -0.236576  0  3.694751  0
N  N107  1  0.44516594  0.25262943  0.56779061  1  -1.307951  0  -0.36516  -0.233572  0  3.692431  0
N  N108  1  0.84303461  0.27411428  0.15702104  1  -1.271837  0  -0.354783  -0.213853  0  3.630803  0
N  N109  1  0.56884270  0.88303364  0.72595151  1  -1.292088  0  -0.35522  -0.215797  0  3.634484  0
N  N110  1  0.68589447  0.84280586  0.11700588  1  -1.269682  0  -0.355715  -0.215338  0  3.633583  0
N  N111  1  0.06884246  0.72595400  0.88303432  1  -1.292118  0  -0.355205  -0.215787  0  3.6345  0
N  N112  1  0.18589675  0.11700510  0.84280630  1  -1.269623  0  -0.355756  -0.215391  0  3.633364  0
N  N113  1  0.34302950  0.15701849  0.27411343  1  -1.2719  0  -0.354831  -0.213967  0  3.630972  0
N  N114  1  0.80110485  0.34200331  0.06772367  1  -1.220197  0  -0.384147  -0.396685  0  3.376377  0
N  N115  1  0.45906299  0.72583412  0.65807605  1  -1.213155  0  -0.383635  -0.395223  0  3.376537  0
N  N116  1  0.73329055  0.93207865  0.27421265  1  -1.236749  0  -0.386577  -0.399015  0  3.377226  0
N  N117  1  0.95906262  0.65807613  0.72583388  1  -1.213213  0  -0.383652  -0.395287  0  3.376428  0
N  N118  1  0.23329081  0.27421376  0.93207737  1  -1.236762  0  -0.386566  -0.398961  0  3.377322  0
N  N119  1  0.30110313  0.06772233  0.34200301  1  -1.220281  0  -0.384166  -0.396662  0  3.376404  0
O  O120  1  0.28412781  0.50681068  0.40766398  1  -1.221572  0  -0.381327  -0.654594  0  2.301729  0
O  O121  1  0.77733961  0.90078341  0.49317952  1  -1.223569  0  -0.383106  -0.656791  0  2.300529  0
O  O122  1  0.87666183  0.59229479  0.09921875  1  -1.232485  0  -0.380865  -0.6539  0  2.302435  0
O  O123  1  0.27732869  0.49317878  0.90078340  1  -1.22335  0  -0.383007  -0.656636  0  2.30078  0
O  O124  1  0.37666156  0.09921693  0.59229271  1  -1.232152  0  -0.380859  -0.653868  0  2.302532  0
O  O125  1  0.78413282  0.40766414  0.50681071  1  -1.221583  0  -0.381402  -0.654715  0  2.301543  0
O  O126  1  0.08578056  0.42703896  0.42476621  1  -1.216176  0  -0.362849  -0.62031  0  2.293932  0
O  O127  1  0.65877114  0.99766516  0.57289141  1  -1.221491  0  -0.364685  -0.623222  0  2.294055  0
O  O128  1  0.66130376  0.57534642  0.00235628  1  -1.21804  0  -0.362624  -0.619608  0  2.294672  0
O  O129  1  0.15875644  0.57289221  0.99766817  1  -1.221585  0  -0.364748  -0.623194  0  2.293811  0
O  O130  1  0.16130451  0.00234759  0.57534158  1  -1.218036  0  -0.362557  -0.619531  0  2.294328  0
O  O131  1  0.58578614  0.42476731  0.42704446  1  -1.216242  0  -0.362798  -0.620163  0  2.294329  0
O  O132  1  0.24519523  0.47467578  0.20399086  1  -1.240829  0  -0.402154  -0.661683  0  2.251248  0
O  O133  1  0.77057762  0.72942075  0.52545767  1  -1.23573  0  -0.402066  -0.660725  0  2.250818  0
O  O134  1  0.04132170  0.79598325  0.27063133  1  -1.240216  0  -0.402861  -0.662056  0  2.250381  0
O  O135  1  0.27056986  0.52545179  0.72941453  1  -1.235611  0  -0.402003  -0.660594  0  2.250891  0
O  O136  1  0.54132171  0.27063165  0.79598419  1  -1.240234  0  -0.402849  -0.662049  0  2.250378  0
O  O137  1  0.74519390  0.20398927  0.47467064  1  -1.240892  0  -0.402257  -0.661851  0  2.251026  0
O  O138  1  0.18745952  0.59309024  0.18619869  1  -1.225032  0  -0.345585  -0.616869  0  2.185319  0
O  O139  1  0.59449883  0.59307890  0.40708781  1  -1.228796  0  -0.343892  -0.616539  0  2.184364  0
O  O140  1  0.00167225  0.81398195  0.40695733  1  -1.224654  0  -0.345257  -0.616978  0  2.185011  0
O  O141  1  0.09448971  0.40708398  0.59307471  1  -1.228461  0  -0.343853  -0.616388  0  2.184339  0
O  O142  1  0.50166762  0.40695681  0.81398265  1  -1.224599  0  -0.34524  -0.616954  0  2.185012  0
O  O143  1  0.68745925  0.18619819  0.59308492  1  -1.225  0  -0.345595  -0.616936  0  2.185371  0
O  O144  1  0.49647474  0.26770774  0.21016960  1  -1.20719  0  -0.367849  -0.620162  0  2.241173  0
O  O145  1  0.22861762  0.94249239  0.73228788  1  -1.20643  0  -0.369551  -0.621087  0  2.239051  0
O  O146  1  0.28619792  0.78973036  0.05747924  1  -1.206075  0  -0.368677  -0.621457  0  2.241121  0
O  O147  1  0.72862720  0.73229172  0.94249466  1  -1.206459  0  -0.36951  -0.621007  0  2.239259  0
O  O148  1  0.78620253  0.05747703  0.78973306  1  -1.206006  0  -0.36861  -0.621386  0  2.24123  0
O  O149  1  0.99646849  0.21016657  0.26770853  1  -1.206491  0  -0.367806  -0.620094  0  2.241147  0
O  O150  1  0.70222005  0.24638394  0.27965509  1  -1.221391  0  -0.392707  -0.624743  0  2.183348  0
O  O151  1  0.45569883  0.03340496  0.75375037  1  -1.22777  0  -0.393746  -0.626012  0  2.182285  0
O  O152  1  0.42237168  0.72030737  0.96659152  1  -1.224513  0  -0.3937  -0.626209  0  2.183423  0
O  O153  1  0.95569840  0.75375129  0.03340756  1  -1.227688  0  -0.393763  -0.626043  0  2.181895  0
O  O154  1  0.92237498  0.96658958  0.72030569  1  -1.224471  0  -0.393735  -0.626254  0  2.183228  0
O  O155  1  0.20220903  0.27964776  0.24638233  1  -1.221287  0  -0.392645  -0.624627  0  2.183716  0
O  O156  1  0.50543146  0.41686874  0.15412544  1  -1.236207  0  -0.41478  -0.672917  0  2.280539  0
O  O157  1  0.08846925  0.73727302  0.58301732  1  -1.238272  0  -0.414953  -0.672931  0  2.281629  0
O  O158  1  0.35121000  0.84576560  0.26271208  1  -1.248581  0  -0.417452  -0.675572  0  2.283148  0
O  O159  1  0.58847187  0.58301522  0.73727170  1  -1.23832  0  -0.414933  -0.672918  0  2.281812  0
O  O160  1  0.85121472  0.26271436  0.84576689  1  -1.248547  0  -0.417519  -0.675673  0  2.283236  0
O  O161  1  0.00542906  0.15412395  0.41686850  1  -1.236262  0  -0.41483  -0.673001  0  2.280319  0
O  O162  1  0.57059901  0.40861815  0.02803479  1  -1.217019  0  -0.380026  -0.626681  0  2.21589  0
O  O163  1  0.16193181  0.61949147  0.59140532  1  -1.212054  0  -0.380777  -0.6257  0  2.216549  0
O  O164  1  0.54249460  0.97185438  0.38048928  1  -1.227787  0  -0.381447  -0.627652  0  2.216363  0
O  O165  1  0.66193462  0.59140585  0.61949020  1  -1.212029  0  -0.380849  -0.625791  0  2.216333  0
O  O166  1  0.04249748  0.38049305  0.97185843  1  -1.227607  0  -0.381455  -0.62768  0  2.216269  0
O  O167  1  0.07059491  0.02803320  0.40861753  1  -1.216608  0  -0.379953  -0.626549  0  2.215967  0
