# generated using pymatgen
data_SmPH15C21NO11
_symmetry_space_group_name_H-M   'P 1'
_cell_length_a   11.73001376
_cell_length_b   14.69157353
_cell_length_c   17.62357140
_cell_angle_alpha   89.99993158
_cell_angle_beta   90.00019317
_cell_angle_gamma   92.20791470
_symmetry_Int_Tables_number   1
_chemical_formula_structural   SmPH15C21NO11
_chemical_formula_sum   'Sm4 P4 H60 C84 N4 O44'
_cell_volume   3034.85690696
_cell_formula_units_Z   4
loop_
 _symmetry_equiv_pos_site_id
 _symmetry_equiv_pos_as_xyz
  1  'x, y, z'
loop_
 _atom_site_type_symbol
 _atom_site_label
 _atom_site_symmetry_multiplicity
 _atom_site_fract_x
 _atom_site_fract_y
 _atom_site_fract_z
 _atom_site_occupancy
 _atom_site_pbe_bader_charge
 _atom_site_pbe_bader_spin_density
 _atom_site_pbe_cm5_charge
 _atom_site_pbe_ddec_charge
 _atom_site_pbe_ddec_spin_density
 _atom_site_pbe_ddec_sum_bond_order
 _atom_site_pbe_magmom
Sm  Sm0  1  0.92661361  0.90763203  0.92879190  1  2.230419  0  1.530873  2.117468  0  2.155752  0
Sm  Sm1  1  0.57338675  0.59236693  0.42879255  1  2.230469  0  1.530913  2.117554  0  2.155647  0
Sm  Sm2  1  0.07338454  0.09236584  0.07120638  1  2.230444  0  1.530879  2.11748  0  2.155751  0
Sm  Sm3  1  0.42661230  0.40763231  0.57120629  1  2.230423  0  1.53086  2.11748  0  2.155753  0
P  P4  1  0.66441075  0.74816303  0.91772355  1  2.753974  0  0.281257  0.880758  0  4.789815  0
P  P5  1  0.83558961  0.75183730  0.41772407  1  2.794664  0  0.281241  0.880799  0  4.789876  0
P  P6  1  0.33559009  0.25183826  0.08227642  1  2.753872  0  0.281265  0.880835  0  4.789746  0
P  P7  1  0.16441355  0.24815787  0.58227761  1  2.794581  0  0.281268  0.88082  0  4.789934  0
H  H8  1  0.88920928  0.36396957  0.17163402  1  0.662607  0  0.307793  0.355995  0  0.971852  0
H  H9  1  0.61078511  0.13602789  0.67163350  1  0.662637  0  0.3078  0.355959  0  0.971895  0
H  H10  1  0.11078719  0.63602897  0.82836653  1  0.662618  0  0.307784  0.355938  0  0.971885  0
H  H11  1  0.38921138  0.86397133  0.32836648  1  0.662622  0  0.307793  0.355959  0  0.97186  0
H  H12  1  0.82222503  0.01428619  0.77597814  1  0.641371  0  0.303462  0.414503  0  0.906807  0
H  H13  1  0.67777503  0.48571185  0.27597977  1  0.6415  0  0.303453  0.41448  0  0.906846  0
H  H14  1  0.17777746  0.98571375  0.22402014  1  0.641438  0  0.303466  0.414506  0  0.906804  0
H  H15  1  0.32222238  0.51428874  0.72402021  1  0.641423  0  0.303463  0.414514  0  0.906787  0
H  H16  1  0.76404657  0.01363984  0.85650035  1  0.625041  0  0.317733  0.407022  0  0.897662  0
H  H17  1  0.73595560  0.48635810  0.35650040  1  0.624995  0  0.317706  0.406989  0  0.897688  0
H  H18  1  0.23595417  0.98635872  0.14349793  1  0.624999  0  0.317715  0.40699  0  0.897689  0
H  H19  1  0.26404428  0.51364046  0.64349901  1  0.625005  0  0.317689  0.406975  0  0.897728  0
H  H20  1  0.42864451  0.70085188  0.86402194  1  0.084323  0  0.100966  0.104853  0  1.037275  0
H  H21  1  0.07135339  0.79914838  0.36402124  1  0.084278  0  0.100975  0.104856  0  1.037263  0
H  H22  1  0.57135977  0.29915011  0.13597520  1  0.08429  0  0.100945  0.104816  0  1.037369  0
H  H23  1  0.92864487  0.20085222  0.63598044  1  0.084259  0  0.100963  0.104826  0  1.037283  0
H  H24  1  0.24398418  0.76955209  0.89481114  1  0.093079  0  0.107687  0.112318  0  1.015728  0
H  H25  1  0.25601566  0.73045018  0.39481207  1  0.093073  0  0.107687  0.112312  0  1.015714  0
H  H26  1  0.75602194  0.23045332  0.10518316  1  0.093181  0  0.107719  0.11236  0  1.01573  0
H  H27  1  0.74398604  0.26955111  0.60518905  1  0.093087  0  0.107676  0.112295  0  1.015702  0
H  H28  1  0.41307111  0.95527711  0.04985254  1  0.083514  0  0.107369  0.10868  0  1.010324  0
H  H29  1  0.08692775  0.54472288  0.54985262  1  0.083535  0  0.107374  0.108691  0  1.010309  0
H  H30  1  0.58692888  0.04472418  0.95014744  1  0.083542  0  0.107379  0.108664  0  1.010332  0
H  H31  1  0.91307213  0.45527568  0.45014736  1  0.083566  0  0.10739  0.108718  0  1.010301  0
H  H32  1  0.60017634  0.88760575  0.02000129  1  0.078532  0  0.114754  0.117479  0  0.990394  0
H  H33  1  0.89982470  0.61239783  0.52000257  1  0.078572  0  0.114742  0.117482  0  0.990283  0
H  H34  1  0.39982271  0.11239348  0.98000210  1  0.078563  0  0.11476  0.117493  0  0.99038  0
H  H35  1  0.10017607  0.38760142  0.47999911  1  0.078586  0  0.11477  0.117498  0  0.990303  0
H  H36  1  0.53227057  0.66138351  0.04229476  1  0.077271  0  0.106955  0.108609  0  1.006689  0
H  H37  1  0.96772967  0.83861868  0.54229427  1  0.077245  0  0.106957  0.108593  0  1.006712  0
H  H38  1  0.46772934  0.33861573  0.95770522  1  0.077285  0  0.10697  0.108617  0  1.006686  0
H  H39  1  0.03227202  0.16138262  0.45770628  1  0.077273  0  0.106973  0.108611  0  1.006681  0
H  H40  1  0.58107783  0.54123964  0.13529646  1  0.102788  0  0.110184  0.113196  0  1.002773  0
H  H41  1  0.91892114  0.95876173  0.63529687  1  0.102789  0  0.110219  0.11322  0  1.002755  0
H  H42  1  0.41892125  0.45876027  0.86470352  1  0.102805  0  0.110206  0.11323  0  1.002745  0
H  H43  1  0.08107711  0.04123886  0.36470140  1  0.102752  0  0.110197  0.113213  0  1.00271  0
H  H44  1  0.90911017  0.51811613  0.02949933  1  0.102019  0  0.112446  0.11609  0  1.000372  0
H  H45  1  0.59088889  0.98187926  0.52950182  1  0.102033  0  0.112489  0.116137  0  1.000418  0
H  H46  1  0.09088212  0.48188443  0.97050122  1  0.101922  0  0.112477  0.116109  0  1.000433  0
H  H47  1  0.40911526  0.01811933  0.47049816  1  0.101979  0  0.112493  0.116118  0  1.000473  0
H  H48  1  0.86332576  0.63900809  0.93704625  1  0.148126  0  0.116393  0.126699  0  1.006431  0
H  H49  1  0.63667462  0.86099018  0.43704848  1  0.148115  0  0.116399  0.126759  0  1.006404  0
H  H50  1  0.13667407  0.36098911  0.06295316  1  0.148097  0  0.116416  0.126753  0  1.006354  0
H  H51  1  0.36332700  0.13900907  0.56295320  1  0.148084  0  0.116389  0.12671  0  1.00642  0
H  H52  1  0.59711219  0.56516541  0.85487138  1  0.060532  0  0.104014  0.098756  0  1.009494  0
H  H53  1  0.90288271  0.93483430  0.35487414  1  0.060375  0  0.103989  0.09873  0  1.009509  0
H  H54  1  0.40288607  0.43483519  0.14512633  1  0.060415  0  0.104004  0.098724  0  1.009514  0
H  H55  1  0.09711882  0.06516291  0.64512981  1  0.060307  0  0.104014  0.098715  0  1.009525  0
H  H56  1  0.55795243  0.51728210  0.72156921  1  0.105584  0  0.114189  0.116407  0  1.032337  0
H  H57  1  0.94204613  0.98271916  0.22157030  1  0.105601  0  0.114135  0.116362  0  1.032394  0
H  H58  1  0.44205023  0.48272192  0.27842907  1  0.105716  0  0.114177  0.116435  0  1.032222  0
H  H59  1  0.05795210  0.01728075  0.77843251  1  0.105656  0  0.114157  0.116391  0  1.032371  0
H  H60  1  0.66726668  0.78332280  0.64234235  1  0.107908  0  0.106121  0.110864  0  1.021171  0
H  H61  1  0.83273659  0.71667859  0.14234460  1  0.10799  0  0.106144  0.110926  0  1.021126  0
H  H62  1  0.33273760  0.21667919  0.35765649  1  0.107972  0  0.106137  0.110888  0  1.021111  0
H  H63  1  0.16726252  0.28332201  0.85765708  1  0.107966  0  0.10612  0.110879  0  1.021151  0
H  H64  1  0.70882408  0.83250506  0.77654503  1  0.134639  0  0.110694  0.115187  0  1.018205  0
H  H65  1  0.79117558  0.66749546  0.27654496  1  0.13462  0  0.110684  0.115147  0  1.018209  0
H  H66  1  0.29118017  0.16749625  0.22345552  1  0.134679  0  0.110693  0.115158  0  1.018258  0
H  H67  1  0.20882345  0.33250310  0.72345559  1  0.134685  0  0.110676  0.115135  0  1.018187  0
C  C68  1  0.52594716  0.78924246  0.94112045  1  -0.543191  0  -0.022045  -0.149978  0  4.005529  0
C  C69  1  0.97405252  0.71075920  0.44112132  1  -0.583917  0  -0.022044  -0.149996  0  4.005538  0
C  C70  1  0.47405448  0.21075747  0.05887669  1  -0.54332  0  -0.021984  -0.149913  0  4.005461  0
C  C71  1  0.02594992  0.28923937  0.55888036  1  -0.583812  0  -0.02201  -0.149987  0  4.005488  0
C  C72  1  0.42589676  0.75548991  0.90574671  1  -0.02253  0  -0.081696  -0.082893  0  3.986034  0
C  C73  1  0.07410399  0.74451235  0.40574891  1  -0.02246  0  -0.081702  -0.082911  0  3.986093  0
C  C74  1  0.57410595  0.24451547  0.09424930  1  -0.022402  0  -0.081751  -0.082908  0  3.986089  0
C  C75  1  0.92589677  0.25548690  0.59425390  1  -0.02257  0  -0.081664  -0.08281  0  3.986087  0
C  C76  1  0.32221839  0.79386143  0.92257006  1  -0.020425  0  -0.075179  -0.069899  0  3.925958  0
C  C77  1  0.17778070  0.70614013  0.42256970  1  -0.02046  0  -0.075199  -0.069913  0  3.925951  0
C  C78  1  0.67778498  0.20613920  0.07743048  1  -0.020611  0  -0.075204  -0.070026  0  3.925901  0
C  C79  1  0.82222099  0.29386117  0.57743255  1  -0.020442  0  -0.075191  -0.069826  0  3.926068  0
C  C80  1  0.31763582  0.86616341  0.97416683  1  0.026241  0  -0.007829  -0.025833  0  3.929086  0
C  C81  1  0.18236340  0.63383467  0.47416258  1  0.026332  0  -0.007781  -0.025773  0  3.928915  0
C  C82  1  0.68236313  0.13383310  0.02583599  1  0.02652  0  -0.007833  -0.025747  0  3.928909  0
C  C83  1  0.81763734  0.36616390  0.52583740  1  0.026467  0  -0.007838  -0.025975  0  3.929155  0
C  C84  1  0.41758275  0.89859421  0.01027887  1  -0.07245  0  -0.079169  -0.089954  0  3.959827  0
C  C85  1  0.08241677  0.60140584  0.51027775  1  -0.072748  0  -0.079116  -0.089887  0  3.959799  0
C  C86  1  0.58241897  0.10140777  0.98971941  1  -0.072763  0  -0.079144  -0.089862  0  3.95975  0
C  C87  1  0.91758226  0.39859272  0.48972223  1  -0.072996  0  -0.079152  -0.089871  0  3.95969  0
C  C88  1  0.52160177  0.86060188  0.99393150  1  -0.038718  0  -0.073645  -0.070018  0  3.967486  0
C  C89  1  0.97840068  0.63939837  0.49393302  1  -0.038722  0  -0.073673  -0.070058  0  3.967452  0
C  C90  1  0.47839993  0.13939941  0.00606621  1  -0.038564  0  -0.073689  -0.070094  0  3.967563  0
C  C91  1  0.02160168  0.36059817  0.50606923  1  -0.038565  0  -0.07372  -0.070136  0  3.967341  0
C  C92  1  0.20643552  0.91086151  0.98805206  1  1.583942  0  0.237639  0.652109  0  4.146633  0
C  C93  1  0.29356729  0.58913930  0.48804584  1  1.5843  0  0.237616  0.652087  0  4.14654  0
C  C94  1  0.79356439  0.08913774  0.01194848  1  1.583983  0  0.237551  0.651991  0  4.146709  0
C  C95  1  0.70643873  0.41086338  0.51195131  1  1.584255  0  0.237772  0.652255  0  4.146511  0
C  C96  1  0.69391755  0.65720476  0.98321944  1  -0.576687  0  -0.012799  -0.135523  0  3.969164  0
C  C97  1  0.80608231  0.84279617  0.48321866  1  -0.576143  0  -0.012827  -0.135679  0  3.969292  0
C  C98  1  0.30608239  0.34279517  0.01677997  1  -0.576678  0  -0.012809  -0.135586  0  3.969189  0
C  C99  1  0.19391837  0.15720103  0.51678018  1  -0.576852  0  -0.012779  -0.135615  0  3.969257  0
C  C100  1  0.61462458  0.62968470  0.03910312  1  -0.045297  0  -0.076937  -0.079628  0  3.989205  0
C  C101  1  0.88537565  0.87031749  0.53910355  1  -0.04528  0  -0.07689  -0.079483  0  3.989167  0
C  C102  1  0.38537363  0.37031454  0.96089402  1  -0.045291  0  -0.07696  -0.079584  0  3.989151  0
C  C103  1  0.11462426  0.12968175  0.46089529  1  -0.045252  0  -0.076907  -0.079484  0  3.989081  0
C  C104  1  0.64147072  0.56238138  0.09111024  1  -0.004223  0  -0.075539  -0.085048  0  3.954701  0
C  C105  1  0.85852441  0.93761459  0.59111338  1  -0.00417  0  -0.075664  -0.08521  0  3.954807  0
C  C106  1  0.35852487  0.43761648  0.90888747  1  -0.004161  0  -0.075584  -0.085147  0  3.954736  0
C  C107  1  0.14147371  0.06238260  0.40888660  1  -0.004169  0  -0.075595  -0.085145  0  3.954666  0
C  C108  1  0.74753929  0.52187107  0.08748909  1  -0.02173  0  -0.011157  -0.042899  0  3.981617  0
C  C109  1  0.75245763  0.97812764  0.58749081  1  -0.022135  0  -0.011147  -0.042781  0  3.981407  0
C  C110  1  0.25245811  0.47812952  0.91251089  1  -0.022182  0  -0.011139  -0.042834  0  3.981634  0
C  C111  1  0.24754140  0.02187092  0.41250860  1  -0.022182  0  -0.011145  -0.042869  0  3.981563  0
C  C112  1  0.82669104  0.54954831  0.03146363  1  0.004725  0  -0.070374  -0.078033  0  3.926513  0
C  C113  1  0.67330720  0.95044775  0.53146464  1  0.004692  0  -0.070407  -0.078117  0  3.926609  0
C  C114  1  0.17330471  0.45045363  0.96853748  1  0.004691  0  -0.070373  -0.077981  0  3.926574  0
C  C115  1  0.32669340  0.04954741  0.46853648  1  0.004708  0  -0.070425  -0.07806  0  3.926601  0
C  C116  1  0.80048780  0.61687632  0.97947857  1  -0.061516  0  -0.062456  -0.051883  0  3.924788  0
C  C117  1  0.69951191  0.88312121  0.47947978  1  -0.062061  0  -0.062476  -0.051923  0  3.924924  0
C  C118  1  0.19951137  0.38312565  0.02052085  1  -0.061456  0  -0.062499  -0.052004  0  3.924832  0
C  C119  1  0.30049048  0.11687600  0.52052020  1  -0.061289  0  -0.0625  -0.051924  0  3.92487  0
C  C120  1  0.77343340  0.44962386  0.14375130  1  1.505683  0  0.238803  0.584996  0  4.11684  0
C  C121  1  0.72656270  0.05037705  0.64375510  1  1.506002  0  0.238811  0.584887  0  4.116883  0
C  C122  1  0.22656571  0.55037674  0.85624867  1  1.506126  0  0.238687  0.584773  0  4.117195  0
C  C123  1  0.27344155  0.94962426  0.35624772  1  1.505947  0  0.238785  0.584879  0  4.116913  0
C  C124  1  0.65251455  0.70220199  0.82347309  1  -0.610937  0  -0.019351  -0.148385  0  4.008599  0
C  C125  1  0.84748624  0.79779983  0.32347358  1  -0.610902  0  -0.019347  -0.148361  0  4.008607  0
C  C126  1  0.34749061  0.29780069  0.17652632  1  -0.610874  0  -0.019454  -0.148479  0  4.008577  0
C  C127  1  0.15251615  0.20219738  0.67652810  1  -0.610895  0  -0.019404  -0.148426  0  4.008488  0
C  C128  1  0.61186673  0.61315331  0.80837853  1  0.002371  0  -0.07731  -0.076454  0  3.996708  0
C  C129  1  0.88813140  0.88684784  0.30837959  1  0.002323  0  -0.077302  -0.076432  0  3.996749  0
C  C130  1  0.38813670  0.38684868  0.19162088  1  0.002175  0  -0.077296  -0.076402  0  3.996713  0
C  C131  1  0.11186592  0.11315071  0.69162436  1  0.002407  0  -0.07731  -0.076379  0  3.996709  0
C  C132  1  0.58915063  0.58644243  0.73386241  1  -0.042351  0  -0.069688  -0.075788  0  3.916691  0
C  C133  1  0.91085057  0.91355951  0.23386293  1  -0.042356  0  -0.069597  -0.075681  0  3.916646  0
C  C134  1  0.41085114  0.41356091  0.26613700  1  -0.042399  0  -0.069614  -0.075721  0  3.916629  0
C  C135  1  0.08914686  0.08644176  0.76613989  1  -0.042459  0  -0.069633  -0.075791  0  3.916688  0
C  C136  1  0.60689152  0.64902027  0.67468767  1  -0.066679  0  -0.003501  -0.015995  0  3.925978  0
C  C137  1  0.89310682  0.85098174  0.17468878  1  -0.066623  0  -0.003535  -0.01609  0  3.926078  0
C  C138  1  0.39310855  0.35098306  0.32531174  1  -0.067012  0  -0.003572  -0.016179  0  3.926258  0
C  C139  1  0.10688976  0.14901953  0.82531347  1  -0.066877  0  -0.003502  -0.015935  0  3.925897  0
C  C140  1  0.65202947  0.73694554  0.68979755  1  -0.019269  0  -0.073246  -0.076206  0  3.932304  0
C  C141  1  0.84796724  0.76305644  0.18979865  1  -0.019296  0  -0.073284  -0.076279  0  3.932351  0
C  C142  1  0.34797731  0.26305511  0.31020072  1  -0.019225  0  -0.073204  -0.076084  0  3.932374  0
C  C143  1  0.15202760  0.23694414  0.81020246  1  -0.019264  0  -0.073238  -0.076237  0  3.932269  0
C  C144  1  0.67485611  0.76395053  0.76394826  1  -0.043496  0  -0.072059  -0.066911  0  3.954348  0
C  C145  1  0.82514177  0.73604999  0.26394876  1  -0.043498  0  -0.072057  -0.066891  0  3.95431  0
C  C146  1  0.32514811  0.23605010  0.23605059  1  -0.043491  0  -0.072062  -0.066941  0  3.954505  0
C  C147  1  0.17485726  0.26394857  0.73605235  1  -0.043562  0  -0.072021  -0.066835  0  3.954224  0
C  C148  1  0.57871741  0.62476088  0.59447860  1  1.58657  0  0.223108  0.628896  0  4.16914  0
C  C149  1  0.92128221  0.87524055  0.09447918  1  1.586624  0  0.223053  0.628841  0  4.169137  0
C  C150  1  0.42128348  0.37524177  0.40552025  1  1.587012  0  0.223013  0.628836  0  4.169305  0
C  C151  1  0.07871604  0.12476004  0.90552364  1  1.587048  0  0.223061  0.628806  0  4.169155  0
N  N152  1  0.02309944  0.77937198  0.81775103  1  0.838304  0  0.088441  0.727519  0  4.42642  0
N  N153  1  0.47689820  0.72062766  0.31775075  1  0.838202  0  0.088493  0.727562  0  4.426404  0
N  N154  1  0.97689796  0.22062861  0.18224895  1  0.837664  0  0.088391  0.727398  0  4.426549  0
N  N155  1  0.52309822  0.27936952  0.68224866  1  0.838289  0  0.088399  0.72738  0  4.426514  0
O  O156  1  0.75186910  0.82598947  0.92007161  1  -1.43644  0  -0.445931  -0.750819  0  2.36971  0
O  O157  1  0.74813130  0.67401154  0.42007143  1  -1.436442  0  -0.445897  -0.750799  0  2.369692  0
O  O158  1  0.24813174  0.17401182  0.07993064  1  -1.436419  0  -0.445883  -0.750827  0  2.369717  0
O  O159  1  0.25187018  0.32598430  0.57993081  1  -1.436531  0  -0.445917  -0.750861  0  2.369763  0
O  O160  1  0.20922991  0.98275400  0.02894847  1  -1.207916  0  -0.387197  -0.673207  0  2.292287  0
O  O161  1  0.29077068  0.51724943  0.52894734  1  -1.207861  0  -0.387138  -0.67319  0  2.292238  0
O  O162  1  0.79077269  0.01724866  0.97104867  1  -1.207917  0  -0.387181  -0.673193  0  2.292295  0
O  O163  1  0.70923104  0.48275254  0.47105094  1  -1.207993  0  -0.387242  -0.673293  0  2.292201  0
O  O164  1  0.11820028  0.87460944  0.95743446  1  -1.186657  0  -0.394333  -0.66452  0  2.323982  0
O  O165  1  0.38180141  0.62538867  0.45742727  1  -1.186819  0  -0.394405  -0.664554  0  2.323915  0
O  O166  1  0.88180152  0.12539458  0.04256154  1  -1.186725  0  -0.394251  -0.664451  0  2.324029  0
O  O167  1  0.61820207  0.37461468  0.54257158  1  -1.186657  0  -0.394443  -0.664586  0  2.32405  0
O  O168  1  0.70503166  0.42408772  0.19375586  1  -1.164892  0  -0.293451  -0.520975  0  2.166634  0
O  O169  1  0.79495938  0.07590833  0.69375581  1  -1.16502  0  -0.293469  -0.520913  0  2.166915  0
O  O170  1  0.29496668  0.57591492  0.80624525  1  -1.164859  0  -0.293393  -0.520882  0  2.166702  0
O  O171  1  0.20504050  0.92409023  0.30624360  1  -1.164936  0  -0.29349  -0.520963  0  2.166597  0
O  O172  1  0.87555033  0.41515746  0.13435266  1  -1.165304  0  -0.323538  -0.46955  0  2.312559  0
O  O173  1  0.62443613  0.08483796  0.63435222  1  -1.165152  0  -0.323508  -0.469458  0  2.312432  0
O  O174  1  0.12444700  0.58484108  0.86564732  1  -1.165366  0  -0.323483  -0.469417  0  2.312675  0
O  O175  1  0.37556117  0.91515991  0.36564833  1  -1.165157  0  -0.323491  -0.469428  0  2.312634  0
O  O176  1  0.53398019  0.54581072  0.57876327  1  -1.226105  0  -0.431934  -0.766592  0  2.441155  0
O  O177  1  0.96601853  0.95419142  0.07876387  1  -1.226144  0  -0.43191  -0.766516  0  2.441044  0
O  O178  1  0.46602404  0.45418991  0.42123671  1  -1.226188  0  -0.43185  -0.766498  0  2.441249  0
O  O179  1  0.03397972  0.04580918  0.92123837  1  -1.226174  0  -0.431893  -0.766507  0  2.441166  0
O  O180  1  0.60133508  0.68250324  0.54277681  1  -1.176941  0  -0.372106  -0.605523  0  2.219153  0
O  O181  1  0.89866338  0.81749690  0.04277911  1  -1.176894  0  -0.372064  -0.605478  0  2.219209  0
O  O182  1  0.39866571  0.31749669  0.45722033  1  -1.176872  0  -0.372048  -0.605463  0  2.219173  0
O  O183  1  0.10133405  0.18250438  0.95722428  1  -1.176996  0  -0.372107  -0.605503  0  2.21908  0
O  O184  1  0.97156085  0.74913196  0.87667830  1  -0.55434  0  -0.21268  -0.495996  0  2.028384  0
O  O185  1  0.52843846  0.75086843  0.37667813  1  -0.554315  0  -0.212723  -0.496072  0  2.028418  0
O  O186  1  0.02843826  0.25086864  0.12332224  1  -0.554307  0  -0.212659  -0.495961  0  2.028424  0
O  O187  1  0.47156396  0.24912947  0.62332015  1  -0.554381  0  -0.212707  -0.495971  0  2.02836  0
O  O188  1  0.01320794  0.86338046  0.80132127  1  -0.567345  0  -0.228184  -0.511125  0  1.983442  0
O  O189  1  0.48679221  0.63661989  0.30132054  1  -0.567352  0  -0.228194  -0.511128  0  1.983379  0
O  O190  1  0.98679030  0.13661945  0.19867871  1  -0.567324  0  -0.228179  -0.511087  0  1.983403  0
O  O191  1  0.51320162  0.36337659  0.69868171  1  -0.567251  0  -0.228102  -0.511018  0  1.983379  0
O  O192  1  0.08286707  0.72888305  0.77776376  1  -0.515691  0  -0.164888  -0.398269  0  1.926109  0
O  O193  1  0.41712949  0.77111595  0.27776444  1  -0.515619  0  -0.164893  -0.39827  0  1.926173  0
O  O194  1  0.91713030  0.27111686  0.22223621  1  -0.515103  0  -0.16487  -0.398249  0  1.926207  0
O  O195  1  0.58286690  0.22888055  0.72223497  1  -0.515723  0  -0.1649  -0.398269  0  1.926191  0
O  O196  1  0.81341411  0.97887285  0.82351852  1  -1.248448  0  -0.622649  -0.840517  0  2.026773  0
O  O197  1  0.68658741  0.52112557  0.32351893  1  -1.24852  0  -0.622628  -0.840475  0  2.026768  0
O  O198  1  0.18658753  0.02112708  0.17648032  1  -1.248474  0  -0.622649  -0.840497  0  2.026777  0
O  O199  1  0.31341162  0.47887299  0.67648161  1  -1.248453  0  -0.622608  -0.840489  0  2.026765  0
