# generated using pymatgen
data_YH16C15N2O7
_symmetry_space_group_name_H-M   'P 1'
_cell_length_a   9.67883649
_cell_length_b   13.86928503
_cell_length_c   16.30447743
_cell_angle_alpha   90.00040357
_cell_angle_beta   89.99987749
_cell_angle_gamma   105.52333967
_symmetry_Int_Tables_number   1
_chemical_formula_structural   YH16C15N2O7
_chemical_formula_sum   'Y4 H64 C60 N8 O28'
_cell_volume   2108.84920396
_cell_formula_units_Z   4
loop_
 _symmetry_equiv_pos_site_id
 _symmetry_equiv_pos_as_xyz
  1  'x, y, z'
loop_
 _atom_site_type_symbol
 _atom_site_label
 _atom_site_symmetry_multiplicity
 _atom_site_fract_x
 _atom_site_fract_y
 _atom_site_fract_z
 _atom_site_occupancy
 _atom_site_pbe_bader_charge
 _atom_site_pbe_bader_spin_density
 _atom_site_pbe_cm5_charge
 _atom_site_pbe_ddec_charge
 _atom_site_pbe_ddec_spin_density
 _atom_site_pbe_ddec_sum_bond_order
 _atom_site_pbe_magmom
Y  Y0  1  0.82624334  0.55321105  0.01769137  1  2.295361  0  1.316191  1.792553  0  2.487008  0
Y  Y1  1  0.67376593  0.94678772  0.51769274  1  2.295378  0  1.316211  1.792632  0  2.486938  0
Y  Y2  1  0.17375758  0.44678653  0.98230687  1  2.295482  0  1.316225  1.792561  0  2.487007  0
Y  Y3  1  0.32624957  0.05321274  0.48230796  1  2.2954  0  1.316264  1.792736  0  2.48676  0
H  H4  1  0.30388633  0.62284274  0.81538385  1  0.112622  0  0.105891  0.109719  0  1.042269  0
H  H5  1  0.19611858  0.87715876  0.31539012  1  0.112593  0  0.105878  0.109711  0  1.042293  0
H  H6  1  0.69611210  0.37715637  0.18461746  1  0.112618  0  0.105886  0.109753  0  1.042253  0
H  H7  1  0.80388486  0.12284255  0.68461057  1  0.112588  0  0.105905  0.109701  0  1.04234  0
H  H8  1  0.43086148  0.72300731  0.69518028  1  0.062026  0  0.100811  0.095995  0  1.054005  0
H  H9  1  0.06913525  0.77699328  0.19519041  1  0.06197  0  0.100803  0.095974  0  1.054022  0
H  H10  1  0.56913546  0.27698805  0.30481797  1  0.062032  0  0.100802  0.095932  0  1.05402  0
H  H11  1  0.93086201  0.22300809  0.80481274  1  0.061984  0  0.100799  0.095946  0  1.054062  0
H  H12  1  0.10219316  0.87613731  0.67831748  1  0.099483  0  0.108397  0.113757  0  1.008382  0
H  H13  1  0.39779337  0.62385573  0.17831707  1  0.099309  0  0.108369  0.113705  0  1.0084  0
H  H14  1  0.89779284  0.12385139  0.32167708  1  0.09925  0  0.108404  0.113759  0  1.008401  0
H  H15  1  0.60220167  0.37614266  0.82168179  1  0.09928  0  0.108369  0.113708  0  1.008448  0
H  H16  1  0.97670376  0.77855763  0.79939380  1  0.088499  0  0.101311  0.094791  0  1.060556  0
H  H17  1  0.52328842  0.72143456  0.29939077  1  0.087872  0  0.101303  0.094759  0  1.060666  0
H  H18  1  0.02328431  0.22143105  0.20060077  1  0.088405  0  0.101361  0.094755  0  1.060621  0
H  H19  1  0.47670971  0.27856379  0.70060686  1  0.08784  0  0.101304  0.094718  0  1.060645  0
H  H20  1  0.00702907  0.93529863  0.17572940  1  0.050921  0  0.098952  0.071306  0  0.980888  0
H  H21  1  0.49297883  0.56469870  0.67572927  1  0.051018  0  0.098935  0.071323  0  0.980884  0
H  H22  1  0.99297803  0.06469890  0.82427068  1  0.051008  0  0.098951  0.071372  0  0.980914  0
H  H23  1  0.50701694  0.43529892  0.32427449  1  0.051059  0  0.098903  0.071264  0  0.980951  0
H  H24  1  0.87436979  0.98860110  0.13447101  1  0.053004  0  0.107813  0.082759  0  0.973575  0
H  H25  1  0.62563519  0.51140091  0.63446735  1  0.052929  0  0.107812  0.082731  0  0.973591  0
H  H26  1  0.12563808  0.01140093  0.86553275  1  0.052894  0  0.107834  0.082761  0  0.97365  0
H  H27  1  0.37435590  0.48860051  0.36553764  1  0.053114  0  0.107859  0.082753  0  0.973565  0
H  H28  1  0.85388651  0.96412064  0.29019566  1  0.069406  0  0.105952  0.116239  0  1.001144  0
H  H29  1  0.64611574  0.53588115  0.79019335  1  0.069468  0  0.105942  0.116239  0  1.001108  0
H  H30  1  0.14611929  0.03588140  0.70980627  1  0.069473  0  0.105989  0.116278  0  1.001105  0
H  H31  1  0.35387093  0.46411955  0.20981103  1  0.06956  0  0.105968  0.116294  0  1.001149  0
H  H32  1  0.69655232  0.90244267  0.23579702  1  0.021846  0  0.098864  0.100022  0  0.975618  0
H  H33  1  0.80345184  0.59755567  0.73579427  1  0.021792  0  0.098834  0.099972  0  0.975636  0
H  H34  1  0.30345391  0.09755788  0.76420490  1  0.021759  0  0.098841  0.099957  0  0.975662  0
H  H35  1  0.19653951  0.40244124  0.26421134  1  0.021737  0  0.098869  0.100062  0  0.975631  0
H  H36  1  0.74556900  0.78722435  0.33620464  1  0.060552  0  0.111253  0.092547  0  1.017038  0
H  H37  1  0.75443705  0.71277704  0.83620510  1  0.060448  0  0.111233  0.092595  0  1.017009  0
H  H38  1  0.25443651  0.21277695  0.66379483  1  0.060476  0  0.111216  0.092575  0  1.016976  0
H  H39  1  0.24555374  0.28722363  0.16380050  1  0.060371  0  0.111207  0.092572  0  1.017038  0
H  H40  1  0.92666383  0.81065231  0.30659432  1  0.080418  0  0.103043  0.082637  0  0.98836  0
H  H41  1  0.57333957  0.68934736  0.80659242  1  0.080487  0  0.103083  0.08272  0  0.988319  0
H  H42  1  0.07333945  0.18934601  0.69340944  1  0.080519  0  0.103063  0.082691  0  0.988299  0
H  H43  1  0.42665298  0.31065254  0.19341011  1  0.080575  0  0.103055  0.082632  0  0.98825  0
H  H44  1  0.87335804  0.92794835  0.00809756  1  0.043001  0  0.101684  0.104593  0  1.009146  0
H  H45  1  0.62664227  0.57205117  0.50809795  1  0.043043  0  0.101668  0.104569  0  1.009148  0
H  H46  1  0.12663730  0.07205078  0.99190191  1  0.043529  0  0.10167  0.10459  0  1.00913  0
H  H47  1  0.37335144  0.42794648  0.49190826  1  0.042925  0  0.101667  0.104528  0  1.009138  0
H  H48  1  0.77217231  0.80198667  0.98892844  1  0.098708  0  0.115705  0.134877  0  0.985988  0
H  H49  1  0.72782776  0.69801151  0.48892746  1  0.098711  0  0.115707  0.134866  0  0.985977  0
H  H50  1  0.22782376  0.19801171  0.01107226  1  0.09875  0  0.115715  0.13487  0  0.986033  0
H  H51  1  0.27216934  0.30198686  0.51107630  1  0.097952  0  0.115692  0.134779  0  0.986023  0
H  H52  1  0.96043764  0.82908894  0.00417313  1  0.078784  0  0.1035  0.11522  0  0.996494  0
H  H53  1  0.53956164  0.67091056  0.50417362  1  0.07879  0  0.103506  0.115222  0  0.996482  0
H  H54  1  0.03956065  0.17091242  0.99582756  1  0.078779  0  0.103506  0.115193  0  0.996494  0
H  H55  1  0.46042898  0.32908711  0.49582953  1  0.078814  0  0.103413  0.115075  0  0.996553  0
H  H56  1  0.68464694  0.57110848  0.20642679  1  0.098911  0  0.115369  0.129265  0  1.020313  0
H  H57  1  0.81535358  0.92889341  0.70642787  1  0.098873  0  0.115373  0.129302  0  1.02034  0
H  H58  1  0.31536092  0.42889355  0.79357084  1  0.098619  0  0.11536  0.129259  0  1.020341  0
H  H59  1  0.18464249  0.07110497  0.29357344  1  0.098832  0  0.115381  0.129294  0  1.020347  0
H  H60  1  0.66562878  0.61781590  0.30684169  1  0.026976  0  0.100366  0.103885  0  1.011895  0
H  H61  1  0.83437024  0.88218831  0.80684307  1  0.026962  0  0.100391  0.103914  0  1.011843  0
H  H62  1  0.33437509  0.38218391  0.69315716  1  0.026932  0  0.100384  0.103896  0  1.011837  0
H  H63  1  0.16562557  0.11781457  0.19315885  1  0.026986  0  0.100351  0.103871  0  1.011856  0
H  H64  1  0.83454186  0.60210811  0.27494907  1  0.054366  0  0.103112  0.114056  0  0.976865  0
H  H65  1  0.66545598  0.89789285  0.77494954  1  0.054235  0  0.103114  0.114047  0  0.976823  0
H  H66  1  0.16546630  0.39789467  0.72505163  1  0.054339  0  0.103129  0.114027  0  0.976807  0
H  H67  1  0.33454145  0.10211152  0.22505116  1  0.054344  0  0.103108  0.11398  0  0.976814  0
C  C68  1  0.13175924  0.69447913  0.81373616  1  0.033373  0  -0.013977  -0.036102  0  3.964137  0
C  C69  1  0.36823874  0.80551790  0.31374056  1  0.033322  0  -0.014072  -0.03629  0  3.96432  0
C  C70  1  0.86823374  0.30551927  0.18625718  1  0.033364  0  -0.013968  -0.036012  0  3.963998  0
C  C71  1  0.63176647  0.19448265  0.68625891  1  0.033472  0  -0.014097  -0.036449  0  3.964239  0
C  C72  1  0.25974844  0.67773231  0.78450173  1  -0.080307  0  -0.083252  -0.098269  0  3.96086  0
C  C73  1  0.24025087  0.82226523  0.28450516  1  -0.080293  0  -0.08331  -0.098287  0  3.96076  0
C  C74  1  0.74024467  0.32226383  0.21549836  1  -0.080271  0  -0.083359  -0.098522  0  3.960795  0
C  C75  1  0.75974696  0.17773238  0.71549492  1  -0.080367  0  -0.083291  -0.098223  0  3.960751  0
C  C76  1  0.33043738  0.73343220  0.71849667  1  -0.039324  0  -0.087356  -0.102288  0  3.982617  0
C  C77  1  0.16955947  0.76656633  0.21850047  1  -0.039206  0  -0.087341  -0.102239  0  3.982415  0
C  C78  1  0.66955643  0.26655794  0.28150035  1  -0.040087  0  -0.087287  -0.102104  0  3.982378  0
C  C79  1  0.83044371  0.23343949  0.78149838  1  -0.0397  0  -0.087329  -0.1022  0  3.982364  0
C  C80  1  0.27444382  0.80542034  0.68048160  1  -0.00779  0  -0.013102  -0.031264  0  3.951412  0
C  C81  1  0.22555201  0.69457788  0.18048244  1  -0.008114  0  -0.013082  -0.0312  0  3.951406  0
C  C82  1  0.72555354  0.19457352  0.31951665  1  -0.00765  0  -0.013095  -0.031144  0  3.951505  0
C  C83  1  0.77445027  0.30542569  0.81951703  1  -0.007642  0  -0.013107  -0.03118  0  3.951519  0
C  C84  1  0.14557868  0.82101460  0.70919224  1  -0.086642  0  -0.081708  -0.08891  0  3.962033  0
C  C85  1  0.35441140  0.67898240  0.20919405  1  -0.086349  0  -0.081685  -0.088936  0  3.96213  0
C  C86  1  0.85440703  0.17897335  0.29079802  1  -0.085939  0  -0.081814  -0.089173  0  3.962402  0
C  C87  1  0.64558852  0.32102044  0.79080541  1  -0.086333  0  -0.081718  -0.089061  0  3.962296  0
C  C88  1  0.07580977  0.76657502  0.77571250  1  -0.05449  0  -0.087556  -0.102676  0  3.991342  0
C  C89  1  0.42418693  0.73342622  0.27571333  1  -0.053851  0  -0.08747  -0.102475  0  3.991543  0
C  C90  1  0.92418175  0.23342489  0.22428083  1  -0.054508  0  -0.087491  -0.102429  0  3.991559  0
C  C91  1  0.57581419  0.26657962  0.72428614  1  -0.053828  0  -0.087414  -0.102271  0  3.991246  0
C  C92  1  0.05330868  0.63610616  0.88451598  1  1.563059  0  0.235664  0.623776  0  4.1516  0
C  C93  1  0.44670029  0.86389061  0.38451756  1  1.563257  0  0.235654  0.62358  0  4.151458  0
C  C94  1  0.94667808  0.36388704  0.11547552  1  1.563091  0  0.235484  0.623408  0  4.152158  0
C  C95  1  0.55331316  0.13610987  0.61548007  1  1.563019  0  0.235684  0.623803  0  4.151636  0
C  C96  1  0.35359042  0.86808200  0.61136268  1  1.600464  0  0.235901  0.63326  0  4.159937  0
C  C97  1  0.14640326  0.63191794  0.11136325  1  1.60095  0  0.236  0.633423  0  4.159882  0
C  C98  1  0.64640373  0.13191414  0.38863679  1  1.600992  0  0.23595  0.633277  0  4.159983  0
C  C99  1  0.85359740  0.36808415  0.88863560  1  1.601004  0  0.23588  0.633181  0  4.160044  0
C  C100  1  0.50804818  0.53539006  0.96220263  1  1.584106  0  0.222613  0.493345  0  4.211278  0
C  C101  1  0.99196396  0.96460705  0.46220722  1  1.602972  0  0.222643  0.493232  0  4.211525  0
C  C102  1  0.49195729  0.46460599  0.03778948  1  1.603035  0  0.222768  0.493502  0  4.211173  0
C  C103  1  0.00806403  0.03539106  0.53779532  1  1.584445  0  0.22265  0.493429  0  4.211158  0
C  C104  1  0.78679725  0.74122320  0.14056128  1  1.763057  0  0.343441  0.529705  0  4.170176  0
C  C105  1  0.71320626  0.75878037  0.64056024  1  1.762964  0  0.343392  0.529683  0  4.170346  0
C  C106  1  0.21320460  0.25878188  0.85943941  1  1.762959  0  0.343358  0.529584  0  4.170425  0
C  C107  1  0.28678542  0.24122254  0.35944230  1  1.762936  0  0.343431  0.529922  0  4.170063  0
C  C108  1  0.89032338  0.92197972  0.16554324  1  0.290035  0  -0.054893  -0.044178  0  3.941113  0
C  C109  1  0.60968218  0.57802404  0.66554246  1  0.289951  0  -0.054925  -0.044234  0  3.941309  0
C  C110  1  0.10968020  0.07801934  0.83445623  1  0.289947  0  -0.054941  -0.044296  0  3.941222  0
C  C111  1  0.39031289  0.42197960  0.33446130  1  0.289523  0  -0.054867  -0.043984  0  3.941177  0
C  C112  1  0.80947112  0.90411774  0.24632535  1  0.00229  0  -0.158345  -0.197046  0  3.961127  0
C  C113  1  0.69052982  0.59588296  0.74632334  1  0.002526  0  -0.158323  -0.196972  0  3.961227  0
C  C114  1  0.19053499  0.09588506  0.75367412  1  0.002355  0  -0.158342  -0.196924  0  3.961161  0
C  C115  1  0.30946037  0.40411621  0.25367919  1  0.002304  0  -0.158404  -0.19726  0  3.961279  0
C  C116  1  0.81796635  0.80553427  0.28330262  1  0.304518  0  -0.061391  -0.058652  0  3.921434  0
C  C117  1  0.68203826  0.69446820  0.78330183  1  0.304395  0  -0.061421  -0.058821  0  3.921572  0
C  C118  1  0.18203902  0.19446928  0.71670053  1  0.304567  0  -0.061423  -0.058837  0  3.921573  0
C  C119  1  0.31795223  0.30553172  0.21670193  1  0.304485  0  -0.061381  -0.058676  0  3.921282  0
C  C120  1  0.86256598  0.84922627  0.02331340  1  0.230068  0  -0.130257  -0.258294  0  3.939395  0
C  C121  1  0.63743402  0.65077262  0.52331302  1  0.230005  0  -0.130223  -0.258202  0  3.93932  0
C  C122  1  0.13742966  0.15077361  0.97668668  1  0.229495  0  -0.130222  -0.258177  0  3.939326  0
C  C123  1  0.36256012  0.34922352  0.47669013  1  0.231213  0  -0.130102  -0.257797  0  3.939235  0
C  C124  1  0.73825578  0.62329648  0.25414816  1  0.277074  0  -0.128018  -0.256296  0  3.94022  0
C  C125  1  0.76174695  0.87670878  0.75414776  1  0.277235  0  -0.128075  -0.256346  0  3.940082  0
C  C126  1  0.26175135  0.37670631  0.74585315  1  0.277446  0  -0.128068  -0.2563  0  3.940139  0
C  C127  1  0.23824989  0.12329410  0.24585477  1  0.277223  0  -0.128043  -0.256229  0  3.940284  0
N  N128  1  0.83702003  0.83620060  0.11123462  1  -1.138065  0  -0.288772  -0.115715  0  3.630306  0
N  N129  1  0.66298040  0.66380276  0.61123429  1  -1.137938  0  -0.28873  -0.115723  0  3.630346  0
N  N130  1  0.16297916  0.16380300  0.88876485  1  -1.137848  0  -0.288751  -0.115793  0  3.630176  0
N  N131  1  0.33701128  0.33620016  0.38876824  1  -1.137955  0  -0.288782  -0.116048  0  3.630478  0
N  N132  1  0.77491573  0.72504994  0.22285581  1  -1.182344  0  -0.291154  -0.12113  0  3.660245  0
N  N133  1  0.72508921  0.77495279  0.72285546  1  -1.182375  0  -0.291091  -0.121104  0  3.660146  0
N  N134  1  0.22508964  0.27495361  0.77714550  1  -1.182459  0  -0.291033  -0.120943  0  3.660281  0
N  N135  1  0.27490201  0.22504638  0.27714707  1  -1.182424  0  -0.291031  -0.121106  0  3.660164  0
O  O136  1  0.94420889  0.65972380  0.91303034  1  -1.198763  0  -0.356099  -0.59063  0  2.233192  0
O  O137  1  0.55580079  0.84027443  0.41303290  1  -1.198982  0  -0.356021  -0.590585  0  2.233363  0
O  O138  1  0.05578585  0.34027384  0.08696361  1  -1.198816  0  -0.356025  -0.59053  0  2.233487  0
O  O139  1  0.44421399  0.15972679  0.58696718  1  -1.198786  0  -0.356098  -0.590607  0  2.23328  0
O  O140  1  0.09668339  0.56379024  0.91328206  1  -1.235603  0  -0.37803  -0.64549  0  2.354728  0
O  O141  1  0.40332972  0.93621199  0.41327739  1  -1.235547  0  -0.378093  -0.645389  0  2.354496  0
O  O142  1  0.90330989  0.43620891  0.08672415  1  -1.235615  0  -0.377948  -0.645298  0  2.354949  0
O  O143  1  0.59667930  0.06378778  0.58671594  1  -1.23566  0  -0.378029  -0.645504  0  2.354717  0
O  O144  1  0.29677187  0.93286800  0.58127977  1  -1.215228  0  -0.37339  -0.625572  0  2.31478  0
O  O145  1  0.20322936  0.56713764  0.08127803  1  -1.215373  0  -0.373367  -0.62559  0  2.314689  0
O  O146  1  0.70322835  0.06713560  0.41872277  1  -1.215434  0  -0.37338  -0.625531  0  2.31479  0
O  O147  1  0.79678179  0.43287262  0.91871714  1  -1.215117  0  -0.37332  -0.625482  0  2.314669  0
O  O148  1  0.47223933  0.85341226  0.58872768  1  -1.213458  0  -0.366372  -0.625227  0  2.279747  0
O  O149  1  0.02776236  0.64659718  0.08872848  1  -1.213444  0  -0.366449  -0.625304  0  2.279813  0
O  O150  1  0.52775883  0.14659135  0.41127057  1  -1.213441  0  -0.366405  -0.625259  0  2.279846  0
O  O151  1  0.97224776  0.35341309  0.91126301  1  -1.21375  0  -0.366404  -0.625163  0  2.279911  0
O  O152  1  0.39315293  0.54298224  0.92851689  1  -1.197175  0  -0.356086  -0.571552  0  2.275893  0
O  O153  1  0.10686203  0.95701183  0.42852254  1  -1.19738  0  -0.356176  -0.571624  0  2.276037  0
O  O154  1  0.60685108  0.45701531  0.07147277  1  -1.197223  0  -0.356152  -0.571618  0  2.276005  0
O  O155  1  0.89315769  0.04298109  0.57148184  1  -1.197175  0  -0.356126  -0.571631  0  2.275663  0
O  O156  1  0.63410215  0.57941658  0.94013206  1  -1.181566  0  -0.340591  -0.541336  0  2.317138  0
O  O157  1  0.86591568  0.92059456  0.44013286  1  -1.181414  0  -0.340498  -0.541141  0  2.317256  0
O  O158  1  0.36590219  0.42058698  0.05986435  1  -1.181664  0  -0.340671  -0.541364  0  2.316955  0
O  O159  1  0.13410560  0.07941261  0.55986784  1  -1.181934  0  -0.340628  -0.541353  0  2.317317  0
O  O160  1  0.74860529  0.66888969  0.09053557  1  -1.221724  0  -0.385509  -0.623777  0  2.356896  0
O  O161  1  0.75139249  0.83111202  0.59053491  1  -1.221654  0  -0.385496  -0.623764  0  2.357077  0
O  O162  1  0.25139669  0.33111314  0.90946574  1  -1.221722  0  -0.385528  -0.62373  0  2.357014  0
O  O163  1  0.24860624  0.16888783  0.40946702  1  -1.221745  0  -0.385557  -0.623912  0  2.356828  0
