# generated using pymatgen
data_CdH5C7SN6Cl
_symmetry_space_group_name_H-M   'P 1'
_cell_length_a   7.98910845
_cell_length_b   10.61353731
_cell_length_c   14.51638558
_cell_angle_alpha   84.05285372
_cell_angle_beta   74.04981452
_cell_angle_gamma   67.90965177
_symmetry_Int_Tables_number   1
_chemical_formula_structural   CdH5C7SN6Cl
_chemical_formula_sum   'Cd4 H20 C28 S4 N24 Cl4'
_cell_volume   1096.61761487
_cell_formula_units_Z   4
loop_
 _symmetry_equiv_pos_site_id
 _symmetry_equiv_pos_as_xyz
  1  'x, y, z'
loop_
 _atom_site_type_symbol
 _atom_site_label
 _atom_site_symmetry_multiplicity
 _atom_site_fract_x
 _atom_site_fract_y
 _atom_site_fract_z
 _atom_site_occupancy
 _atom_site_hle17_bader_spin_density
 _atom_site_hle17_ddec_charge
 _atom_site_hle17_ddec_spin_density
 _atom_site_hle17_ddec_sum_bond_order
 _atom_site_hle17_magmom
 _atom_site_hse06_10hf_bader_spin_density
 _atom_site_hse06_10hf_ddec_charge
 _atom_site_hse06_10hf_ddec_spin_density
 _atom_site_hse06_10hf_ddec_sum_bond_order
 _atom_site_hse06_10hf_magmom
 _atom_site_hse06_bader_spin_density
 _atom_site_hse06_ddec_charge
 _atom_site_hse06_ddec_spin_density
 _atom_site_hse06_ddec_sum_bond_order
 _atom_site_hse06_magmom
 _atom_site_pbe_bader_spin_density
 _atom_site_pbe_cm5_charge
 _atom_site_pbe_ddec_charge
 _atom_site_pbe_ddec_spin_density
 _atom_site_pbe_ddec_sum_bond_order
 _atom_site_pbe_magmom
Cd  Cd0  1  0.33818812  0.12720554  0.55430818  1  0  0.919862  0  1.969911  0  0  0.741514  0  2.432479  0  0  0.788064  0  2.394112  0  0  0.640989  0.708602  0  2.458565  0
Cd  Cd1  1  0.02012488  0.87273376  0.44553531  1  0  0.919799  0  1.970022  0  0  0.741236  0  2.432788  0  0  0.78782  0  2.394382  0  0  0.640864  0.708312  0  2.459285  0
Cd  Cd2  1  0.64282541  0.62718760  0.94556120  1  0  0.920822  0  1.969273  0  0  0.742305  0  2.432037  0  0  0.788905  0  2.393545  0  0  0.641195  0.709366  0  2.458213  0
Cd  Cd3  1  0.21573607  0.37287865  0.05441584  1  0  0.919589  0  1.97068  0  0  0.741059  0  2.433398  0  0  0.787601  0  2.395063  0  0  0.640691  0.708167  0  2.45984  0
H  H4  1  0.64247246  0.49773355  0.60776561  1  0  0.303521  0  0.956004  0  0  0.272369  0  1.034101  0  0  0.282231  0  1.026135  0  0  0.308848  0.265503  0  1.039581  0
H  H5  1  0.74844368  0.50213230  0.39235188  1  0  0.30419  0  0.955053  0  0  0.273505  0  1.032279  0  0  0.283409  0  1.024264  0  0  0.308966  0.266562  0  1.037856  0
H  H6  1  0.00060136  0.99779246  0.89241504  1  0  0.30555  0  0.95422  0  0  0.275081  0  1.030955  0  0  0.284963  0  1.022941  0  0  0.309408  0.268209  0  1.036463  0
H  H7  1  0.89095106  0.00218553  0.10761244  1  0  0.305667  0  0.954114  0  0  0.274503  0  1.032158  0  0  0.284379  0  1.02417  0  0  0.309169  0.267527  0  1.037843  0
H  H8  1  0.05645525  0.54377925  0.80766219  1  0  0.102716  0  0.937234  0  0  0.105052  0  1.009108  0  0  0.108374  0  1.006598  0  0  0.120261  0.102639  0  1.011084  0
H  H9  1  0.40806480  0.45605278  0.19248667  1  0  0.103693  0  0.935928  0  0  0.105725  0  1.007901  0  0  0.109122  0  1.0053  0  0  0.120544  0.103286  0  1.009823  0
H  H10  1  0.61437723  0.04406490  0.69236005  1  0  0.102698  0  0.935786  0  0  0.104566  0  1.008403  0  0  0.10796  0  1.005823  0  0  0.12057  0.102145  0  1.010383  0
H  H11  1  0.35110090  0.95585967  0.30739484  1  0  0.101657  0  0.936797  0  0  0.104748  0  1.007725  0  0  0.108026  0  1.005237  0  0  0.120076  0.10242  0  1.009537  0
H  H12  1  0.65834914  0.37342623  0.82330543  1  0  0.097168  0  0.948867  0  0  0.103059  0  1.014897  0  0  0.106278  0  1.012515  0  0  0.110174  0.100711  0  1.016672  0
H  H13  1  0.85545459  0.62665695  0.17668592  1  0  0.096249  0  0.94855  0  0  0.102019  0  1.014644  0  0  0.105248  0  1.012262  0  0  0.109606  0.099724  0  1.016386  0
H  H14  1  0.23206365  0.87368833  0.67653664  1  0  0.098564  0  0.948966  0  0  0.104541  0  1.014704  0  0  0.107685  0  1.012422  0  0  0.110527  0.102227  0  1.016429  0
H  H15  1  0.78274329  0.12659755  0.32324886  1  0  0.097426  0  0.949807  0  0  0.103349  0  1.015477  0  0  0.106593  0  1.013077  0  0  0.109966  0.101023  0  1.017269  0
H  H16  1  0.89348603  0.19662344  0.69866549  1  0  0.093262  0  0.95848  0  0  0.095454  0  1.031956  0  0  0.098657  0  1.02916  0  0  0.11113  0.092946  0  1.03442  0
H  H17  1  0.78949012  0.80326915  0.30142010  1  0  0.09241  0  0.959496  0  0  0.094779  0  1.032958  0  0  0.098053  0  1.030055  0  0  0.110773  0.092401  0  1.035176  0
H  H18  1  0.34251787  0.69690392  0.80126539  1  0  0.093341  0  0.958617  0  0  0.095608  0  1.03222  0  0  0.098831  0  1.029408  0  0  0.11112  0.093074  0  1.034724  0
H  H19  1  0.84122399  0.30345166  0.19864636  1  0  0.092536  0  0.959079  0  0  0.094785  0  1.032506  0  0  0.098048  0  1.029636  0  0  0.110677  0.092425  0  1.034697  0
H  H20  1  0.74617396  0.25720488  0.53061610  1  0  0.106986  0  0.940457  0  0  0.111792  0  1.011004  0  0  0.114364  0  1.007883  0  0  0.13235  0.109863  0  1.013256  0
H  H21  1  0.53493106  0.74279317  0.46941758  1  0  0.107467  0  0.942972  0  0  0.112529  0  1.012836  0  0  0.114951  0  1.009915  0  0  0.132416  0.110694  0  1.014938  0
H  H22  1  0.02751576  0.75707254  0.96945363  1  0  0.108199  0  0.941709  0  0  0.113338  0  1.011722  0  0  0.115779  0  1.008735  0  0  0.13329  0.111483  0  1.013907  0
H  H23  1  0.75438645  0.24292579  0.03054923  1  0  0.106975  0  0.942316  0  0  0.111949  0  1.012421  0  0  0.114484  0  1.009375  0  0  0.132544  0.110063  0  1.014576  0
C  C24  1  0.01818580  0.46809504  0.78207826  1  0  0.0808  0  3.627117  0  0  0.041464  0  3.883411  0  0  0.044743  0  3.899406  0  0  0.066298  0.03928  0  3.872808  0
C  C25  1  0.26866756  0.53178613  0.21806001  1  0  0.079246  0  3.629002  0  0  0.040524  0  3.884556  0  0  0.043816  0  3.900482  0  0  0.065733  0.038268  0  3.874173  0
C  C26  1  0.55058431  0.96835455  0.71793462  1  0  0.083728  0  3.627362  0  0  0.044474  0  3.883908  0  0  0.047771  0  3.899855  0  0  0.066694  0.042244  0  3.873321  0
C  C27  1  0.23720915  0.03165983  0.28185955  1  0  0.08172  0  3.626236  0  0  0.042157  0  3.882228  0  0  0.045522  0  3.89828  0  0  0.066046  0.039862  0  3.87175  0
C  C28  1  0.79950314  0.37204904  0.79089149  1  0  0.090761  0  3.635392  0  0  0.057622  0  3.892687  0  0  0.061109  0  3.908995  0  0  0.054395  0.055309  0  3.881686  0
C  C29  1  0.96286264  0.62793522  0.20914471  1  0  0.092082  0  3.636247  0  0  0.059175  0  3.893337  0  0  0.062654  0  3.909669  0  0  0.055314  0.056886  0  3.88232  0
C  C30  1  0.34078714  0.87231570  0.70900379  1  0  0.087827  0  3.638184  0  0  0.055017  0  3.895436  0  0  0.058549  0  3.911798  0  0  0.054017  0.052704  0  3.884357  0
C  C31  1  0.92255985  0.12790278  0.29079627  1  0  0.089712  0  3.63855  0  0  0.057096  0  3.895061  0  0  0.06056  0  3.911408  0  0  0.054592  0.054824  0  3.88405  0
C  C32  1  0.92727325  0.27656924  0.72199484  1  0  0.105328  0  3.655943  0  0  0.074414  0  3.916472  0  0  0.077668  0  3.932828  0  0  0.059375  0.072179  0  3.905572  0
C  C33  1  0.92647126  0.72333434  0.27806918  1  0  0.10625  0  3.658489  0  0  0.074774  0  3.918852  0  0  0.07801  0  3.935234  0  0  0.059682  0.072418  0  3.90798  0
C  C34  1  0.39963963  0.77684739  0.77794758  1  0  0.106729  0  3.660953  0  0  0.074831  0  3.921836  0  0  0.078079  0  3.938221  0  0  0.059483  0.072597  0  3.91091  0
C  C35  1  0.95492717  0.22344292  0.22193454  1  0  0.106042  0  3.658794  0  0  0.074908  0  3.919074  0  0  0.078146  0  3.935436  0  0  0.059461  0.07254  0  3.908207  0
C  C36  1  0.14563725  0.37382763  0.71125864  1  0  0.141198  0  3.752052  0  0  0.141876  0  3.992526  0  0  0.145591  0  4.010312  0  0  0.138139  0.138905  0  3.980776  0
C  C37  1  0.23122308  0.62600522  0.28891345  1  0  0.140158  0  3.755092  0  0  0.140521  0  3.995003  0  0  0.144085  0  4.01299  0  0  0.137686  0.137711  0  3.983305  0
C  C38  1  0.60722541  0.87408154  0.78881874  1  0  0.139429  0  3.757935  0  0  0.140184  0  3.997268  0  0  0.143746  0  4.015344  0  0  0.138065  0.137299  0  3.985376  0
C  C39  1  0.27049819  0.12605432  0.21109257  1  0  0.140237  0  3.755599  0  0  0.141468  0  3.99578  0  0  0.14508  0  4.013762  0  0  0.138596  0.138549  0  3.984206  0
C  C40  1  0.33270700  0.37359814  0.66663528  1  0  0.242897  0  3.823632  0  0  0.217552  0  4.099591  0  0  0.226893  0  4.116485  0  0  0.207641  0.211573  0  4.088004  0
C  C41  1  0.37342066  0.62626830  0.33354065  1  0  0.242044  0  3.826114  0  0  0.217165  0  4.101425  0  0  0.226645  0  4.118196  0  0  0.207198  0.210972  0  4.089991  0
C  C42  1  0.74971318  0.87371723  0.83346943  1  0  0.241722  0  3.826517  0  0  0.217121  0  4.101367  0  0  0.226529  0  4.11822  0  0  0.207128  0.211097  0  4.089811  0
C  C43  1  0.45725941  0.12636578  0.16650617  1  0  0.244949  0  3.824197  0  0  0.218347  0  4.101757  0  0  0.227719  0  4.118683  0  0  0.207476  0.212252  0  4.090227  0
C  C44  1  0.61084133  0.31120837  0.57822097  1  0  0.237848  0  3.629558  0  0  0.174104  0  3.899302  0  0  0.188426  0  3.911142  0  0  0.163634  0.16498  0  3.890838  0
C  C45  1  0.50102976  0.68878499  0.42184677  1  0  0.235283  0  3.633633  0  0  0.171255  0  3.903303  0  0  0.185651  0  3.915209  0  0  0.162404  0.162175  0  3.894721  0
C  C46  1  0.93975888  0.81108670  0.92181140  1  0  0.238843  0  3.629905  0  0  0.174678  0  3.899991  0  0  0.189152  0  3.911817  0  0  0.163566  0.165478  0  3.891508  0
C  C47  1  0.67301846  0.18890663  0.07816448  1  0  0.239284  0  3.63096  0  0  0.175707  0  3.900373  0  0  0.190008  0  3.912223  0  0  0.163743  0.166673  0  3.891849  0
C  C48  1  0.10642194  0.34356063  0.40578543  1  0  0.289969  0  3.998575  0  0  0.273007  0  4.307502  0  0  0.292544  0  4.32327  0  0  0.132139  0.259647  0  4.296779  0
C  C49  1  0.85612860  0.65614185  0.59417806  1  0  0.290442  0  4.00377  0  0  0.273385  0  4.312685  0  0  0.292869  0  4.328501  0  0  0.132727  0.260105  0  4.301737  0
C  C50  1  0.26244006  0.84351070  0.09407838  1  0  0.293971  0  3.999515  0  0  0.277027  0  4.308155  0  0  0.296584  0  4.323894  0  0  0.134493  0.263666  0  4.297413  0
C  C51  1  0.19995261  0.15644410  0.90605019  1  0  0.29304  0  3.997774  0  0  0.276059  0  4.306706  0  0  0.295549  0  4.32244  0  0  0.133635  0.262778  0  4.295802  0
S  S52  1  0.32966617  0.28398757  0.40127608  1  0  -0.341789  0  2.214658  0  0  -0.306613  0  2.546593  0  0  -0.326805  0  2.543267  0  0  -0.160571  -0.292475  0  2.548874  0
S  S53  1  0.01513882  0.71596624  0.59863737  1  0  -0.341486  0  2.214291  0  0  -0.306082  0  2.545968  0  0  -0.326234  0  2.542669  0  0  -0.16069  -0.292112  0  2.548281  0
S  S54  1  0.48118330  0.78396013  0.09855957  1  0  -0.342284  0  2.215009  0  0  -0.307214  0  2.546966  0  0  -0.327411  0  2.543615  0  0  -0.160579  -0.293077  0  2.549309  0
S  S55  1  0.36361788  0.21614501  0.90139534  1  0  -0.341791  0  2.214259  0  0  -0.306545  0  2.546138  0  0  -0.326694  0  2.542839  0  0  -0.160401  -0.292538  0  2.548389  0
N  N56  1  0.09801975  0.27901589  0.68152028  1  0  -0.284058  0  3.172254  0  0  -0.223836  0  3.42727  0  0  -0.237479  0  3.444787  0  0  -0.297913  -0.214406  0  3.41525  0
N  N57  1  0.05917681  0.72083319  0.31859675  1  0  -0.283954  0  3.17413  0  0  -0.222992  0  3.428243  0  0  -0.236619  0  3.445894  0  0  -0.298176  -0.213539  0  3.416652  0
N  N58  1  0.52986893  0.77926027  0.81849768  1  0  -0.284724  0  3.176905  0  0  -0.223478  0  3.430951  0  0  -0.237083  0  3.448518  0  0  -0.298019  -0.214076  0  3.41891  0
N  N59  1  0.12808801  0.22097112  0.18143248  1  0  -0.283448  0  3.176578  0  0  -0.222926  0  3.430722  0  0  -0.236554  0  3.448373  0  0  -0.297888  -0.213451  0  3.419159  0
N  N60  1  0.84631792  0.46728071  0.82027405  1  0  -0.25773  0  3.247851  0  0  -0.186562  0  3.511485  0  0  -0.201486  0  3.531232  0  0  -0.305446  -0.176118  0  3.497802  0
N  N61  1  0.13418001  0.53269560  0.17978553  1  0  -0.256699  0  3.250155  0  0  -0.185516  0  3.512552  0  0  -0.200421  0  3.53237  0  0  -0.304854  -0.175212  0  3.499259  0
N  N62  1  0.41697866  0.96753439  0.67965452  1  0  -0.25783  0  3.250379  0  0  -0.186609  0  3.513439  0  0  -0.201523  0  3.533206  0  0  -0.305437  -0.176169  0  3.499738  0
N  N63  1  0.06451821  0.03251752  0.32009882  1  0  -0.257058  0  3.248472  0  0  -0.18647  0  3.511833  0  0  -0.201365  0  3.531584  0  0  -0.305005  -0.176172  0  3.49858  0
N  N64  1  0.46563418  0.27047245  0.60781062  1  0  -0.440602  0  3.163928  0  0  -0.374166  0  3.438599  0  0  -0.395546  0  3.453878  0  0  -0.344531  -0.3595  0  3.427539  0
N  N65  1  0.34459858  0.72948174  0.39230530  1  0  -0.439196  0  3.163645  0  0  -0.373281  0  3.438495  0  0  -0.394697  0  3.453679  0  0  -0.34385  -0.358676  0  3.427644  0
N  N66  1  0.82400488  0.77043956  0.89221902  1  0  -0.440864  0  3.16219  0  0  -0.374905  0  3.436942  0  0  -0.396302  0  3.452131  0  0  -0.34496  -0.36022  0  3.425923  0
N  N67  1  0.48710066  0.22961324  0.10774215  1  0  -0.443269  0  3.162832  0  0  -0.376802  0  3.437951  0  0  -0.398178  0  3.453171  0  0  -0.344987  -0.362227  0  3.427079  0
N  N68  1  0.56565478  0.43217040  0.61856290  1  0  -0.169287  0  3.446063  0  0  -0.100126  0  3.690345  0  0  -0.115525  0  3.707909  0  0  -0.249441  -0.089873  0  3.67831  0
N  N69  1  0.61694768  0.56779349  0.38153938  1  0  -0.169195  0  3.444538  0  0  -0.10015  0  3.688342  0  0  -0.115547  0  3.705845  0  0  -0.249413  -0.089826  0  3.676275  0
N  N70  1  0.93479141  0.93213087  0.88153006  1  0  -0.173409  0  3.446028  0  0  -0.104275  0  3.689961  0  0  -0.119738  0  3.707439  0  0  -0.250313  -0.093986  0  3.677965  0
N  N71  1  0.74869166  0.06786045  0.11844661  1  0  -0.17162  0  3.445349  0  0  -0.102742  0  3.690041  0  0  -0.118118  0  3.707529  0  0  -0.250317  -0.092402  0  3.678049  0
N  N72  1  0.38969197  0.47405700  0.67518577  1  0  -0.236135  0  2.846353  0  0  -0.232275  0  3.118196  0  0  -0.23835  0  3.132242  0  0  -0.213282  -0.228143  0  3.108849  0
N  N73  1  0.53932617  0.52582821  0.32499070  1  0  -0.235256  0  2.846936  0  0  -0.231684  0  3.118601  0  0  -0.237828  0  3.132652  0  0  -0.212612  -0.22746  0  3.109122  0
N  N74  1  0.81526702  0.97416344  0.82494283  1  0  -0.235431  0  2.846414  0  0  -0.232141  0  3.118361  0  0  -0.238211  0  3.132416  0  0  -0.21378  -0.228004  0  3.109007  0
N  N75  1  0.61462599  0.02587224  0.17502466  1  0  -0.23606  0  2.846533  0  0  -0.231761  0  3.118706  0  0  -0.237886  0  3.132783  0  0  -0.212811  -0.227543  0  3.109186  0
N  N76  1  0.94676497  0.38773921  0.40603703  1  0  -0.509496  0  2.756386  0  0  -0.475937  0  2.999076  0  0  -0.492698  0  3.009717  0  0  -0.367133  -0.46449  0  2.991901  0
N  N77  1  0.74092537  0.61184588  0.59400137  1  0  -0.51043  0  2.760575  0  0  -0.476547  0  3.003158  0  0  -0.493275  0  3.013847  0  0  -0.368033  -0.465126  0  2.995819  0
N  N78  1  0.10296881  0.88765818  0.09389560  1  0  -0.51394  0  2.756035  0  0  -0.480151  0  2.998995  0  0  -0.496914  0  3.009611  0  0  -0.369847  -0.468669  0  2.991846  0
N  N79  1  0.08443702  0.11225277  0.90631065  1  0  -0.512683  0  2.755321  0  0  -0.47926  0  2.998208  0  0  -0.495962  0  3.008796  0  0  -0.368916  -0.467868  0  2.990933  0
Cl  Cl80  1  0.07803611  0.03794454  0.54800428  1  0  -0.572537  0  1.002134  0  0  -0.50934  0  1.293911  0  0  -0.526642  0  1.271177  0  0  -0.306308  -0.496663  0  1.309603  0
Cl  Cl81  1  0.66428770  0.96221136  0.45194678  1  0  -0.573356  0  1.00045  0  0  -0.510346  0  1.292029  0  0  -0.527698  0  1.269272  0  0  -0.306826  -0.497639  0  1.307552  0
Cl  Cl82  1  0.37610771  0.53807845  0.95202225  1  0  -0.572749  0  1.002203  0  0  -0.50955  0  1.294052  0  0  -0.526889  0  1.271355  0  0  -0.30642  -0.496872  0  1.309759  0
Cl  Cl83  1  0.86627477  0.46214846  0.04798967  1  0  -0.573522  0  1.001634  0  0  -0.510494  0  1.293428  0  0  -0.527848  0  1.270666  0  0  -0.306755  -0.497811  0  1.308953  0
