# generated using pymatgen
data_SnH14C10NClO2
_symmetry_space_group_name_H-M   'P 1'
_cell_length_a   6.47222297
_cell_length_b   9.79987149
_cell_length_c   11.06153712
_cell_angle_alpha   67.40083691
_cell_angle_beta   75.89471955
_cell_angle_gamma   73.98760389
_symmetry_Int_Tables_number   1
_chemical_formula_structural   SnH14C10NClO2
_chemical_formula_sum   'Sn2 H28 C20 N2 Cl2 O4'
_cell_volume   615.05578754
_cell_formula_units_Z   2
loop_
 _symmetry_equiv_pos_site_id
 _symmetry_equiv_pos_as_xyz
  1  'x, y, z'
loop_
 _atom_site_type_symbol
 _atom_site_label
 _atom_site_symmetry_multiplicity
 _atom_site_fract_x
 _atom_site_fract_y
 _atom_site_fract_z
 _atom_site_occupancy
 _atom_site_hle17_bader_spin_density
 _atom_site_hle17_ddec_charge
 _atom_site_hle17_ddec_spin_density
 _atom_site_hle17_ddec_sum_bond_order
 _atom_site_hle17_magmom
 _atom_site_hse06_10hf_bader_spin_density
 _atom_site_hse06_10hf_ddec_charge
 _atom_site_hse06_10hf_ddec_spin_density
 _atom_site_hse06_10hf_ddec_sum_bond_order
 _atom_site_hse06_10hf_magmom
 _atom_site_hse06_bader_spin_density
 _atom_site_hse06_ddec_charge
 _atom_site_hse06_ddec_spin_density
 _atom_site_hse06_ddec_sum_bond_order
 _atom_site_hse06_magmom
 _atom_site_pbe_bader_spin_density
 _atom_site_pbe_cm5_charge
 _atom_site_pbe_ddec_charge
 _atom_site_pbe_ddec_spin_density
 _atom_site_pbe_ddec_sum_bond_order
 _atom_site_pbe_magmom
Sn  Sn0  1  0.94541525  0.88951821  0.37113589  1  0  1.364747  0  2.880262  0  0  1.235608  0  3.364599  0  0  1.274478  0  3.349079  0  0  0.51678  1.209333  0  3.37394  0
Sn  Sn1  1  0.47812352  0.35639703  0.51478447  1  0  1.366156  0  2.885206  0  0  1.237785  0  3.36674  0  0  1.276419  0  3.351444  0  0  0.514011  1.211664  0  3.376378  0
H  H2  1  0.40991587  0.40919399  0.23597217  1  0  0.100403  0  0.954964  0  0  0.116369  0  1.015204  0  0  0.117934  0  1.01529  0  0  0.103738  0.115286  0  1.015192  0
H  H3  1  0.63407140  0.38391859  0.11309215  1  0  0.123469  0  0.955303  0  0  0.13264  0  1.025853  0  0  0.134751  0  1.025133  0  0  0.106467  0.130832  0  1.026841  0
H  H4  1  0.09960294  0.49488500  0.13456973  1  0  0.075172  0  0.939819  0  0  0.083454  0  1.00519  0  0  0.086159  0  1.003299  0  0  0.11001  0.081514  0  1.006571  0
H  H5  1  0.57144485  0.11597951  0.06276276  1  0  0.102672  0  0.978574  0  0  0.104748  0  1.052621  0  0  0.108964  0  1.048697  0  0  0.099567  0.101742  0  1.055415  0
H  H6  1  0.31606780  0.09875710  0.93217521  1  0  0.114718  0  1.003305  0  0  0.110902  0  1.084249  0  0  0.115737  0  1.081421  0  0  0.09765  0.107681  0  1.085711  0
H  H7  1  0.00768150  0.61364293  0.79096561  1  0  0.120713  0  0.948106  0  0  0.131004  0  1.017112  0  0  0.132675  0  1.016963  0  0  0.105481  0.129913  0  1.01725  0
H  H8  1  0.99484302  0.79733526  0.67223650  1  0  0.104411  0  0.94719  0  0  0.118891  0  1.008673  0  0  0.120649  0  1.008452  0  0  0.103502  0.117713  0  1.008739  0
H  H9  1  0.07500193  0.94872905  0.76945527  1  0  0.073714  0  0.948862  0  0  0.079211  0  1.019972  0  0  0.082326  0  1.017293  0  0  0.107881  0.0766  0  1.02268  0
H  H10  1  0.47596513  0.50448678  0.82299411  1  0  0.107125  0  0.965786  0  0  0.112082  0  1.034419  0  0  0.115384  0  1.03225  0  0  0.104188  0.109546  0  1.036275  0
H  H11  1  0.70670254  0.56705770  0.93968844  1  0  0.106611  0  1.016723  0  0  0.103321  0  1.099271  0  0  0.108494  0  1.095473  0  0  0.095323  0.099581  0  1.10214  0
H  H12  1  0.19345782  0.70233645  0.23949852  1  0  0.147966  0  1.005316  0  0  0.165816  0  1.065565  0  0  0.168461  0  1.065867  0  0  0.080469  0.163946  0  1.065388  0
H  H13  1  0.10739071  0.88439666  0.12159898  1  0  0.15998  0  0.996609  0  0  0.174157  0  1.059283  0  0  0.176733  0  1.060354  0  0  0.081904  0.17256  0  1.058177  0
H  H14  1  0.92314976  0.75800062  0.20032121  1  0  0.146247  0  1.011978  0  0  0.162652  0  1.074481  0  0  0.165045  0  1.075322  0  0  0.076061  0.161049  0  1.073784  0
H  H15  1  0.72879256  0.69692438  0.58163057  1  0  0.154249  0  0.989199  0  0  0.173452  0  1.044234  0  0  0.17581  0  1.045422  0  0  0.08343  0.171677  0  1.043808  0
H  H16  1  0.54632993  0.82122846  0.46880551  1  0  0.158175  0  0.994175  0  0  0.178147  0  1.048657  0  0  0.180706  0  1.049697  0  0  0.08708  0.176291  0  1.047956  0
H  H17  1  0.61841551  0.88679923  0.57943720  1  0  0.158272  0  0.992019  0  0  0.175823  0  1.050225  0  0  0.178117  0  1.051844  0  0  0.085009  0.17432  0  1.049087  0
H  H18  1  0.14635426  0.00006432  0.49208648  1  0  0.144758  0  1.000951  0  0  0.163967  0  1.059509  0  0  0.166138  0  1.060439  0  0  0.083036  0.162287  0  1.059146  0
H  H19  1  0.06382159  0.14621585  0.34469419  1  0  0.153343  0  1.002073  0  0  0.170288  0  1.060505  0  0  0.172513  0  1.06225  0  0  0.083882  0.168676  0  1.05958  0
H  H20  1  0.30230035  0.00304290  0.33440710  1  0  0.154922  0  0.994387  0  0  0.174702  0  1.048004  0  0  0.177058  0  1.049185  0  0  0.085722  0.173081  0  1.047026  0
H  H21  1  0.65906676  0.21965132  0.74053462  1  0  0.148347  0  1.012833  0  0  0.163808  0  1.075972  0  0  0.166124  0  1.076922  0  0  0.073881  0.162175  0  1.07545  0
H  H22  1  0.80612421  0.13437418  0.61846648  1  0  0.148334  0  1.000884  0  0  0.166305  0  1.060406  0  0  0.168795  0  1.061047  0  0  0.081274  0.164612  0  1.059913  0
H  H23  1  0.55180508  0.08747586  0.71186694  1  0  0.152461  0  1.016194  0  0  0.165287  0  1.081084  0  0  0.167948  0  1.082071  0  0  0.079079  0.163335  0  1.080877  0
H  H24  1  0.04483341  0.36401432  0.58815111  1  0  0.147845  0  1.010811  0  0  0.162775  0  1.07355  0  0  0.16546  0  1.074284  0  0  0.078531  0.160668  0  1.073396  0
H  H25  1  0.15750290  0.24288326  0.49104660  1  0  0.152026  0  1.005803  0  0  0.171811  0  1.06064  0  0  0.174087  0  1.062082  0  0  0.082373  0.169962  0  1.060119  0
H  H26  1  0.10232592  0.44362758  0.41206720  1  0  0.147103  0  1.006492  0  0  0.165848  0  1.065412  0  0  0.16803  0  1.066678  0  0  0.082486  0.164253  0  1.064613  0
H  H27  1  0.78981404  0.46175627  0.30935800  1  0  0.148071  0  1.00301  0  0  0.164566  0  1.06425  0  0  0.16685  0  1.065361  0  0  0.08109  0.162872  0  1.063644  0
H  H28  1  0.71135217  0.57734555  0.41155451  1  0  0.154872  0  0.997528  0  0  0.177015  0  1.049053  0  0  0.17926  0  1.050589  0  0  0.087033  0.175336  0  1.048035  0
H  H29  1  0.54359638  0.60276719  0.29547973  1  0  0.1471  0  1.013598  0  0  0.161752  0  1.077602  0  0  0.164735  0  1.077483  0  0  0.079664  0.159309  0  1.078388  0
C  C30  1  0.62226710  0.19050243  0.28099736  1  0  0.718389  0  3.797776  0  0  0.665709  0  4.098317  0  0  0.699877  0  4.089792  0  0  0.235484  0.642647  0  4.103363  0
C  C31  1  0.50258354  0.33040067  0.18424314  1  0  -0.309616  0  3.686663  0  0  -0.351562  0  3.924003  0  0  -0.357385  0  3.932808  0  0  -0.15461  -0.347547  0  3.918281  0
C  C32  1  0.15478362  0.40478368  0.09166873  1  0  0.067781  0  3.701232  0  0  0.03751  0  3.959631  0  0  0.042383  0  3.976184  0  0  0.041276  0.034353  0  3.948435  0
C  C33  1  0.35715786  0.30721318  0.10940650  1  0  0.074771  0  3.730839  0  0  0.096262  0  3.96803  0  0  0.09331  0  3.993056  0  0  -0.006171  0.098126  0  3.951162  0
C  C34  1  0.41614827  0.19502718  0.05091363  1  0  -0.058237  0  3.70951  0  0  -0.085988  0  3.962851  0  0  -0.084075  0  3.980903  0  0  -0.074314  -0.087156  0  3.950503  0
C  C35  1  0.27669245  0.18508744  0.97827835  1  0  -0.166381  0  3.729608  0  0  -0.180466  0  3.980896  0  0  -0.187919  0  4.000999  0  0  -0.087419  -0.175126  0  3.966792  0
C  C36  1  0.08161005  0.29097256  0.96616109  1  0  0.293846  0  3.801894  0  0  0.282927  0  4.083489  0  0  0.29401  0  4.099352  0  0  0.143513  0.274997  0  4.073179  0
C  C37  1  0.22221856  0.61805104  0.61279991  1  0  0.714798  0  3.799228  0  0  0.665299  0  4.095569  0  0  0.699574  0  4.08672  0  0  0.236181  0.642234  0  4.100994  0
C  C38  1  0.10737768  0.69237960  0.71656101  1  0  -0.308716  0  3.685338  0  0  -0.351789  0  3.924229  0  0  -0.356958  0  3.932215  0  0  -0.15465  -0.348224  0  3.918631  0
C  C39  1  0.21374689  0.86029080  0.80541657  1  0  0.06783  0  3.708985  0  0  0.034731  0  3.970489  0  0  0.039551  0  3.987033  0  0  0.042502  0.031433  0  3.959967  0
C  C40  1  0.25557584  0.72161678  0.78613306  1  0  0.076741  0  3.716362  0  0  0.096278  0  3.956938  0  0  0.093312  0  3.981303  0  0  -0.006406  0.09808  0  3.94037  0
C  C41  1  0.43565535  0.61378675  0.83615438  1  0  -0.050349  0  3.702379  0  0  -0.075945  0  3.951955  0  0  -0.073762  0  3.971366  0  0  -0.074218  -0.077202  0  3.938817  0
C  C42  1  0.56424549  0.64749770  0.90052583  1  0  -0.187689  0  3.761993  0  0  -0.203271  0  4.015636  0  0  -0.211826  0  4.036996  0  0  -0.096851  -0.197768  0  4.001541  0
C  C43  1  0.50442218  0.78961321  0.91373077  1  0  0.282161  0  3.818568  0  0  0.275995  0  4.092183  0  0  0.28625  0  4.109916  0  0  0.140381  0.268969  0  4.080491  0
C  C44  1  0.05617757  0.79729510  0.21379244  1  0  -0.712238  0  3.506171  0  0  -0.749903  0  3.7341  0  0  -0.763566  0  3.740409  0  0  -0.342312  -0.740296  0  3.728999  0
C  C45  1  0.67786207  0.81398836  0.51872074  1  0  -0.7218  0  3.523429  0  0  -0.764843  0  3.755036  0  0  -0.778651  0  3.762295  0  0  -0.339809  -0.755395  0  3.750083  0
C  C46  1  0.13750012  0.02687997  0.38751609  1  0  -0.711563  0  3.522128  0  0  -0.753063  0  3.752248  0  0  -0.766243  0  3.759168  0  0  -0.336731  -0.743903  0  3.747494  0
C  C47  1  0.64469675  0.17770450  0.66509194  1  0  -0.706797  0  3.510442  0  0  -0.74516  0  3.742725  0  0  -0.758636  0  3.749048  0  0  -0.341131  -0.735674  0  3.738389  0
C  C48  1  0.15635072  0.35077917  0.49949994  1  0  -0.714659  0  3.527187  0  0  -0.753285  0  3.754602  0  0  -0.766961  0  3.761973  0  0  -0.338383  -0.743892  0  3.750037  0
C  C49  1  0.65197219  0.51931633  0.36384965  1  0  -0.71868  0  3.53435  0  0  -0.760089  0  3.766043  0  0  -0.773261  0  3.772226  0  0  -0.337591  -0.750635  0  3.76229  0
N  N50  1  0.01821422  0.39752405  0.02104920  1  0  -0.356969  0  3.144072  0  0  -0.316962  0  3.412085  0  0  -0.33002  0  3.42713  0  0  -0.320059  -0.307993  0  3.402086  0
N  N51  1  0.33560639  0.89439327  0.86830227  1  0  -0.348606  0  3.153057  0  0  -0.307962  0  3.414918  0  0  -0.320302  0  3.429792  0  0  -0.315375  -0.299258  0  3.404226  0
Cl  Cl52  1  0.90648092  0.28672710  0.87066376  1  0  -0.09633  0  1.320044  0  0  -0.06801  0  1.547245  0  0  -0.071372  0  1.540135  0  0  0.034527  -0.065152  0  1.552543  0
Cl  Cl53  1  0.66207683  0.83454349  0.99541229  1  0  -0.098506  0  1.283984  0  0  -0.070174  0  1.495741  0  0  -0.074209  0  1.490516  0  0  0.025218  -0.067636  0  1.500608  0
O  O54  1  0.62218175  0.18578143  0.39693650  1  0  -0.638632  0  2.041152  0  0  -0.563455  0  2.276004  0  0  -0.590586  0  2.270627  0  0  -0.274864  -0.544676  0  2.279055  0
O  O55  1  0.73071834  0.08328749  0.23754989  1  0  -0.615119  0  2.005522  0  0  -0.541642  0  2.240029  0  0  -0.568597  0  2.233211  0  0  -0.278046  -0.523051  0  2.243917  0
O  O56  1  0.35192852  0.49039388  0.65362517  1  0  -0.619973  0  2.018912  0  0  -0.549457  0  2.256429  0  0  -0.576653  0  2.250302  0  0  -0.279894  -0.531103  0  2.260145  0
O  O57  1  0.18513414  0.67769816  0.49444243  1  0  -0.639438  0  2.035237  0  0  -0.565874  0  2.269198  0  0  -0.593124  0  2.263858  0  0  -0.276848  -0.546964  0  2.272073  0
