# generated using pymatgen
data_ZnH17C13N3O5
_symmetry_space_group_name_H-M   'P 1'
_cell_length_a   9.70142585
_cell_length_b   10.88071639
_cell_length_c   10.81156049
_cell_angle_alpha   87.32685043
_cell_angle_beta   91.89660130
_cell_angle_gamma   88.40414655
_symmetry_Int_Tables_number   1
_chemical_formula_structural   ZnH17C13N3O5
_chemical_formula_sum   'Zn2 H34 C26 N6 O10'
_cell_volume   1138.89142781
_cell_formula_units_Z   2
loop_
 _symmetry_equiv_pos_site_id
 _symmetry_equiv_pos_as_xyz
  1  'x, y, z'
loop_
 _atom_site_type_symbol
 _atom_site_label
 _atom_site_symmetry_multiplicity
 _atom_site_fract_x
 _atom_site_fract_y
 _atom_site_fract_z
 _atom_site_occupancy
 _atom_site_pbe_bader_charge
 _atom_site_pbe_bader_spin_density
 _atom_site_pbe_cm5_charge
 _atom_site_pbe_ddec_charge
 _atom_site_pbe_ddec_spin_density
 _atom_site_pbe_ddec_sum_bond_order
 _atom_site_pbe_magmom
Zn  Zn0  1  0.64847858  0.49832354  0.50117129  1  1.273702  0  0.679577  0.835276  0  2.327841  0
Zn  Zn1  1  0.34910722  0.50630575  0.49200936  1  1.273586  0  0.671638  0.82257  0  2.313988  0
H  H2  1  0.62431020  0.93155785  0.32613399  1  0.058277  0  0.095917  0.081481  0  0.996099  0
H  H3  1  0.73889089  0.06310366  0.52422384  1  0.052823  0  0.099232  0.091779  0  0.994284  0
H  H4  1  0.39375182  0.10083997  0.31432254  1  0.08258  0  0.095647  0.082099  0  0.996854  0
H  H5  1  0.60288943  0.90114582  0.69380431  1  0.066507  0  0.095248  0.081449  0  0.997869  0
H  H6  1  0.25622326  0.94004109  0.48195329  1  0.053869  0  0.093819  0.082222  0  0.999497  0
H  H7  1  0.37027886  0.06896602  0.68200528  1  0.053007  0  0.092258  0.077336  0  1.007412  0
H  H8  1  0.72133600  0.45822379  0.12199283  1  0.024442  0  0.091282  0.094733  0  0.986375  0
H  H9  1  0.29380493  0.57314407  0.08103651  1  0.03523  0  0.088066  0.083034  0  1.011245  0
H  H10  1  0.67225797  0.61356615  0.08818138  1  0.02389  0  0.085316  0.081755  0  0.98891  0
H  H11  1  0.42032697  0.68390602  0.10492740  1  0.023228  0  0.091761  0.092868  0  0.97207  0
H  H12  1  0.70430451  0.56600276  0.88019216  1  0.029314  0  0.087406  0.085358  0  0.990718  0
H  H13  1  0.09069977  0.44463624  0.31400470  1  0.085182  0  0.125261  0.06723  0  0.961799  0
H  H14  1  0.48315151  0.69138234  0.89747127  1  0.02538  0  0.091724  0.089962  0  0.974515  0
H  H15  1  0.69617459  0.40612560  0.91318095  1  0.053234  0  0.087731  0.091931  0  1.006236  0
H  H16  1  0.32237687  0.62675882  0.86753962  1  0.050396  0  0.092533  0.092967  0  1.000488  0
H  H17  1  0.53670784  0.29993605  0.09446226  1  0.043453  0  0.097963  0.111998  0  0.970469  0
H  H18  1  0.36068194  0.34156544  0.11644670  1  0.010646  0  0.089415  0.093577  0  1.013582  0
H  H19  1  0.46455320  0.19040181  0.92488159  1  0.410624  0  0.278285  0.2635  0  0.97994  0
H  H20  1  0.45754728  0.26081187  0.78605128  1  0.408223  0  0.279282  0.275105  0  0.985922  0
H  H21  1  0.23334021  0.30796673  0.93150643  1  0.362341  0  0.274718  0.258365  0  0.985445  0
H  H22  1  0.23032802  0.45838755  0.92426044  1  0.375873  0  0.275996  0.266334  0  0.991017  0
H  H23  1  0.13989335  0.70477107  0.34635269  1  0.412462  0  0.289456  0.281895  0  0.967691  0
H  H24  1  0.85967782  0.49459493  0.30084813  1  0.08846  0  0.113452  0.046769  0  1.006548  0
H  H25  1  0.23045924  0.60160552  0.27409746  1  0.438375  0  0.280606  0.278977  0  1.018016  0
H  H26  1  0.76888597  0.69039212  0.34621221  1  0.412783  0  0.28356  0.277991  0  0.988892  0
H  H27  1  0.91747023  0.71469706  0.27944885  1  0.418306  0  0.2836  0.273345  0  0.985166  0
H  H28  1  0.24584282  0.27537657  0.50113536  1  0.646943  0  0.299466  0.36132  0  0.986086  0
H  H29  1  0.98129980  0.25615196  0.39861578  1  0.621493  0  0.313354  0.355518  0  0.943583  0
H  H30  1  0.13541935  0.57607807  0.66840715  1  0.09121  0  0.110887  0.104075  0  0.985537  0
H  H31  1  0.89794175  0.52582128  0.68244091  1  0.06678  0  0.110354  0.094339  0  0.975725  0
H  H32  1  0.09875618  0.68322783  0.54231179  1  0.074983  0  0.112053  0.098205  0  0.980164  0
H  H33  1  0.86488948  0.66297367  0.58906336  1  0.119741  0  0.114165  0.113675  0  0.983922  0
H  H34  1  0.11204174  0.36976320  0.63921279  1  0.066597  0  0.11774  0.054065  0  0.970961  0
H  H35  1  0.87496669  0.33297316  0.59999367  1  0.068881  0  0.117436  0.051054  0  0.952085  0
C  C36  1  0.49705732  0.49590573  0.25795915  1  1.542118  0  0.223819  0.589528  0  4.093002  0
C  C37  1  0.42697378  0.37673132  0.92661716  1  0.663562  0  0.164999  0.428462  0  3.752934  0
C  C38  1  0.07007692  0.52894318  0.36280367  1  0.601292  0  0.088682  0.187477  0  3.840026  0
C  C39  1  0.91128475  0.54982677  0.36998842  1  0.581642  0  0.086744  0.190644  0  3.820035  0
C  C40  1  0.08404507  0.37600140  0.53928044  1  0.774131  0  0.078987  0.197827  0  3.878425  0
C  C41  1  0.92416272  0.37015549  0.51618639  1  0.768988  0  0.088124  0.213896  0  3.848499  0
C  C42  1  0.07714636  0.59074457  0.57998644  1  0.199266  0  -0.072585  -0.085099  0  3.842484  0
C  C43  1  0.92103198  0.57421978  0.59442699  1  0.208336  0  -0.072747  -0.092694  0  3.846568  0
C  C44  1  0.50675312  0.26045783  0.51016136  1  1.509357  0  0.220537  0.590447  0  4.167079  0
C  C45  1  0.49939348  0.49998824  0.73345042  1  1.514515  0  0.2223  0.604209  0  4.077441  0
C  C46  1  0.49228309  0.74039687  0.49234013  1  1.53546  0  0.211814  0.590085  0  4.187776  0
C  C47  1  0.50457620  0.12439474  0.51044473  1  0.040943  0  -0.009934  -0.034188  0  3.664701  0
C  C48  1  0.63233652  0.03357360  0.51586801  1  -0.000513  0  -0.076526  -0.063163  0  3.636356  0
C  C49  1  0.43951760  0.05411988  0.39836261  1  -0.049023  0  -0.072858  -0.062273  0  3.623448  0
C  C50  1  0.56842442  0.96400190  0.40523222  1  -0.029107  0  -0.072652  -0.060066  0  3.627655  0
C  C51  1  0.49114888  0.87652161  0.49937307  1  0.0288  0  -0.009521  -0.029252  0  3.652694  0
C  C52  1  0.55638240  0.94694887  0.60965858  1  -0.040612  0  -0.076666  -0.065304  0  3.635892  0
C  C53  1  0.36341408  0.96772255  0.49197235  1  -0.033533  0  -0.082392  -0.071516  0  3.656814  0
C  C54  1  0.42710543  0.03732801  0.60302452  1  -0.037812  0  -0.081044  -0.072826  0  3.645891  0
C  C55  1  0.64522984  0.51847183  0.06967600  1  -0.015226  0  -0.167072  -0.180264  0  3.896331  0
C  C56  1  0.40042685  0.59686961  0.06052033  1  -0.051204  0  -0.160882  -0.185404  0  3.874853  0
C  C57  1  0.64654700  0.49520646  0.93028662  1  -0.05084  0  -0.170047  -0.178701  0  3.907398  0
C  C58  1  0.42064643  0.61091906  0.91965868  1  -0.05533  0  -0.161021  -0.168857  0  3.884687  0
C  C59  1  0.45471203  0.36975564  0.07018557  1  -0.045731  0  -0.159744  -0.290467  0  3.806929  0
C  C60  1  0.50042332  0.49439748  0.11710390  1  0.057309  0  -0.017203  0.037424  0  3.806164  0
C  C61  1  0.49816983  0.49633930  0.87488569  1  0.079921  0  -0.009445  -0.057592  0  3.712893  0
N  N62  1  0.13168419  0.50012049  0.49308079  1  -0.972589  0  -0.338118  -0.236022  0  3.372638  0
N  N63  1  0.86508012  0.49878394  0.49342919  1  -0.955414  0  -0.328094  -0.207261  0  3.362305  0
N  N64  1  0.49144785  0.26815214  0.87596071  1  -1.132484  0  -0.629572  -0.681343  0  3.176951  0
N  N65  1  0.27807857  0.38272523  0.89027938  1  -1.071543  0  -0.637099  -0.696515  0  3.161106  0
N  N66  1  0.13283145  0.62813473  0.29587076  1  -1.172517  0  -0.645954  -0.662713  0  3.243512  0
N  N67  1  0.87359499  0.67983324  0.35762025  1  -1.119549  0  -0.638305  -0.651586  0  3.208816  0
O  O68  1  0.60473702  0.52935712  0.31532118  1  -1.177994  0  -0.306855  -0.543187  0  2.399276  0
O  O69  1  0.89354821  0.29933868  0.41442878  1  -1.114942  0  -0.392607  -0.483147  0  2.2423  0
O  O70  1  0.38471442  0.46656934  0.30909533  1  -1.17526  0  -0.318323  -0.556172  0  2.335848  0
O  O71  1  0.61559794  0.31307125  0.48052081  1  -1.14634  0  -0.296043  -0.502074  0  2.348777  0
O  O72  1  0.39395239  0.31669349  0.53872640  1  -1.189207  0  -0.313731  -0.569185  0  2.398654  0
O  O73  1  0.61139417  0.46740339  0.68440438  1  -1.168161  0  -0.315265  -0.545925  0  2.344035  0
O  O74  1  0.38855475  0.53563015  0.67445016  1  -1.172322  0  -0.317686  -0.550114  0  2.370679  0
O  O75  1  0.60629150  0.68425690  0.52276159  1  -1.170663  0  -0.316509  -0.550394  0  2.325873  0
O  O76  1  0.38134399  0.69100411  0.45511666  1  -1.17883  0  -0.324775  -0.561798  0  2.327193  0
O  O77  1  0.14397692  0.27955024  0.47737452  1  -1.181714  0  -0.400934  -0.529056  0  2.306498  0
