# generated using pymatgen
data_Cu2H10C11Se(IN)2
_symmetry_space_group_name_H-M   'P 1'
_cell_length_a   8.30154097
_cell_length_b   9.37198516
_cell_length_c   9.53505168
_cell_angle_alpha   105.16038610
_cell_angle_beta   90.00015793
_cell_angle_gamma   89.99999592
_symmetry_Int_Tables_number   1
_chemical_formula_structural   Cu2H10C11Se(IN)2
_chemical_formula_sum   'Cu4 H20 C22 Se2 I4 N4'
_cell_volume   716.02727436
_cell_formula_units_Z   2
loop_
 _symmetry_equiv_pos_site_id
 _symmetry_equiv_pos_as_xyz
  1  'x, y, z'
loop_
 _atom_site_type_symbol
 _atom_site_label
 _atom_site_symmetry_multiplicity
 _atom_site_fract_x
 _atom_site_fract_y
 _atom_site_fract_z
 _atom_site_occupancy
 _atom_site_pbe_bader_spin_density
 _atom_site_pbe_cm5_charge
 _atom_site_pbe_ddec_charge
 _atom_site_pbe_ddec_spin_density
 _atom_site_pbe_ddec_sum_bond_order
 _atom_site_pbe_magmom
Cu  Cu0  1  0.54538748  0.69405307  0.48994944  1  0  0.261277  0.114463  0  2.785942  0
Cu  Cu1  1  0.04538638  0.30594500  0.51004847  1  0  0.261281  0.114451  0  2.786058  0
Cu  Cu2  1  0.17544511  0.46005826  0.36019370  1  0  0.244581  0.191491  0  2.64091  0
Cu  Cu3  1  0.67544551  0.53993878  0.63980635  1  0  0.244581  0.191464  0  2.640937  0
H  H4  1  0.56480630  0.07014931  0.19557376  1  0  0.098893  0.116811  0  1.0116  0
H  H5  1  0.06483022  0.92985209  0.80443345  1  0  0.09893  0.116859  0  1.011532  0
H  H6  1  0.80996534  0.96504349  0.04949882  1  0  0.094943  0.100252  0  1.012502  0
H  H7  1  0.30998496  0.03497573  0.95050515  1  0  0.094988  0.100343  0  1.0124  0
H  H8  1  0.95413025  0.75360654  0.10960317  1  0  0.098188  0.104734  0  1.057674  0
H  H9  1  0.45413039  0.24641387  0.89039619  1  0  0.09814  0.104769  0  1.057607  0
H  H10  1  0.84780213  0.65431092  0.31103130  1  0  0.101304  0.078002  0  1.034667  0
H  H11  1  0.34779799  0.34569948  0.68896734  1  0  0.101266  0.077842  0  1.034656  0
H  H12  1  0.32091051  0.89012814  0.14261642  1  0  0.09613  0.110454  0  1.052323  0
H  H13  1  0.82090200  0.10986013  0.85737543  1  0  0.096079  0.110477  0  1.052286  0
H  H14  1  0.25587561  0.75111781  0.88755294  1  0  0.095284  0.099981  0  1.031076  0
H  H15  1  0.75587791  0.24887154  0.11244113  1  0  0.09529  0.099981  0  1.031121  0
H  H16  1  0.12740783  0.50106949  0.84418559  1  0  0.093609  0.108829  0  1.050818  0
H  H17  1  0.62742111  0.49892531  0.15581272  1  0  0.093652  0.108912  0  1.050851  0
H  H18  1  0.09731454  0.38899349  0.05511882  1  0  0.097851  0.077802  0  1.044531  0
H  H19  1  0.59732196  0.61100129  0.94488152  1  0  0.09787  0.077823  0  1.044582  0
H  H20  1  0.35972176  0.04900761  0.36713122  1  0  0.083191  0.125183  0  1.047298  0
H  H21  1  0.85973657  0.95099064  0.63287272  1  0  0.0832  0.125187  0  1.047318  0
H  H22  1  0.45955529  0.02183191  0.52434803  1  0  0.093889  0.128991  0  1.025838  0
H  H23  1  0.95956959  0.97816750  0.47565853  1  0  0.093889  0.128977  0  1.025858  0
C  C24  1  0.57504314  0.91269416  0.32390783  1  0  0.100463  0.255289  0  3.977104  0
C  C25  1  0.07505223  0.08730724  0.67609312  1  0  0.100455  0.255382  0  3.976757  0
C  C26  1  0.62993036  0.97635959  0.21572752  1  0  -0.093763  -0.184145  0  3.951707  0
C  C27  1  0.12994703  0.02364405  0.78427728  1  0  -0.093799  -0.184241  0  3.951377  0
C  C28  1  0.76706261  0.91941332  0.13644938  1  0  -0.078601  -0.014916  0  3.992844  0
C  C29  1  0.26707712  0.08059592  0.86355612  1  0  -0.078558  -0.014888  0  3.992633  0
C  C30  1  0.84757302  0.80189456  0.16958040  1  0  -0.094373  -0.135072  0  3.980874  0
C  C31  1  0.34757176  0.19812358  0.83042548  1  0  -0.094454  -0.135369  0  3.980825  0
C  C32  1  0.78790476  0.74508642  0.27992121  1  0  0.035833  0.093862  0  3.929304  0
C  C33  1  0.28790916  0.25492837  0.72008262  1  0  0.035962  0.094301  0  3.929103  0
C  C34  1  0.24784471  0.70993752  0.23134121  1  0  0.078005  0.136403  0  3.905221  0
C  C35  1  0.74784915  0.29005956  0.76865693  1  0  0.078051  0.136531  0  3.90518  0
C  C36  1  0.27456968  0.77795885  0.11907892  1  0  -0.097061  -0.162884  0  3.984372  0
C  C37  1  0.77457329  0.22203161  0.88091443  1  0  -0.097058  -0.163067  0  3.984395  0
C  C38  1  0.23459537  0.70167791  0.97752821  1  0  -0.07471  -0.025221  0  3.962566  0
C  C39  1  0.73459979  0.29831473  0.02246876  1  0  -0.074711  -0.025146  0  3.962582  0
C  C40  1  0.16606469  0.56117805  0.95257990  1  0  -0.095316  -0.135576  0  3.975184  0
C  C41  1  0.66607761  0.43881345  0.04741661  1  0  -0.095337  -0.135652  0  3.97542  0
C  C42  1  0.14660421  0.49975163  0.06899100  1  0  0.036072  0.100004  0  3.905262  0
C  C43  1  0.64661278  0.50024429  0.93100870  1  0  0.036069  0.099965  0  3.90525  0
C  C44  1  0.42772003  0.96961679  0.41038697  1  0  -0.182273  -0.311307  0  3.816974  0
C  C45  1  0.92773234  0.03038149  0.58961609  1  0  -0.182272  -0.311307  0  3.817023  0
Se  Se46  1  0.28500440  0.80688473  0.43315601  1  0  0.113043  0.146934  0  2.936676  0
Se  Se47  1  0.78501301  0.19311016  0.56684165  1  0  0.112991  0.146849  0  2.936674  0
I  I48  1  0.59022177  0.81882256  0.76484050  1  0  -0.209804  -0.362142  0  1.856725  0
I  I49  1  0.09022580  0.18117332  0.23515801  1  0  -0.209775  -0.362114  0  1.85675  0
I  I50  1  0.49185634  0.41100849  0.41582832  1  0  -0.16686  -0.310592  0  2.304104  0
I  I51  1  0.99185053  0.58898983  0.58416860  1  0  -0.166867  -0.310612  0  2.304155  0
N  N52  1  0.65273480  0.79694767  0.35436499  1  0  -0.364631  -0.228683  0  3.591004  0
N  N53  1  0.15273775  0.20305820  0.64563623  1  0  -0.364665  -0.22885  0  3.590988  0
N  N54  1  0.18863398  0.57096101  0.20674997  1  0  -0.365166  -0.218914  0  3.637775  0
N  N55  1  0.68863849  0.42903493  0.79324879  1  0  -0.365194  -0.218904  0  3.637659  0
