# generated using pymatgen
data_CaH12C16(NO3)2
_symmetry_space_group_name_H-M   'P 1'
_cell_length_a   7.04351516
_cell_length_b   7.40598824
_cell_length_c   16.34115607
_cell_angle_alpha   89.99974189
_cell_angle_beta   89.99991517
_cell_angle_gamma   114.65617603
_symmetry_Int_Tables_number   1
_chemical_formula_structural   CaH12C16(NO3)2
_chemical_formula_sum   'Ca2 H24 C32 N4 O12'
_cell_volume   774.70564744
_cell_formula_units_Z   2
loop_
 _symmetry_equiv_pos_site_id
 _symmetry_equiv_pos_as_xyz
  1  'x, y, z'
loop_
 _atom_site_type_symbol
 _atom_site_label
 _atom_site_symmetry_multiplicity
 _atom_site_fract_x
 _atom_site_fract_y
 _atom_site_fract_z
 _atom_site_occupancy
 _atom_site_hle17_bader_spin_density
 _atom_site_hle17_ddec_charge
 _atom_site_hle17_ddec_spin_density
 _atom_site_hle17_ddec_sum_bond_order
 _atom_site_hle17_magmom
 _atom_site_hse06_10hf_bader_spin_density
 _atom_site_hse06_10hf_ddec_charge
 _atom_site_hse06_10hf_ddec_spin_density
 _atom_site_hse06_10hf_ddec_sum_bond_order
 _atom_site_hse06_10hf_magmom
 _atom_site_hse06_bader_spin_density
 _atom_site_hse06_ddec_charge
 _atom_site_hse06_ddec_spin_density
 _atom_site_hse06_ddec_sum_bond_order
 _atom_site_hse06_magmom
 _atom_site_pbe_bader_spin_density
 _atom_site_pbe_cm5_charge
 _atom_site_pbe_ddec_charge
 _atom_site_pbe_ddec_spin_density
 _atom_site_pbe_ddec_sum_bond_order
 _atom_site_pbe_magmom
Ca  Ca0  1  0.75000040  0.75000195  0.53121112  1  0  1.558598  0  1.10779  0  0  1.42427  0  1.46302  0  0  1.46872  0  1.416154  0  0  0.88796  1.390951  0  1.496049  0
Ca  Ca1  1  0.24999707  0.24999916  0.46878780  1  0  1.558638  0  1.107727  0  0  1.424285  0  1.463022  0  0  1.468761  0  1.416092  0  0  0.887936  1.390967  0  1.496048  0
H  H2  1  0.61260342  0.05365957  0.59701810  1  0  0.426755  0  0.871939  0  0  0.397909  0  0.931964  0  0  0.407918  0  0.917348  0  0  0.30268  0.390792  0  0.942346  0
H  H3  1  0.88739327  0.44634109  0.59701823  1  0  0.426744  0  0.871959  0  0  0.397883  0  0.932006  0  0  0.407894  0  0.917388  0  0  0.302679  0.390766  0  0.942389  0
H  H4  1  0.38738914  0.94634010  0.40298081  1  0  0.426788  0  0.871909  0  0  0.397917  0  0.931969  0  0  0.407928  0  0.91735  0  0  0.30269  0.390798  0  0.942353  0
H  H5  1  0.11259722  0.55365711  0.40298068  1  0  0.426727  0  0.871983  0  0  0.397935  0  0.931924  0  0  0.407945  0  0.917307  0  0  0.30272  0.390819  0  0.942304  0
H  H6  1  0.85670892  0.13039596  0.60501065  1  0  0.422164  0  0.885575  0  0  0.39086  0  0.95129  0  0  0.401644  0  0.935326  0  0  0.302413  0.383157  0  0.962679  0
H  H7  1  0.64328769  0.36960459  0.60501048  1  0  0.422141  0  0.885607  0  0  0.390839  0  0.951317  0  0  0.401623  0  0.935353  0  0  0.302421  0.383133  0  0.962708  0
H  H8  1  0.14328572  0.86960518  0.39498765  1  0  0.422126  0  0.885627  0  0  0.390823  0  0.951339  0  0  0.401607  0  0.935374  0  0  0.302412  0.383117  0  0.96273  0
H  H9  1  0.35670288  0.63039062  0.39498966  1  0  0.422163  0  0.885558  0  0  0.390851  0  0.951288  0  0  0.401636  0  0.93532  0  0  0.302411  0.383146  0  0.962681  0
H  H10  1  0.05326333  0.23782783  0.28552360  1  0  0.104871  0  0.957366  0  0  0.114805  0  1.019379  0  0  0.118066  0  1.017394  0  0  0.113986  0.112473  0  1.020853  0
H  H11  1  0.44672692  0.26217307  0.28552285  1  0  0.104916  0  0.957329  0  0  0.114829  0  1.019365  0  0  0.11809  0  1.01738  0  0  0.113996  0.112497  0  1.02084  0
H  H12  1  0.94673006  0.76216735  0.71447715  1  0  0.104933  0  0.957473  0  0  0.114856  0  1.01947  0  0  0.118116  0  1.017487  0  0  0.11402  0.112523  0  1.020943  0
H  H13  1  0.55327255  0.73783249  0.71447484  1  0  0.104892  0  0.957459  0  0  0.114828  0  1.019452  0  0  0.118089  0  1.017464  0  0  0.113999  0.112494  0  1.020929  0
H  H14  1  0.06412731  0.25372424  0.13298236  1  0  0.11308  0  0.966362  0  0  0.119527  0  1.032468  0  0  0.123024  0  1.030284  0  0  0.106918  0.117017  0  1.034093  0
H  H15  1  0.43586939  0.24627721  0.13297858  1  0  0.113085  0  0.966362  0  0  0.119542  0  1.032451  0  0  0.123047  0  1.030244  0  0  0.10692  0.117032  0  1.034075  0
H  H16  1  0.93586966  0.74626941  0.86702084  1  0  0.113074  0  0.966339  0  0  0.119508  0  1.032455  0  0  0.12301  0  1.030256  0  0  0.106921  0.116999  0  1.034078  0
H  H17  1  0.56413855  0.75372826  0.86701605  1  0  0.113124  0  0.966385  0  0  0.119565  0  1.032474  0  0  0.123054  0  1.030301  0  0  0.106932  0.117055  0  1.034098  0
H  H18  1  0.45074973  0.76746168  0.12341079  1  0  0.113925  0  0.976437  0  0  0.120694  0  1.041747  0  0  0.124204  0  1.039531  0  0  0.106651  0.118174  0  1.043383  0
H  H19  1  0.04924720  0.73253480  0.12340789  1  0  0.113906  0  0.976467  0  0  0.120672  0  1.041783  0  0  0.124181  0  1.039568  0  0  0.10665  0.118155  0  1.043417  0
H  H20  1  0.54924582  0.23253198  0.87659119  1  0  0.113855  0  0.97643  0  0  0.120616  0  1.041766  0  0  0.124132  0  1.039537  0  0  0.106619  0.118101  0  1.043404  0
H  H21  1  0.95076149  0.26746917  0.87659164  1  0  0.113906  0  0.97642  0  0  0.120649  0  1.04177  0  0  0.124155  0  1.039569  0  0  0.106633  0.118136  0  1.043407  0
H  H22  1  0.44107131  0.75244499  0.27490498  1  0  0.097086  0  0.963385  0  0  0.107692  0  1.025191  0  0  0.110845  0  1.023337  0  0  0.107695  0.105363  0  1.026679  0
H  H23  1  0.05892326  0.74755689  0.27490388  1  0  0.097149  0  0.963305  0  0  0.107742  0  1.025122  0  0  0.110896  0  1.023264  0  0  0.107733  0.105417  0  1.026606  0
H  H24  1  0.55892267  0.24755466  0.72509638  1  0  0.097159  0  0.963334  0  0  0.107774  0  1.025116  0  0  0.110928  0  1.023256  0  0  0.107726  0.105433  0  1.026616  0
H  H25  1  0.94108311  0.25245458  0.72509748  1  0  0.09709  0  0.963281  0  0  0.107733  0  1.02505  0  0  0.110888  0  1.023186  0  0  0.107686  0.105369  0  1.026577  0
C  C26  1  0.74812512  0.97236092  0.38098957  1  0  0.673733  0  3.879055  0  0  0.621756  0  4.170394  0  0  0.656349  0  4.161522  0  0  0.228578  0.598185  0  4.175671  0
C  C27  1  0.75186605  0.52763621  0.38098574  1  0  0.673554  0  3.879116  0  0  0.621499  0  4.170571  0  0  0.656088  0  4.161709  0  0  0.228536  0.597935  0  4.175842  0
C  C28  1  0.25186619  0.02763279  0.61901363  1  0  0.673694  0  3.87891  0  0  0.621623  0  4.170386  0  0  0.656209  0  4.161526  0  0  0.228599  0.598056  0  4.175665  0
C  C29  1  0.24813217  0.47236340  0.61901195  1  0  0.673367  0  3.879462  0  0  0.621433  0  4.170738  0  0  0.656019  0  4.161881  0  0  0.228446  0.597863  0  4.176017  0
C  C30  1  0.74752245  0.99351653  0.29004739  1  0  -0.066985  0  3.739917  0  0  -0.047086  0  3.979083  0  0  -0.053913  0  4.001667  0  0  -0.010262  -0.042599  0  3.963861  0
C  C31  1  0.75246811  0.50648486  0.29004544  1  0  -0.06703  0  3.740038  0  0  -0.04707  0  3.97915  0  0  -0.053898  0  4.001739  0  0  -0.01028  -0.042579  0  3.963924  0
C  C32  1  0.25246945  0.00648166  0.70995458  1  0  -0.067075  0  3.73992  0  0  -0.047135  0  3.979071  0  0  -0.053962  0  4.001658  0  0  -0.010345  -0.042644  0  3.963848  0
C  C33  1  0.24753485  0.49352216  0.70995286  1  0  -0.066981  0  3.739948  0  0  -0.04706  0  3.979033  0  0  -0.053888  0  4.001622  0  0  -0.010293  -0.042567  0  3.963804  0
C  C34  1  0.92266048  0.13456381  0.24973650  1  0  -0.055808  0  3.704063  0  0  -0.078575  0  3.951189  0  0  -0.079659  0  3.972423  0  0  -0.070812  -0.07774  0  3.936709  0
C  C35  1  0.57733264  0.36543574  0.24973454  1  0  -0.055843  0  3.704016  0  0  -0.078621  0  3.951147  0  0  -0.079704  0  3.97238  0  0  -0.070818  -0.077788  0  3.936667  0
C  C36  1  0.07732667  0.86542696  0.75026425  1  0  -0.055833  0  3.70411  0  0  -0.07861  0  3.951221  0  0  -0.079693  0  3.972452  0  0  -0.070799  -0.077776  0  3.936747  0
C  C37  1  0.42267315  0.63457125  0.75026254  1  0  -0.055763  0  3.704169  0  0  -0.07856  0  3.951264  0  0  -0.079638  0  3.972491  0  0  -0.070767  -0.077727  0  3.936789  0
C  C38  1  0.92950193  0.14401414  0.16478350  1  0  -0.079119  0  3.686138  0  0  -0.099722  0  3.931013  0  0  -0.102044  0  3.951426  0  0  -0.068739  -0.097985  0  3.917018  0
C  C39  1  0.57049633  0.35598355  0.16478217  1  0  -0.079083  0  3.686085  0  0  -0.099668  0  3.930918  0  0  -0.101987  0  3.951332  0  0  -0.06869  -0.09793  0  3.916926  0
C  C40  1  0.07049221  0.85597954  0.83521725  1  0  -0.079069  0  3.686157  0  0  -0.099626  0  3.930988  0  0  -0.101946  0  3.9514  0  0  -0.068668  -0.097886  0  3.916997  0
C  C41  1  0.42951586  0.64402187  0.83521674  1  0  -0.079113  0  3.686337  0  0  -0.099679  0  3.931154  0  0  -0.101998  0  3.95156  0  0  -0.068689  -0.097938  0  3.91716  0
C  C42  1  0.75855791  0.01029415  0.11962348  1  0  0.036237  0  3.856643  0  0  0.055875  0  4.087352  0  0  0.054352  0  4.108741  0  0  0.011521  0.056861  0  4.072916  0
C  C43  1  0.74144293  0.48970265  0.11962178  1  0  0.036262  0  3.856366  0  0  0.055877  0  4.087122  0  0  0.054355  0  4.108509  0  0  0.011515  0.056855  0  4.0727  0
C  C44  1  0.24143689  0.98970102  0.88037727  1  0  0.036232  0  3.85663  0  0  0.055827  0  4.087392  0  0  0.054306  0  4.108779  0  0  0.011479  0.056807  0  4.072971  0
C  C45  1  0.25857216  0.51029976  0.88037714  1  0  0.036063  0  3.856697  0  0  0.05569  0  4.087432  0  0  0.054168  0  4.10882  0  0  0.011402  0.056675  0  4.073002  0
C  C46  1  0.58090120  0.87061093  0.15937811  1  0  -0.080072  0  3.687884  0  0  -0.100548  0  3.931751  0  0  -0.102874  0  3.952033  0  0  -0.070633  -0.098788  0  3.917818  0
C  C47  1  0.91910191  0.62939214  0.15937764  1  0  -0.08  0  3.687767  0  0  -0.100499  0  3.931678  0  0  -0.102825  0  3.951957  0  0  -0.0706  -0.09874  0  3.91775  0
C  C48  1  0.41909494  0.12938721  0.84062325  1  0  -0.079921  0  3.687684  0  0  -0.100405  0  3.931573  0  0  -0.102731  0  3.951853  0  0  -0.070578  -0.098649  0  3.917646  0
C  C49  1  0.08091235  0.37061476  0.84062372  1  0  -0.079965  0  3.687711  0  0  -0.100453  0  3.931628  0  0  -0.102781  0  3.951907  0  0  -0.070583  -0.0987  0  3.917696  0
C  C50  1  0.57656021  0.86352476  0.24423013  1  0  -0.058364  0  3.720355  0  0  -0.081882  0  3.968496  0  0  -0.08309  0  3.990088  0  0  -0.077004  -0.080932  0  3.953763  0
C  C51  1  0.92343436  0.63647573  0.24422842  1  0  -0.058438  0  3.720394  0  0  -0.08194  0  3.968519  0  0  -0.083146  0  3.99011  0  0  -0.077053  -0.080996  0  3.953785  0
C  C52  1  0.42343169  0.13647343  0.75577123  1  0  -0.058472  0  3.720294  0  0  -0.081969  0  3.96839  0  0  -0.083178  0  3.989985  0  0  -0.077002  -0.081012  0  3.953662  0
C  C53  1  0.07657076  0.36352977  0.75577233  1  0  -0.058363  0  3.720147  0  0  -0.081892  0  3.968243  0  0  -0.083099  0  3.989835  0  0  -0.076993  -0.080918  0  3.953527  0
C  C54  1  0.76199473  0.01278293  0.03244054  1  0  0.286343  0  3.719731  0  0  0.269596  0  3.991843  0  0  0.280824  0  4.010107  0  0  0.200639  0.262005  0  3.979605  0
C  C55  1  0.73802367  0.48722383  0.03243884  1  0  0.28634  0  3.720059  0  0  0.269606  0  3.992166  0  0  0.280834  0  4.010433  0  0  0.200586  0.262016  0  3.979929  0
C  C56  1  0.23800781  0.98721364  0.96755837  1  0  0.286251  0  3.71979  0  0  0.269525  0  3.991897  0  0  0.280752  0  4.010165  0  0  0.200574  0.261934  0  3.979655  0
C  C57  1  0.26200323  0.51278591  0.96756068  1  0  0.286448  0  3.719748  0  0  0.2697  0  3.991872  0  0  0.280929  0  4.010135  0  0  0.200705  0.262108  0  3.979631  0
N  N58  1  0.75988080  0.01023637  0.96098440  1  0  -0.402533  0  2.615081  0  0  -0.376823  0  2.84498  0  0  -0.388977  0  2.858234  0  0  -0.293638  -0.368595  0  2.836154  0
N  N59  1  0.74013708  0.48976050  0.96098269  1  0  -0.402566  0  2.615489  0  0  -0.376861  0  2.845378  0  0  -0.38902  0  2.858633  0  0  -0.293602  -0.368629  0  2.836545  0
N  N60  1  0.24012871  0.98976311  0.03901819  1  0  -0.402517  0  2.615119  0  0  -0.376809  0  2.844997  0  0  -0.388967  0  2.858253  0  0  -0.293595  -0.368577  0  2.836161  0
N  N61  1  0.25988175  0.51023440  0.03901745  1  0  -0.402578  0  2.615221  0  0  -0.376874  0  2.845122  0  0  -0.389031  0  2.858375  0  0  -0.293664  -0.368641  0  2.836287  0
O  O62  1  0.58093715  0.84949029  0.41698292  1  0  -0.722965  0  2.032837  0  0  -0.649538  0  2.253944  0  0  -0.676386  0  2.242606  0  0  -0.339592  -0.630589  0  2.261247  0
O  O63  1  0.91905152  0.65050786  0.41698057  1  0  -0.722861  0  2.032626  0  0  -0.649497  0  2.253859  0  0  -0.676335  0  2.242516  0  0  -0.339627  -0.63057  0  2.26117  0
O  O64  1  0.41905192  0.15050792  0.58301906  1  0  -0.722937  0  2.032583  0  0  -0.649543  0  2.253821  0  0  -0.67638  0  2.242479  0  0  -0.339638  -0.630609  0  2.261127  0
O  O65  1  0.08094454  0.34949326  0.58301957  1  0  -0.722829  0  2.032786  0  0  -0.649471  0  2.253949  0  0  -0.676312  0  2.24261  0  0  -0.339571  -0.630531  0  2.261248  0
O  O66  1  0.91333547  0.06652672  0.42159406  1  0  -0.7093  0  2.010238  0  0  -0.646753  0  2.260425  0  0  -0.675057  0  2.250811  0  0  -0.366693  -0.626575  0  2.266252  0
O  O67  1  0.58665059  0.43346156  0.42159195  1  0  -0.709192  0  2.010293  0  0  -0.646569  0  2.260445  0  0  -0.674877  0  2.250838  0  0  -0.366636  -0.626387  0  2.266261  0
O  O68  1  0.08665251  0.93345956  0.57840853  1  0  -0.709239  0  2.010147  0  0  -0.646639  0  2.260349  0  0  -0.674945  0  2.250745  0  0  -0.366672  -0.626443  0  2.266139  0
O  O69  1  0.41334347  0.56653510  0.57840513  1  0  -0.709094  0  2.010406  0  0  -0.646559  0  2.260563  0  0  -0.674864  0  2.250957  0  0  -0.366591  -0.626369  0  2.266364  0
O  O70  1  0.72408971  0.00964289  0.60946277  1  0  -0.878382  0  1.812663  0  0  -0.82992  0  1.997999  0  0  -0.849595  0  1.96596  0  0  -0.627697  -0.815698  0  2.020489  0
O  O71  1  0.77590404  0.49035763  0.60946226  1  0  -0.878359  0  1.812716  0  0  -0.829888  0  1.99807  0  0  -0.849563  0  1.96603  0  0  -0.627715  -0.815663  0  2.020574  0
O  O72  1  0.27590144  0.99035679  0.39053676  1  0  -0.878376  0  1.812666  0  0  -0.829895  0  1.998038  0  0  -0.849573  0  1.965995  0  0  -0.627708  -0.815666  0  2.020546  0
O  O73  1  0.22408437  0.50963910  0.39053604  1  0  -0.878395  0  1.812707  0  0  -0.82997  0  1.997981  0  0  -0.849648  0  1.965941  0  0  -0.627743  -0.815749  0  2.020473  0
