# generated using pymatgen
data_AgH7C6SN2O4F3
_symmetry_space_group_name_H-M   'P 1'
_cell_length_a   6.03616562
_cell_length_b   9.58980455
_cell_length_c   10.65713402
_cell_angle_alpha   115.68364626
_cell_angle_beta   97.16792292
_cell_angle_gamma   91.90677035
_symmetry_Int_Tables_number   1
_chemical_formula_structural   AgH7C6SN2O4F3
_chemical_formula_sum   'Ag2 H14 C12 S2 N4 O8 F6'
_cell_volume   548.96298074
_cell_formula_units_Z   2
loop_
 _symmetry_equiv_pos_site_id
 _symmetry_equiv_pos_as_xyz
  1  'x, y, z'
loop_
 _atom_site_type_symbol
 _atom_site_label
 _atom_site_symmetry_multiplicity
 _atom_site_fract_x
 _atom_site_fract_y
 _atom_site_fract_z
 _atom_site_occupancy
 _atom_site_hle17_bader_spin_density
 _atom_site_hle17_ddec_charge
 _atom_site_hle17_ddec_spin_density
 _atom_site_hle17_ddec_sum_bond_order
 _atom_site_hle17_magmom
 _atom_site_hse06_10hf_bader_spin_density
 _atom_site_hse06_10hf_ddec_charge
 _atom_site_hse06_10hf_ddec_spin_density
 _atom_site_hse06_10hf_ddec_sum_bond_order
 _atom_site_hse06_10hf_magmom
 _atom_site_hse06_bader_spin_density
 _atom_site_hse06_ddec_charge
 _atom_site_hse06_ddec_spin_density
 _atom_site_hse06_ddec_sum_bond_order
 _atom_site_hse06_magmom
 _atom_site_pbe_bader_spin_density
 _atom_site_pbe_cm5_charge
 _atom_site_pbe_ddec_charge
 _atom_site_pbe_ddec_spin_density
 _atom_site_pbe_ddec_sum_bond_order
 _atom_site_pbe_magmom
Ag  Ag0  1  0.78335795  0.74799945  0.56088631  1  0  0.601309  0  1.366141  0  0  0.497217  0  1.781408  0  0  0.517193  0  1.742591  0  0  0.478829  0.484484  0  1.807052  0
Ag  Ag1  1  0.21664908  0.25199816  0.43911678  1  0  0.601325  0  1.366123  0  0  0.497249  0  1.781367  0  0  0.517229  0  1.742545  0  0  0.478845  0.484516  0  1.807016  0
H  H2  1  0.20911015  0.46567533  0.16118836  1  0  0.101113  0  0.947819  0  0  0.109008  0  1.011968  0  0  0.112122  0  1.009196  0  0  0.115203  0.10672  0  1.014009  0
H  H3  1  0.79088966  0.53431750  0.83881607  1  0  0.101109  0  0.947657  0  0  0.10903  0  1.011789  0  0  0.112149  0  1.009014  0  0  0.115196  0.106744  0  1.01383  0
H  H4  1  0.19945231  0.15576931  0.09899738  1  0  0.128385  0  0.956437  0  0  0.137613  0  1.013041  0  0  0.140744  0  1.012334  0  0  0.103563  0.135142  0  1.014002  0
H  H5  1  0.80055987  0.84422954  0.90100563  1  0  0.128328  0  0.956562  0  0  0.137561  0  1.013151  0  0  0.14069  0  1.012444  0  0  0.10355  0.135092  0  1.014112  0
H  H6  1  0.86538827  0.10240270  0.22824624  1  0  0.140911  0  0.961538  0  0  0.149103  0  1.018736  0  0  0.152235  0  1.017084  0  0  0.106707  0.146749  0  1.020221  0
H  H7  1  0.13462017  0.89759265  0.77175230  1  0  0.140898  0  0.961506  0  0  0.149119  0  1.018676  0  0  0.152249  0  1.017022  0  0  0.106695  0.146749  0  1.020182  0
H  H8  1  0.58668102  0.26865937  0.38421470  1  0  0.07674  0  0.967566  0  0  0.087768  0  1.041688  0  0  0.091244  0  1.035227  0  0  0.110031  0.085447  0  1.045595  0
H  H9  1  0.41331727  0.73133476  0.61577700  1  0  0.076766  0  0.967603  0  0  0.087834  0  1.041672  0  0  0.091309  0  1.035211  0  0  0.110033  0.085514  0  1.045578  0
H  H10  1  0.92765276  0.58155920  0.31552175  1  0  0.302556  0  0.93545  0  0  0.284446  0  0.996112  0  0  0.292702  0  0.989086  0  0  0.302122  0.278514  0  1.001266  0
H  H11  1  0.07234773  0.41843958  0.68447383  1  0  0.302513  0  0.935483  0  0  0.284459  0  0.996112  0  0  0.292718  0  0.989084  0  0  0.302143  0.278528  0  1.001266  0
H  H12  1  0.89691767  0.86253451  0.36860998  1  0  0.42899  0  0.868805  0  0  0.398276  0  0.932282  0  0  0.408036  0  0.917879  0  0  0.293531  0.391368  0  0.942494  0
H  H13  1  0.10308436  0.13746312  0.63138526  1  0  0.42898  0  0.868827  0  0  0.398255  0  0.932322  0  0  0.408012  0  0.917923  0  0  0.293537  0.391346  0  0.942534  0
H  H14  1  0.13744739  0.81127285  0.40487054  1  0  0.431979  0  0.857285  0  0  0.405688  0  0.916947  0  0  0.414296  0  0.90452  0  0  0.298098  0.399608  0  0.925719  0
H  H15  1  0.86255437  0.18872243  0.59512562  1  0  0.432014  0  0.857206  0  0  0.405732  0  0.916875  0  0  0.414341  0  0.904445  0  0  0.298117  0.399652  0  0.925648  0
C  C16  1  0.10540856  0.39749918  0.19444997  1  0  0.101188  0  3.639882  0  0  0.05254  0  3.914997  0  0  0.05933  0  3.931302  0  0  0.017426  0.047899  0  3.90419  0
C  C17  1  0.89460121  0.60250781  0.80555235  1  0  0.100993  0  3.639742  0  0  0.052352  0  3.914926  0  0  0.059132  0  3.931247  0  0  0.017379  0.047719  0  3.90411  0
C  C18  1  0.09891469  0.24076549  0.16538667  1  0  -0.172583  0  3.774622  0  0  -0.190421  0  4.043077  0  0  -0.197913  0  4.064834  0  0  -0.124601  -0.185571  0  4.028824  0
C  C19  1  0.90109172  0.75924139  0.83462100  1  0  -0.172404  0  3.77483  0  0  -0.190231  0  4.043232  0  0  -0.197716  0  4.064989  0  0  -0.124566  -0.185383  0  4.02898  0
C  C20  1  0.93154821  0.21323039  0.23628102  1  0  -0.201881  0  3.783444  0  0  -0.21282  0  4.04105  0  0  -0.214019  0  4.059628  0  0  -0.129938  -0.211985  0  4.028867  0
C  C21  1  0.06844350  0.78676470  0.76371998  1  0  -0.202048  0  3.783401  0  0  -0.212963  0  4.040983  0  0  -0.214162  0  4.059563  0  0  -0.129984  -0.212113  0  4.028802  0
C  C22  1  0.83907158  0.35605579  0.30705115  1  0  0.122158  0  3.840248  0  0  0.114593  0  4.10089  0  0  0.112254  0  4.124892  0  0  0.063773  0.11582  0  4.085264  0
C  C23  1  0.16093119  0.64393375  0.69293904  1  0  0.122105  0  3.840069  0  0  0.114515  0  4.100836  0  0  0.112181  0  4.12484  0  0  0.063788  0.115743  0  4.085208  0
C  C24  1  0.66435597  0.37696684  0.38927573  1  0  0.061627  0  3.736388  0  0  0.024673  0  3.998919  0  0  0.038223  0  4.010399  0  0  0.056899  0.015441  0  3.991389  0
C  C25  1  0.33565470  0.62303333  0.61071269  1  0  0.061575  0  3.736614  0  0  0.024609  0  3.999179  0  0  0.038156  0  4.010652  0  0  0.056942  0.015377  0  3.991651  0
C  C26  1  0.54006720  0.24344991  0.89699173  1  0  0.596698  0  3.691084  0  0  0.528736  0  4.05622  0  0  0.557202  0  4.028979  0  0  0.289865  0.508174  0  4.076412  0
C  C27  1  0.45993072  0.75655573  0.10301203  1  0  0.596389  0  3.691191  0  0  0.528507  0  4.056194  0  0  0.556995  0  4.02892  0  0  0.289722  0.507963  0  4.076366  0
S  S28  1  0.53434991  0.10796178  0.70728628  1  0  1.129756  0  5.777313  0  0  1.023269  0  6.309754  0  0  1.066085  0  6.291059  0  0  0.496458  0.993657  0  6.322381  0
S  S29  1  0.46564514  0.89203332  0.29271778  1  0  1.129736  0  5.77699  0  0  1.023207  0  6.309442  0  0  1.066024  0  6.290739  0  0  0.49647  0.993593  0  6.322071  0
N  N30  1  0.59086825  0.50846939  0.46912107  1  0  -0.225468  0  3.266732  0  0  -0.16382  0  3.562297  0  0  -0.179791  0  3.58122  0  0  -0.252241  -0.153723  0  3.549668  0
N  N31  1  0.40913008  0.49153977  0.53088130  1  0  -0.225216  0  3.266814  0  0  -0.163586  0  3.562359  0  0  -0.179549  0  3.58128  0  0  -0.25222  -0.153492  0  3.54973  0
N  N32  1  0.95007806  0.46477239  0.27863707  1  0  -0.302301  0  3.446115  0  0  -0.239432  0  3.679546  0  0  -0.254077  0  3.696954  0  0  -0.388349  -0.229492  0  3.668053  0
N  N33  1  0.04993092  0.53522764  0.72136056  1  0  -0.302017  0  3.446119  0  0  -0.23928  0  3.679654  0  0  -0.253935  0  3.697079  0  0  -0.38833  -0.22934  0  3.66816  0
O  O34  1  0.71744646  0.01345004  0.71151657  1  0  -0.609351  0  2.078894  0  0  -0.558912  0  2.353899  0  0  -0.578897  0  2.338649  0  0  -0.337157  -0.545558  0  2.364051  0
O  O35  1  0.28254603  0.98655197  0.28849193  1  0  -0.609421  0  2.078721  0  0  -0.558961  0  2.353731  0  0  -0.578945  0  2.33848  0  0  -0.337208  -0.545606  0  2.363882  0
O  O36  1  0.30891423  0.02594460  0.66587187  1  0  -0.610904  0  2.039579  0  0  -0.561831  0  2.287022  0  0  -0.581787  0  2.274659  0  0  -0.318575  -0.548168  0  2.295677  0
O  O37  1  0.69108484  0.97405642  0.33412920  1  0  -0.610957  0  2.039315  0  0  -0.561902  0  2.286772  0  0  -0.581878  0  2.27442  0  0  -0.318631  -0.548238  0  2.295429  0
O  O38  1  0.57335513  0.21032149  0.64104045  1  0  -0.61446  0  2.013553  0  0  -0.578271  0  2.277951  0  0  -0.596533  0  2.263623  0  0  -0.329341  -0.565408  0  2.286696  0
O  O39  1  0.42664226  0.78967944  0.35896610  1  0  -0.614296  0  2.013706  0  0  -0.578076  0  2.278104  0  0  -0.596334  0  2.263774  0  0  -0.329231  -0.565206  0  2.286833  0
O  O40  1  0.97421779  0.78760732  0.39523221  1  0  -0.826505  0  1.948652  0  0  -0.764398  0  2.143468  0  0  -0.784652  0  2.111995  0  0  -0.583305  -0.750026  0  2.165174  0
O  O41  1  0.02578089  0.21239027  0.60476277  1  0  -0.826508  0  1.948626  0  0  -0.764405  0  2.143447  0  0  -0.78466  0  2.111979  0  0  -0.583314  -0.750032  0  2.165155  0
F  F42  1  0.36559555  0.33238052  0.91321305  1  0  -0.22129  0  1.190215  0  0  -0.186143  0  1.359275  0  0  -0.195427  0  1.343147  0  0  -0.09361  -0.179603  0  1.370337  0
F  F43  1  0.63439930  0.66762744  0.08678767  1  0  -0.221159  0  1.190301  0  0  -0.18603  0  1.359328  0  0  -0.195321  0  1.343197  0  0  -0.09352  -0.179492  0  1.370383  0
F  F44  1  0.73321287  0.33876511  0.94979545  1  0  -0.213434  0  1.210691  0  0  -0.17797  0  1.38245  0  0  -0.188274  0  1.36781  0  0  -0.088261  -0.170789  0  1.392545  0
F  F45  1  0.26677985  0.66122417  0.05020519  1  0  -0.213409  0  1.21066  0  0  -0.177966  0  1.382382  0  0  -0.188273  0  1.367734  0  0  -0.08823  -0.170787  0  1.39247  0
F  F46  1  0.52302000  0.16215026  0.97326141  1  0  -0.225326  0  1.194323  0  0  -0.179024  0  1.352712  0  0  -0.190404  0  1.339503  0  0  -0.087164  -0.16882  0  1.35913  0
F  F47  1  0.47694656  0.83785850  0.02673762  1  0  -0.225202  0  1.194253  0  0  -0.178915  0  1.352587  0  0  -0.190302  0  1.339372  0  0  -0.087153  -0.168729  0  1.359012  0
