# generated using pymatgen
data_Zn4H8C24S4O17
_symmetry_space_group_name_H-M   'P 1'
_cell_length_a   19.68653290
_cell_length_b   19.68795846
_cell_length_c   33.43454203
_cell_angle_alpha   79.01371338
_cell_angle_beta   79.01888938
_cell_angle_gamma   63.84494863
_symmetry_Int_Tables_number   1
_chemical_formula_structural   Zn4H8C24S4O17
_chemical_formula_sum   'Zn16 H32 C96 S16 O68'
_cell_volume   11335.03220370
_cell_formula_units_Z   4
loop_
 _symmetry_equiv_pos_site_id
 _symmetry_equiv_pos_as_xyz
  1  'x, y, z'
loop_
 _atom_site_type_symbol
 _atom_site_label
 _atom_site_symmetry_multiplicity
 _atom_site_fract_x
 _atom_site_fract_y
 _atom_site_fract_z
 _atom_site_occupancy
 _atom_site_pbe_bader_charge
 _atom_site_pbe_bader_spin_density
 _atom_site_pbe_cm5_charge
 _atom_site_pbe_ddec_charge
 _atom_site_pbe_ddec_spin_density
 _atom_site_pbe_ddec_sum_bond_order
 _atom_site_pbe_magmom
Zn  Zn0  1  0.05619567  0.40118483  0.47875662  1  1.315858  0  0.677587  0.969363  0  2.364735  0
Zn  Zn1  1  0.98253542  0.48245905  0.56001775  1  1.317447  0  0.676713  0.962695  0  2.370481  0
Zn  Zn2  1  0.06007136  0.55999945  0.48247020  1  1.320522  0  0.677372  0.966221  0  2.366177  0
Zn  Zn3  1  0.90120409  0.55616538  0.47875607  1  1.316573  0  0.677346  0.966289  0  2.367098  0
Zn  Zn4  1  0.69371553  0.34884018  0.27126216  1  1.316531  0  0.677578  0.969758  0  2.362533  0
Zn  Zn5  1  0.68991130  0.19000794  0.26750622  1  1.320715  0  0.677424  0.96625  0  2.365332  0
Zn  Zn6  1  0.76746941  0.26754391  0.18998619  1  1.318685  0  0.676999  0.965699  0  2.366624  0
Zn  Zn7  1  0.84879061  0.19376465  0.27126321  1  1.315375  0  0.676987  0.963502  0  2.36872  0
Zn  Zn8  1  0.26747365  0.76753454  0.69000775  1  1.318245  0  0.676505  0.962405  0  2.370645  0
Zn  Zn9  1  0.34879085  0.69377614  0.77127845  1  1.316568  0  0.677341  0.96677  0  2.365266  0
Zn  Zn10  1  0.19372831  0.84881217  0.77129200  1  1.316735  0  0.677565  0.969735  0  2.362617  0
Zn  Zn11  1  0.18991094  0.68999110  0.76753837  1  1.320503  0  0.677283  0.966292  0  2.365676  0
Zn  Zn12  1  0.56007496  0.05998751  0.98249988  1  1.320755  0  0.677407  0.966099  0  2.366591  0
Zn  Zn13  1  0.40120648  0.05618060  0.97876304  1  1.315389  0  0.677015  0.963129  0  2.370573  0
Zn  Zn14  1  0.55621205  0.90115221  0.97877984  1  1.316086  0  0.677587  0.969444  0  2.364665  0
Zn  Zn15  1  0.48257206  0.98245590  0.06002152  1  1.318531  0  0.676804  0.965245  0  2.367047  0
H  H16  1  0.28629225  0.51057840  0.40934044  1  0.134176  0  0.123857  0.15054  0  0.965057  0
H  H17  1  0.46363710  0.23940235  0.34061838  1  0.135171  0  0.123638  0.150305  0  0.965469  0
H  H18  1  0.77154893  0.54732097  0.64848549  1  0.113574  0  0.123614  0.15055  0  0.964659  0
H  H19  1  0.47852977  0.70268932  0.60150127  1  0.114748  0  0.123602  0.150587  0  0.964402  0
H  H20  1  0.04733945  0.27152717  0.64845798  1  0.114043  0  0.123623  0.150453  0  0.964763  0
H  H21  1  0.20269290  0.97852846  0.60152606  1  0.11474  0  0.123552  0.150465  0  0.964725  0
H  H22  1  0.80084809  0.77904092  0.40214745  1  0.138686  0  0.123763  0.150286  0  0.964222  0
H  H23  1  0.94904053  0.97095815  0.34790085  1  0.137723  0  0.123353  0.14956  0  0.965077  0
H  H24  1  0.70274321  0.47852516  0.10152326  1  0.115059  0  0.123841  0.150995  0  0.964101  0
H  H25  1  0.54729085  0.77153122  0.14845874  1  0.114531  0  0.123939  0.151042  0  0.964204  0
H  H26  1  0.08689123  0.10877828  0.20996712  1  0.134082  0  0.123569  0.149866  0  0.965215  0
H  H27  1  0.16311785  0.14118577  0.04000346  1  0.133338  0  0.123542  0.150017  0  0.965179  0
H  H28  1  0.44907388  0.47096017  0.84787746  1  0.13775  0  0.123597  0.14984  0  0.964486  0
H  H29  1  0.30088660  0.27903874  0.90212127  1  0.136346  0  0.123188  0.149356  0  0.965268  0
H  H30  1  0.96362844  0.73940619  0.84062570  1  0.134995  0  0.123585  0.150232  0  0.965442  0
H  H31  1  0.78628229  0.01058425  0.90934573  1  0.134466  0  0.123927  0.150562  0  0.964881  0
H  H32  1  0.81004200  0.52717840  0.41870543  1  0.64217  0  0.306585  0.350922  0  0.970088  0
H  H33  1  0.93975275  0.22295344  0.33133788  1  0.642121  0  0.306075  0.350621  0  0.971114  0
H  H34  1  0.72275072  0.44005991  0.33137778  1  0.645674  0  0.307157  0.351502  0  0.968778  0
H  H35  1  0.02735541  0.30987113  0.41864106  1  0.644409  0  0.307084  0.351648  0  0.968533  0
H  H36  1  0.13562318  0.63575519  0.52707796  1  0.651813  0  0.306784  0.350774  0  0.970316  0
H  H37  1  0.11439293  0.61424640  0.72288893  1  0.615749  0  0.306616  0.350755  0  0.970526  0
H  H38  1  0.22294460  0.72290998  0.61448361  1  0.656036  0  0.306234  0.350605  0  0.972883  0
H  H39  1  0.02709912  0.52711542  0.63551685  1  0.657078  0  0.306336  0.35084  0  0.972674  0
H  H40  1  0.72306150  0.22287847  0.11440603  1  0.657211  0  0.306575  0.350865  0  0.971231  0
H  H41  1  0.52699003  0.02714914  0.13559380  1  0.658252  0  0.306864  0.351408  0  0.970515  0
H  H42  1  0.63559775  0.13575665  0.02708171  1  0.651048  0  0.306767  0.350775  0  0.97062  0
H  H43  1  0.61441990  0.11424303  0.22288778  1  0.652107  0  0.306645  0.350836  0  0.970703  0
H  H44  1  0.22275107  0.94005388  0.83138295  1  0.645694  0  0.30704  0.351495  0  0.968838  0
H  H45  1  0.52735303  0.80986978  0.91864676  1  0.644314  0  0.307247  0.35184  0  0.968192  0
H  H46  1  0.31019277  0.02713184  0.91867932  1  0.641536  0  0.306175  0.350625  0  0.970843  0
H  H47  1  0.43990766  0.72290110  0.83131329  1  0.642096  0  0.306509  0.351055  0  0.970054  0
C  C48  1  0.06130166  0.31583180  0.56172484  1  1.561467  0  0.219749  0.614105  0  4.214518  0
C  C49  1  0.06997242  0.57004463  0.56991675  1  1.457878  0  0.227129  0.630434  0  4.115674  0
C  C50  1  0.18436357  0.43893718  0.43857239  1  1.563692  0  0.218586  0.612913  0  4.213529  0
C  C51  1  0.93803344  0.68435041  0.43854748  1  1.534708  0  0.219426  0.613367  0  4.21029  0
C  C52  1  0.93006603  0.42994950  0.43010255  1  1.449586  0  0.227349  0.631141  0  4.117315  0
C  C53  1  0.81583284  0.56129213  0.56173599  1  1.560961  0  0.219491  0.613596  0  4.215282  0
C  C54  1  0.56554019  0.31109193  0.31145035  1  1.562329  0  0.219008  0.612867  0  4.212355  0
C  C55  1  0.68011154  0.17996533  0.18006001  1  1.459638  0  0.227194  0.630835  0  4.113381  0
C  C56  1  0.68877796  0.43418207  0.18830610  1  1.561938  0  0.219918  0.613504  0  4.214531  0
C  C57  1  0.93463574  0.18833735  0.18872680  1  1.523231  0  0.219284  0.61477  0  4.210922  0
C  C58  1  0.81992092  0.32004506  0.31994075  1  1.449656  0  0.227076  0.630514  0  4.116875  0
C  C59  1  0.81190344  0.06553365  0.31145741  1  1.541577  0  0.219694  0.614191  0  4.209828  0
C  C60  1  0.43419826  0.68874698  0.68829500  1  1.562485  0  0.219741  0.613854  0  4.214544  0
C  C61  1  0.31994872  0.82004014  0.81992516  1  1.450755  0  0.227292  0.630737  0  4.116983  0
C  C62  1  0.18876412  0.93417738  0.68830400  1  1.562393  0  0.220098  0.614034  0  4.214467  0
C  C63  1  0.06551780  0.81110484  0.81144187  1  1.561695  0  0.218845  0.613094  0  4.21224  0
C  C64  1  0.18006458  0.67997336  0.68007030  1  1.457769  0  0.22716  0.630722  0  4.113632  0
C  C65  1  0.31190672  0.56553896  0.81144427  1  1.540599  0  0.219773  0.613914  0  4.209724  0
C  C66  1  0.43804059  0.18435459  0.93852672  1  1.535142  0  0.219204  0.613004  0  4.210828  0
C  C67  1  0.43008929  0.92994909  0.93008397  1  1.45036  0  0.227158  0.631189  0  4.117953  0
C  C68  1  0.68434359  0.93894848  0.93856517  1  1.563305  0  0.218541  0.61254  0  4.21388  0
C  C69  1  0.56128215  0.81582994  0.06171888  1  1.561335  0  0.21972  0.613894  0  4.21468  0
C  C70  1  0.56992012  0.07006345  0.06992990  1  1.454688  0  0.226986  0.630195  0  4.114532  0
C  C71  1  0.31538092  0.06172547  0.06127898  1  1.524854  0  0.219257  0.614526  0  4.212321  0
C  C72  1  0.90211916  0.40203832  0.40204573  1  0.000775  0  -0.050285  -0.300649  0  4.026993  0
C  C73  1  0.84799390  0.34805582  0.34790026  1  -0.001874  0  -0.0503  -0.29998  0  4.027561  0
C  C74  1  0.82911913  0.44785105  0.38840075  1  0.592144  0  0.069644  0.197007  0  4.062646  0
C  C75  1  0.92099329  0.30227077  0.36154318  1  0.58439  0  0.069187  0.196282  0  4.064184  0
C  C76  1  0.80226487  0.42104613  0.36154531  1  0.586797  0  0.070105  0.19756  0  4.063711  0
C  C77  1  0.94787957  0.32903337  0.38839586  1  0.592773  0  0.069666  0.197241  0  4.062547  0
C  C78  1  0.09799918  0.59800923  0.59791654  1  0.028026  0  -0.050278  -0.300085  0  4.027121  0
C  C79  1  0.15206126  0.65202347  0.65204720  1  -0.010127  0  -0.050678  -0.301086  0  4.026958  0
C  C80  1  0.14136706  0.64131470  0.58186833  1  0.58935  0  0.069778  0.196433  0  4.064968  0
C  C81  1  0.10868089  0.60872641  0.66808629  1  0.589076  0  0.069639  0.196839  0  4.065363  0
C  C82  1  0.16819505  0.66812948  0.60873454  1  0.600945  0  0.069663  0.197354  0  4.063019  0
C  C83  1  0.08187506  0.58191939  0.64122219  1  0.565112  0  0.069811  0.197643  0  4.065084  0
C  C84  1  0.30360973  0.45382759  0.40123895  1  0.037566  0  -0.085729  -0.131872  0  3.962206  0
C  C85  1  0.44626941  0.29615226  0.34874070  1  0.033862  0  -0.085508  -0.132161  0  3.962872  0
C  C86  1  0.25902592  0.41359124  0.41365001  1  -0.181326  0  -0.025032  -0.122887  0  3.993  0
C  C87  1  0.49087336  0.33638328  0.33638755  1  -0.17993  0  -0.024934  -0.122121  0  3.992418  0
C  C88  1  0.37804841  0.33879713  0.37236495  1  -0.129808  0  -0.018892  -0.006227  0  4.063092  0
C  C89  1  0.37178024  0.41115072  0.37760397  1  -0.147929  0  -0.019072  -0.006624  0  4.064638  0
C  C90  1  0.72637951  0.57622190  0.62878679  1  -0.00213  0  -0.085559  -0.132876  0  3.9633  0
C  C91  1  0.52367230  0.67379689  0.62121814  1  -0.003672  0  -0.085516  -0.132176  0  3.963281  0
C  C92  1  0.74091913  0.58636729  0.58639562  1  -0.086663  0  -0.024933  -0.121284  0  3.992916  0
C  C93  1  0.50911168  0.66363239  0.66360770  1  -0.085339  0  -0.025125  -0.122045  0  3.992591  0
C  C94  1  0.60274979  0.64197325  0.60849719  1  -0.162112  0  -0.019609  -0.007348  0  4.065374  0
C  C95  1  0.64730831  0.60799830  0.64152507  1  -0.162667  0  -0.019485  -0.006479  0  4.064722  0
C  C96  1  0.07624675  0.22635001  0.62877209  1  -0.001216  0  -0.085604  -0.132504  0  3.96361  0
C  C97  1  0.17379963  0.02367621  0.62123083  1  0.028678  0  -0.08567  -0.132454  0  3.963895  0
C  C98  1  0.08639196  0.24090820  0.58638058  1  -0.087518  0  -0.024938  -0.122086  0  3.993485  0
C  C99  1  0.16363571  0.00909899  0.66362078  1  -0.085073  0  -0.025105  -0.122085  0  3.993233  0
C  C100  1  0.14199120  0.10274690  0.60849372  1  -0.194703  0  -0.019567  -0.007137  0  4.064182  0
C  C101  1  0.10801863  0.14728619  0.64152739  1  -0.163183  0  -0.019616  -0.007083  0  4.064426  0
C  C102  1  0.84489041  0.79988334  0.39753842  1  0.09682  0  -0.084989  -0.130585  0  3.961546  0
C  C103  1  0.90505254  0.95004916  0.35249925  1  0.09988  0  -0.085854  -0.131235  0  3.962378  0
C  C104  1  0.91357483  0.75904188  0.41365104  1  -0.201235  0  -0.024992  -0.122476  0  3.993292  0
C  C105  1  0.83636019  0.99086286  0.33639292  1  -0.213832  0  -0.025042  -0.122807  0  3.993464  0
C  C106  1  0.90829292  0.88046557  0.37475264  1  -0.180758  0  -0.01912  -0.006744  0  4.063915  0
C  C107  1  0.84173870  0.86940074  0.37524460  1  -0.177726  0  -0.019462  -0.007111  0  4.064875  0
C  C108  1  0.65207853  0.15203348  0.15204386  1  -0.013402  0  -0.0507  -0.301615  0  4.027326  0
C  C109  1  0.59797944  0.09800985  0.09792066  1  0.02847  0  -0.050358  -0.30019  0  4.026918  0
C  C110  1  0.66817644  0.16815506  0.10872743  1  0.60039  0  0.069808  0.197233  0  4.062964  0
C  C111  1  0.58189919  0.08189542  0.14123019  1  0.564477  0  0.070084  0.19767  0  4.064674  0
C  C112  1  0.64133476  0.14132989  0.08187103  1  0.590065  0  0.069728  0.196374  0  4.064262  0
C  C113  1  0.60872326  0.10871299  0.16808426  1  0.589623  0  0.069858  0.197292  0  4.064913  0
C  C114  1  0.67381768  0.52367205  0.12122761  1  0.028831  0  -0.085294  -0.132224  0  3.962608  0
C  C115  1  0.57622774  0.72635615  0.12877358  1  -0.001207  0  -0.085385  -0.132409  0  3.96274  0
C  C116  1  0.66364179  0.50909258  0.16361910  1  -0.08448  0  -0.024994  -0.121852  0  3.992473  0
C  C117  1  0.58638319  0.74092041  0.08637999  1  -0.087368  0  -0.024974  -0.122188  0  3.993466  0
C  C118  1  0.60801045  0.64728833  0.14152604  1  -0.163167  0  -0.019346  -0.006746  0  4.063886  0
C  C119  1  0.64200238  0.60274610  0.10849387  1  -0.194316  0  -0.019552  -0.007188  0  4.064018  0
C  C120  1  0.07993412  0.12488299  0.17753445  1  0.027427  0  -0.085618  -0.131259  0  3.963365  0
C  C121  1  0.17004724  0.12501872  0.07243909  1  0.02815  0  -0.085477  -0.131217  0  3.962577  0
C  C122  1  0.00908135  0.16355914  0.16359098  1  -0.123806  0  -0.0249  -0.123046  0  3.993402  0
C  C123  1  0.24090325  0.08638767  0.08638954  1  -0.124442  0  -0.025049  -0.123178  0  3.993855  0
C  C124  1  0.11135917  0.13905789  0.10558283  1  -0.174736  0  -0.019249  -0.007026  0  4.065188  0
C  C125  1  0.13858430  0.11078221  0.14438242  1  -0.173803  0  -0.019057  -0.006594  0  4.065802  0
C  C126  1  0.34799260  0.84804225  0.84790015  1  -0.002603  0  -0.050397  -0.300193  0  4.027459  0
C  C127  1  0.40211844  0.90202453  0.90204379  1  0.000674  0  -0.050158  -0.300454  0  4.027578  0
C  C128  1  0.30225780  0.92103800  0.86155391  1  0.586969  0  0.069845  0.197348  0  4.06402  0
C  C129  1  0.44787422  0.82902764  0.88840312  1  0.592755  0  0.06999  0.197456  0  4.062138  0
C  C130  1  0.32911098  0.94783462  0.88840589  1  0.590574  0  0.069226  0.196697  0  4.062949  0
C  C131  1  0.42098513  0.80225329  0.86154903  1  0.585628  0  0.069617  0.196731  0  4.063815  0
C  C132  1  0.40507210  0.45006665  0.85248974  1  0.099995  0  -0.085209  -0.130429  0  3.961232  0
C  C133  1  0.34491000  0.29989773  0.89752715  1  0.098928  0  -0.085411  -0.130924  0  3.962846  0
C  C134  1  0.33637744  0.49088386  0.83638747  1  -0.211528  0  -0.02492  -0.12252  0  3.993395  0
C  C135  1  0.41359842  0.25905774  0.91363618  1  -0.203992  0  -0.024702  -0.12204  0  3.993182  0
C  C136  1  0.34174797  0.36942351  0.87524072  1  -0.178929  0  -0.019555  -0.007176  0  4.065479  0
C  C137  1  0.40830675  0.38048799  0.87474830  1  -0.180177  0  -0.019049  -0.006559  0  4.06338  0
C  C138  1  0.94625906  0.79615685  0.84874363  1  0.033814  0  -0.08559  -0.132068  0  3.962814  0
C  C139  1  0.80359995  0.95383661  0.90124104  1  0.038043  0  -0.085807  -0.131883  0  3.962125  0
C  C140  1  0.99086418  0.83638898  0.83638515  1  -0.17912  0  -0.025031  -0.122511  0  3.992897  0
C  C141  1  0.75901673  0.91360057  0.91364721  1  -0.181764  0  -0.024705  -0.12233  0  3.99253  0
C  C142  1  0.87177160  0.91115615  0.87760662  1  -0.147667  0  -0.018931  -0.006391  0  4.064571  0
C  C143  1  0.87804204  0.83880211  0.87236860  1  -0.129966  0  -0.018967  -0.006445  0  4.063354  0
S  S144  1  0.29940942  0.32414423  0.39676035  1  0.280377  0  0.090777  0.132018  0  2.722822  0
S  S145  1  0.45043415  0.42581539  0.35327385  1  0.282202  0  0.090748  0.131902  0  2.724313  0
S  S146  1  0.65911646  0.63430823  0.56187812  1  0.268971  0  0.090014  0.130975  0  2.724605  0
S  S147  1  0.59091829  0.61569076  0.68813352  1  0.268138  0  0.090141  0.131014  0  2.724865  0
S  S148  1  0.13434733  0.15912019  0.56186314  1  0.269599  0  0.090808  0.132126  0  2.723273  0
S  S149  1  0.11568311  0.09089403  0.68814612  1  0.269061  0  0.09081  0.132035  0  2.723728  0
S  S150  1  0.97438924  0.80459424  0.40189182  1  0.276431  0  0.08937  0.1302  0  2.725364  0
S  S151  1  0.77560934  0.94525112  0.34811998  1  0.286042  0  0.090174  0.131181  0  2.725684  0
S  S152  1  0.61566472  0.59089115  0.18814434  1  0.269083  0  0.090695  0.131781  0  2.723344  0
S  S153  1  0.63436476  0.65912349  0.06186336  1  0.269368  0  0.090728  0.131941  0  2.723138  0
S  S154  1  0.01323810  0.18294315  0.11043396  1  0.268049  0  0.089745  0.131168  0  2.725269  0
S  S155  1  0.23670835  0.06702018  0.13954085  1  0.269608  0  0.089595  0.130922  0  2.72587  0
S  S156  1  0.27562202  0.44527350  0.84811697  1  0.285048  0  0.089538  0.130223  0  2.72649  0
S  S157  1  0.47440708  0.30461035  0.90188564  1  0.278993  0  0.089807  0.130735  0  2.724903  0
S  S158  1  0.95042553  0.92582135  0.85327375  1  0.281763  0  0.090494  0.131601  0  2.724272  0
S  S159  1  0.79940135  0.82414994  0.89676231  1  0.280226  0  0.090937  0.132145  0  2.722783  0
O  O160  1  0.99999811  0.49999352  0.50003095  1  -1.234055  0  -0.571693  -1.026778  0  2.540988  0
O  O161  1  0.07713592  0.31596620  0.52271859  1  -1.176209  0  -0.320734  -0.549953  0  2.338457  0
O  O162  1  0.03088274  0.53090410  0.58517419  1  -1.17121  0  -0.307832  -0.548505  0  2.371794  0
O  O163  1  0.15705848  0.50524315  0.45011346  1  -1.17242  0  -0.317174  -0.54059  0  2.317616  0
O  O164  1  0.02596263  0.37418654  0.58119883  1  -1.173013  0  -0.318044  -0.541877  0  2.318138  0
O  O165  1  0.15314789  0.39209979  0.44653938  1  -1.183339  0  -0.32028  -0.549413  0  2.338077  0
O  O166  1  0.08516661  0.58534842  0.53081914  1  -1.189174  0  -0.30686  -0.546598  0  2.368276  0
O  O167  1  0.00447481  0.65689923  0.45015276  1  -1.17385  0  -0.321143  -0.550847  0  2.336656  0
O  O168  1  0.88757210  0.49618822  0.44206865  1  -1.181213  0  -0.307585  -0.548309  0  2.371914  0
O  O169  1  0.89121564  0.65332020  0.44647487  1  -1.154445  0  -0.316975  -0.539716  0  2.315462  0
O  O170  1  0.99632998  0.38749968  0.44203948  1  -1.168161  0  -0.307377  -0.547748  0  2.369978  0
O  O171  1  0.87420371  0.52594905  0.58119797  1  -1.172357  0  -0.317767  -0.541424  0  2.317564  0
O  O172  1  0.81593231  0.57716428  0.52273074  1  -1.176855  0  -0.320961  -0.550692  0  2.339364  0
O  O173  1  0.75001103  0.25000311  0.25001478  1  -1.234048  0  -0.571645  -1.02697  0  2.540307  0
O  O174  1  0.59670853  0.35798126  0.30347508  1  -1.182055  0  -0.320477  -0.549739  0  2.336773  0
O  O175  1  0.66486266  0.16467459  0.21915946  1  -1.188393  0  -0.30723  -0.547143  0  2.36762  0
O  O176  1  0.72409416  0.37579946  0.16885439  1  -1.172756  0  -0.317774  -0.540743  0  2.317685  0
O  O177  1  0.59289886  0.24480510  0.29988699  1  -1.172111  0  -0.317067  -0.540268  0  2.316938  0
O  O178  1  0.67294244  0.43407813  0.22731724  1  -1.177086  0  -0.320784  -0.550232  0  2.338243  0
O  O179  1  0.71927022  0.21904592  0.16480845  1  -1.169761  0  -0.307373  -0.547799  0  2.369461  0
O  O180  1  0.87604995  0.22376971  0.16927942  1  -1.169936  0  -0.320977  -0.550609  0  2.336086  0
O  O181  1  0.86234351  0.25373013  0.30804249  1  -1.180969  0  -0.307551  -0.548654  0  2.371899  0
O  O182  1  0.93465629  0.17250322  0.22763524  1  -1.141311  0  -0.317577  -0.541998  0  2.316695  0
O  O183  1  0.75362505  0.36243398  0.30804177  1  -1.168249  0  -0.307079  -0.547109  0  2.368619  0
O  O184  1  0.74548811  0.09302171  0.29983704  1  -1.175725  0  -0.320983  -0.550711  0  2.335875  0
O  O185  1  0.85875953  0.09653346  0.30352019  1  -1.157211  0  -0.317625  -0.541258  0  2.31586  0
O  O186  1  0.24998583  0.75000427  0.75000640  1  -1.234078  0  -0.571371  -1.026929  0  2.540835  0
O  O187  1  0.37581549  0.72406451  0.66883680  1  -1.172684  0  -0.31809  -0.541583  0  2.31749  0
O  O188  1  0.36238219  0.75375084  0.80800437  1  -1.18146  0  -0.307445  -0.548319  0  2.371339  0
O  O189  1  0.17294293  0.93404836  0.72731123  1  -1.177563  0  -0.32066  -0.549973  0  2.337912  0
O  O190  1  0.43409703  0.67288485  0.72730174  1  -1.177453  0  -0.320804  -0.550591  0  2.338479  0
O  O191  1  0.22406275  0.87581524  0.66883193  1  -1.17279  0  -0.318271  -0.541771  0  2.317957  0
O  O192  1  0.25363970  0.86243969  0.80803064  1  -1.168538  0  -0.307421  -0.547604  0  2.369063  0
O  O193  1  0.09669017  0.85798891  0.80346166  1  -1.182237  0  -0.320537  -0.549763  0  2.337191  0
O  O194  1  0.16484938  0.66466083  0.71916427  1  -1.188789  0  -0.306824  -0.546568  0  2.367373  0
O  O195  1  0.09287309  0.74481792  0.79987381  1  -1.172191  0  -0.317146  -0.540721  0  2.316848  0
O  O196  1  0.21917135  0.71910986  0.66481053  1  -1.17006  0  -0.307623  -0.548281  0  2.37036  0
O  O197  1  0.35872458  0.59658014  0.80350222  1  -1.156994  0  -0.317448  -0.540427  0  2.315328  0
O  O198  1  0.24549097  0.59298692  0.79981876  1  -1.175427  0  -0.321039  -0.550939  0  2.336363  0
O  O199  1  0.49998084  0.99999821  0.00000595  1  -1.23428  0  -0.571503  -1.026667  0  2.540958  0
O  O200  1  0.50447764  0.15686428  0.95013389  1  -1.173197  0  -0.320855  -0.550267  0  2.336476  0
O  O201  1  0.38761081  0.99621260  0.94202384  1  -1.181427  0  -0.307706  -0.548807  0  2.373246  0
O  O202  1  0.65314047  0.89210223  0.94653085  1  -1.182696  0  -0.320239  -0.549248  0  2.33806  0
O  O203  1  0.39119031  0.15336235  0.94644394  1  -1.155194  0  -0.317475  -0.540568  0  2.315902  0
O  O204  1  0.65703042  0.00525729  0.95009768  1  -1.172254  0  -0.31702  -0.540216  0  2.31768  0
O  O205  1  0.49633837  0.88750127  0.94203038  1  -1.16892  0  -0.307071  -0.547392  0  2.369414  0
O  O206  1  0.57711594  0.81593562  0.02271013  1  -1.176335  0  -0.320669  -0.550035  0  2.339091  0
O  O207  1  0.53078082  0.03097424  0.08518118  1  -1.16931  0  -0.307086  -0.547377  0  2.370322  0
O  O208  1  0.52593749  0.87420946  0.08117134  1  -1.172986  0  -0.317655  -0.540928  0  2.317727  0
O  O209  1  0.58514973  0.08533696  0.03082606  1  -1.189095  0  -0.307297  -0.547217  0  2.367908  0
O  O210  1  0.31535448  0.07762149  0.02237280  1  -1.142294  0  -0.317476  -0.541667  0  2.31816  0
O  O211  1  0.37396613  0.02629905  0.08072578  1  -1.170251  0  -0.320842  -0.550372  0  2.335806  0
O  O212  1  0.78250358  0.51758058  0.39996750  1  -1.131347  0  -0.356559  -0.417619  0  2.271429  0
O  O213  1  0.96751219  0.23252075  0.34997037  1  -1.132931  0  -0.357715  -0.419118  0  2.271669  0
O  O214  1  0.73254274  0.46764366  0.35000110  1  -1.134441  0  -0.356109  -0.417128  0  2.272212  0
O  O215  1  0.01758910  0.28235407  0.39997027  1  -1.134088  0  -0.356559  -0.417832  0  2.270914  0
O  O216  1  0.15890887  0.65880234  0.54122096  1  -1.143925  0  -0.357528  -0.418152  0  2.272197  0
O  O217  1  0.09110725  0.59124235  0.70872388  1  -1.105424  0  -0.357175  -0.418085  0  2.272992  0
O  O218  1  0.20889289  0.70879440  0.59127482  1  -1.149079  0  -0.357533  -0.418753  0  2.273182  0
O  O219  1  0.04117192  0.54126216  0.65870558  1  -1.147863  0  -0.357654  -0.419269  0  2.274769  0
O  O220  1  0.70883398  0.20883758  0.09124327  1  -1.148803  0  -0.356962  -0.417703  0  2.273166  0
O  O221  1  0.54124490  0.04121597  0.15873758  1  -1.147632  0  -0.357177  -0.418467  0  2.274714  0
O  O222  1  0.65885663  0.15882848  0.04122224  1  -1.143096  0  -0.357414  -0.417977  0  2.272337  0
O  O223  1  0.59117988  0.09119558  0.20872309  1  -1.141677  0  -0.35726  -0.418232  0  2.273415  0
O  O224  1  0.23252883  0.96764098  0.85000866  1  -1.134925  0  -0.356492  -0.417725  0  2.272266  0
O  O225  1  0.51757874  0.78235762  0.89997511  1  -1.133442  0  -0.356254  -0.417456  0  2.270569  0
O  O226  1  0.28251158  0.01757099  0.89999930  1  -1.131297  0  -0.35771  -0.419121  0  2.270581  0
O  O227  1  0.46752434  0.73251109  0.85000187  1  -1.131578  0  -0.356592  -0.417778  0  2.272138  0
