# generated using pymatgen
data_Er2H9C21(NO4)3
_symmetry_space_group_name_H-M   'P 1'
_cell_length_a   7.31397863
_cell_length_b   16.22282713
_cell_length_c   16.22104144
_cell_angle_alpha   119.99710453
_cell_angle_beta   89.99969534
_cell_angle_gamma   90.00112756
_symmetry_Int_Tables_number   1
_chemical_formula_structural   Er2H9C21(NO4)3
_chemical_formula_sum   'Er4 H18 C42 N6 O24'
_cell_volume   1666.87204607
_cell_formula_units_Z   2
loop_
 _symmetry_equiv_pos_site_id
 _symmetry_equiv_pos_as_xyz
  1  'x, y, z'
loop_
 _atom_site_type_symbol
 _atom_site_label
 _atom_site_symmetry_multiplicity
 _atom_site_fract_x
 _atom_site_fract_y
 _atom_site_fract_z
 _atom_site_occupancy
 _atom_site_pbe_bader_charge
 _atom_site_pbe_bader_spin_density
 _atom_site_pbe_cm5_charge
 _atom_site_pbe_ddec_charge
 _atom_site_pbe_ddec_spin_density
 _atom_site_pbe_ddec_sum_bond_order
 _atom_site_pbe_magmom
Er  Er0  1  0.13297696  0.66670274  0.33334870  1  2.142879  0  1.523603  2.02259  0  2.158562  0
Er  Er1  1  0.63288054  0.33332240  0.66666146  1  2.143064  0  1.523303  2.02219  0  2.159488  0
Er  Er2  1  0.63301397  0.66671594  0.33335356  1  2.14286  0  1.523664  2.022633  0  2.158878  0
Er  Er3  1  0.13276013  0.33331665  0.66665408  1  2.14241  0  1.523499  2.022222  0  2.159156  0
H  H4  1  0.62345884  0.42092622  0.27366850  1  0.083407  0  0.123936  0.094112  0  0.974232  0
H  H5  1  0.12338986  0.57910364  0.72631584  1  0.084857  0  0.123933  0.094159  0  0.974175  0
H  H6  1  0.62345543  0.85277167  0.57911311  1  0.05797  0  0.123984  0.094198  0  0.974073  0
H  H7  1  0.62350711  0.72632805  0.14719859  1  0.101331  0  0.123863  0.093888  0  0.974186  0
H  H8  1  0.12337714  0.27369867  0.85284809  1  0.101007  0  0.123994  0.094012  0  0.974365  0
H  H9  1  0.12332764  0.14716084  0.42086998  1  0.059182  0  0.123918  0.093901  0  0.974194  0
H  H10  1  0.12345432  0.85278672  0.27366706  1  0.101317  0  0.123954  0.094156  0  0.974293  0
H  H11  1  0.12347177  0.72634926  0.57916357  1  0.084183  0  0.12391  0.09399  0  0.974388  0
H  H12  1  0.12350868  0.42091491  0.14725291  1  0.053981  0  0.123895  0.094108  0  0.974336  0
H  H13  1  0.62342069  0.57910493  0.85278832  1  0.05428  0  0.124002  0.094265  0  0.974153  0
H  H14  1  0.62340701  0.27367847  0.42082291  1  0.084734  0  0.124014  0.094069  0  0.974476  0
H  H15  1  0.62332602  0.14714576  0.72632099  1  0.101172  0  0.124008  0.094049  0  0.974193  0
H  H16  1  0.07641848  0.46006228  0.46006442  1  0.168493  0  0.120052  0.130247  0  0.991842  0
H  H17  1  0.57638018  0.53991147  0.53991256  1  0.167809  0  0.120098  0.130309  0  0.992108  0
H  H18  1  0.07638357  0.00002737  0.53995811  1  0.144074  0  0.120118  0.130321  0  0.991965  0
H  H19  1  0.07641031  0.53989543  0.99997620  1  0.145426  0  0.120139  0.13037  0  0.991916  0
H  H20  1  0.57641007  0.46006188  0.99998032  1  0.144953  0  0.120096  0.130295  0  0.992036  0
H  H21  1  0.57639505  0.00002404  0.46007251  1  0.14391  0  0.120075  0.130255  0  0.992007  0
C  C22  1  0.69475867  0.40460724  0.32292445  1  0.580043  0  0.073526  0.115752  0  3.909433  0
C  C23  1  0.19472785  0.59541880  0.67705480  1  0.578455  0  0.073396  0.115546  0  3.910287  0
C  C24  1  0.69475309  0.91835010  0.59542389  1  0.621636  0  0.073357  0.115735  0  3.909934  0
C  C25  1  0.69481918  0.67705340  0.08162010  1  0.574437  0  0.073745  0.116535  0  3.909942  0
C  C26  1  0.19471657  0.32296735  0.91840512  1  0.575453  0  0.073336  0.115916  0  3.909831  0
C  C27  1  0.19468968  0.08159569  0.40456410  1  0.618111  0  0.073454  0.116057  0  3.909992  0
C  C28  1  0.19476000  0.91835963  0.32293600  1  0.578392  0  0.073393  0.115865  0  3.910171  0
C  C29  1  0.19478749  0.67706764  0.59544593  1  0.579306  0  0.073536  0.11611  0  3.910056  0
C  C30  1  0.19479275  0.40460539  0.08167686  1  0.628321  0  0.073696  0.116046  0  3.909676  0
C  C31  1  0.69476624  0.59541275  0.91835714  1  0.627808  0  0.07348  0.115702  0  3.909919  0
C  C32  1  0.69472228  0.32294879  0.40454293  1  0.577588  0  0.07345  0.116153  0  3.909481  0
C  C33  1  0.69468961  0.08159712  0.67705583  1  0.578461  0  0.073443  0.116072  0  3.909545  0
C  C34  1  0.86166445  0.44914068  0.36361083  1  0.018331  0  -0.008036  -0.083555  0  3.95021  0
C  C35  1  0.36161031  0.55086605  0.63638128  1  0.019031  0  -0.008157  -0.083884  0  3.950568  0
C  C36  1  0.86163917  0.91448950  0.55088579  1  0.012053  0  -0.008  -0.083902  0  3.950281  0
C  C37  1  0.86168096  0.63637283  0.08550132  1  0.02466  0  -0.008239  -0.084847  0  3.951265  0
C  C38  1  0.36160064  0.36362630  0.91450455  1  0.023719  0  -0.008189  -0.084002  0  3.950901  0
C  C39  1  0.36158910  0.08550016  0.44911845  1  0.011925  0  -0.008079  -0.083808  0  3.950516  0
C  C40  1  0.36165654  0.91448939  0.36361388  1  0.020089  0  -0.008165  -0.084429  0  3.95053  0
C  C41  1  0.36165364  0.63638760  0.55087912  1  0.017558  0  -0.008101  -0.084261  0  3.950709  0
C  C42  1  0.36168369  0.44913945  0.08552487  1  0.009227  0  -0.008233  -0.084143  0  3.95055  0
C  C43  1  0.86164029  0.55085928  0.91447278  1  0.010286  0  -0.008112  -0.083929  0  3.950808  0
C  C44  1  0.86161155  0.36362024  0.44910201  1  0.017475  0  -0.008158  -0.084305  0  3.95101  0
C  C45  1  0.86156626  0.08549591  0.63639596  1  0.019579  0  -0.008124  -0.083837  0  3.950841  0
C  C46  1  0.94706857  0.42684658  0.42683795  1  -0.10848  0  -0.04094  -0.029029  0  3.848536  0
C  C47  1  0.44705711  0.57313457  0.57313647  1  -0.108868  0  -0.041043  -0.029109  0  3.848433  0
C  C48  1  0.94704630  0.00000750  0.57316194  1  -0.088997  0  -0.040979  -0.029114  0  3.847943  0
C  C49  1  0.94709309  0.57311609  0.99998027  1  -0.091514  0  -0.040938  -0.028814  0  3.848061  0
C  C50  1  0.44709138  0.42684670  0.00000142  1  -0.090425  0  -0.040948  -0.028977  0  3.848447  0
C  C51  1  0.44705250  0.00000958  0.42685854  1  -0.089092  0  -0.040998  -0.029003  0  3.848218  0
C  C52  1  0.94522803  0.52321877  0.34761501  1  1.529383  0  0.220882  0.632558  0  4.152309  0
C  C53  1  0.44512132  0.47677663  0.65237226  1  1.529296  0  0.220824  0.633009  0  4.152447  0
C  C54  1  0.94526930  0.82443507  0.47682255  1  1.540451  0  0.220876  0.633023  0  4.151638  0
C  C55  1  0.94527415  0.65238342  0.17557586  1  1.54638  0  0.220954  0.633366  0  4.151468  0
C  C56  1  0.44510938  0.34761341  0.82440998  1  1.543411  0  0.221019  0.633064  0  4.152096  0
C  C57  1  0.44508962  0.17558432  0.52319867  1  1.542013  0  0.220721  0.632733  0  4.152781  0
C  C58  1  0.44524532  0.82441995  0.34760203  1  1.545969  0  0.221004  0.633547  0  4.15136  0
C  C59  1  0.44523134  0.65241792  0.47681560  1  1.532504  0  0.220982  0.633332  0  4.15168  0
C  C60  1  0.44527539  0.52322527  0.17560325  1  1.541435  0  0.22092  0.632901  0  4.152387  0
C  C61  1  0.94515736  0.47677687  0.82440071  1  1.541912  0  0.220717  0.632353  0  4.152552  0
C  C62  1  0.94513851  0.34759781  0.52317847  1  1.531012  0  0.221036  0.633342  0  4.151611  0
C  C63  1  0.94509309  0.17557021  0.65238925  1  1.543844  0  0.220777  0.632643  0  4.152608  0
N  N64  1  0.61280867  0.34209663  0.34203751  1  -1.174988  0  -0.3262  -0.276551  0  3.266275  0
N  N65  1  0.11282176  0.65792196  0.65793208  1  -1.175422  0  -0.326103  -0.276267  0  3.267436  0
N  N66  1  0.61277312  0.99995968  0.65791519  1  -1.209107  0  -0.325989  -0.276424  0  3.266578  0
N  N67  1  0.61285426  0.65791467  0.99999473  1  -1.209689  0  -0.326074  -0.276246  0  3.267015  0
N  N68  1  0.11282690  0.34209836  0.00005308  1  -1.209286  0  -0.326251  -0.276621  0  3.266358  0
N  N69  1  0.11278847  0.99997280  0.34207704  1  -1.207402  0  -0.326056  -0.276418  0  3.267694  0
O  O70  1  0.86522052  0.55330856  0.29628368  1  -1.201168  0  -0.426576  -0.744569  0  2.350209  0
O  O71  1  0.36513793  0.44669225  0.70369466  1  -1.200852  0  -0.426194  -0.744553  0  2.350539  0
O  O72  1  0.86528800  0.74301428  0.44672411  1  -1.202253  0  -0.426662  -0.744792  0  2.350305  0
O  O73  1  0.86531831  0.70375168  0.25700254  1  -1.216001  0  -0.426802  -0.744922  0  2.349937  0
O  O74  1  0.36514542  0.29626433  0.74299883  1  -1.214932  0  -0.426235  -0.744506  0  2.350285  0
O  O75  1  0.36509916  0.25697171  0.55326290  1  -1.203516  0  -0.426056  -0.74431  0  2.350506  0
O  O76  1  0.36526141  0.74302318  0.29627600  1  -1.215863  0  -0.426416  -0.744792  0  2.350433  0
O  O77  1  0.36523785  0.70375457  0.44674836  1  -1.20371  0  -0.426578  -0.744753  0  2.350493  0
O  O78  1  0.36531226  0.55330040  0.25701816  1  -1.202449  0  -0.426506  -0.744513  0  2.350338  0
O  O79  1  0.86514737  0.44670238  0.74297425  1  -1.203239  0  -0.426517  -0.744514  0  2.349958  0
O  O80  1  0.86513154  0.29624998  0.55324227  1  -1.201362  0  -0.426436  -0.744748  0  2.350046  0
O  O81  1  0.86504372  0.25698018  0.70374048  1  -1.215347  0  -0.426373  -0.744624  0  2.349583  0
O  O82  1  0.09815062  0.55841555  0.38565507  1  -1.165675  0  -0.368016  -0.600758  0  2.265049  0
O  O83  1  0.59803482  0.44156480  0.61430202  1  -1.1655  0  -0.368034  -0.600949  0  2.264934  0
O  O84  1  0.09820392  0.82728558  0.44164946  1  -1.166569  0  -0.367981  -0.600836  0  2.265346  0
O  O85  1  0.09817626  0.61433311  0.17273844  1  -1.167686  0  -0.367988  -0.600981  0  2.26511  0
O  O86  1  0.59803926  0.38567929  0.82725071  1  -1.16603  0  -0.368292  -0.601052  0  2.264713  0
O  O87  1  0.59802117  0.17274385  0.55842006  1  -1.166659  0  -0.368069  -0.600838  0  2.264935  0
O  O88  1  0.59819202  0.82726300  0.38562650  1  -1.167436  0  -0.368344  -0.601277  0  2.264923  0
O  O89  1  0.59818031  0.61441148  0.44163183  1  -1.166589  0  -0.36804  -0.601012  0  2.264762  0
O  O90  1  0.59817926  0.55842513  0.17274387  1  -1.167375  0  -0.36794  -0.600922  0  2.265305  0
O  O91  1  0.09802806  0.44153797  0.82722801  1  -1.167151  0  -0.368047  -0.600493  0  2.265522  0
O  O92  1  0.09804751  0.38563251  0.55839602  1  -1.166262  0  -0.368279  -0.600948  0  2.265074  0
O  O93  1  0.09796334  0.17276523  0.61434929  1  -1.165968  0  -0.368091  -0.600566  0  2.266222  0
