# generated using pymatgen
data_InH8C15NO10
_symmetry_space_group_name_H-M   'P 1'
_cell_length_a   7.20634830
_cell_length_b   15.10669677
_cell_length_c   22.17801141
_cell_angle_alpha   89.99994565
_cell_angle_beta   89.99971990
_cell_angle_gamma   98.23749791
_symmetry_Int_Tables_number   1
_chemical_formula_structural   InH8C15NO10
_chemical_formula_sum   'In4 H32 C60 N4 O40'
_cell_volume   2389.47961893
_cell_formula_units_Z   4
loop_
 _symmetry_equiv_pos_site_id
 _symmetry_equiv_pos_as_xyz
  1  'x, y, z'
loop_
 _atom_site_type_symbol
 _atom_site_label
 _atom_site_symmetry_multiplicity
 _atom_site_fract_x
 _atom_site_fract_y
 _atom_site_fract_z
 _atom_site_occupancy
 _atom_site_pbe_bader_charge
 _atom_site_pbe_bader_spin_density
 _atom_site_pbe_cm5_charge
 _atom_site_pbe_ddec_charge
 _atom_site_pbe_ddec_spin_density
 _atom_site_pbe_ddec_sum_bond_order
 _atom_site_pbe_magmom
In  In0  1  0.99951134  0.00004817  0.50004133  1  1.947675  0  0.767718  1.52549  0  2.768343  0
In  In1  1  0.50036472  0.49995411  0.00005580  1  1.94787  0  0.767666  1.52551  0  2.768031  0
In  In2  1  0.49952093  0.00002041  0.50000025  1  1.960526  0  0.772216  1.541066  0  2.827711  0
In  In3  1  0.00036149  0.49999327  0.99999443  1  1.961632  0  0.772195  1.541041  0  2.827946  0
H  H4  1  0.38997734  0.71795007  0.49355904  1  0.116715  0  0.114072  0.121877  0  1.0027  0
H  H5  1  0.91076701  0.72736728  0.59081892  1  0.137265  0  0.123108  0.144133  0  0.968979  0
H  H6  1  0.50082034  0.48940727  0.59651505  1  0.155958  0  0.121919  0.143521  0  0.975669  0
H  H7  1  0.54288479  0.59606848  0.69807729  1  0.120515  0  0.106962  0.125049  0  1.040476  0
H  H8  1  0.51537919  0.56867810  0.80864900  1  0.101433  0  0.115831  0.121371  0  0.974109  0
H  H9  1  0.05463279  0.47825540  0.81024197  1  0.143522  0  0.124002  0.139999  0  0.979116  0
H  H10  1  0.78534220  0.12223408  0.52905939  1  0.607154  0  0.324453  0.407299  0  0.885859  0
H  H11  1  0.05657530  0.44739758  0.53082197  1  0.657519  0  0.303927  0.363068  0  0.976686  0
H  H12  1  0.11004076  0.78203700  0.99355943  1  0.116317  0  0.114079  0.121841  0  1.002496  0
H  H13  1  0.58925832  0.77264217  0.09081626  1  0.137721  0  0.123154  0.14435  0  0.969134  0
H  H14  1  0.99924382  0.01059318  0.09650515  1  0.147591  0  0.121896  0.143409  0  0.975796  0
H  H15  1  0.95713201  0.90395008  0.19807442  1  0.12052  0  0.106927  0.124994  0  1.040506  0
H  H16  1  0.98460324  0.93130610  0.30864742  1  0.10173  0  0.115865  0.121415  0  0.974075  0
H  H17  1  0.44533535  0.02172260  0.31023665  1  0.144102  0  0.123934  0.139896  0  0.979257  0
H  H18  1  0.71458486  0.37778212  0.02906278  1  0.607492  0  0.324516  0.40737  0  0.885704  0
H  H19  1  0.44348314  0.05258969  0.03082205  1  0.657572  0  0.30392  0.36324  0  0.976619  0
H  H20  1  0.60974938  0.28198902  0.50644654  1  0.116713  0  0.114002  0.121924  0  1.00298  0
H  H21  1  0.08903817  0.27269215  0.40916051  1  0.137013  0  0.123176  0.144214  0  0.969087  0
H  H22  1  0.49921644  0.51056553  0.40347385  1  0.147788  0  0.121936  0.143558  0  0.97582  0
H  H23  1  0.45713582  0.40393312  0.30195264  1  0.120673  0  0.107026  0.126638  0  1.03873  0
H  H24  1  0.48475849  0.43129791  0.19138273  1  0.100575  0  0.115707  0.121386  0  0.973776  0
H  H25  1  0.94550718  0.52173265  0.18971041  1  0.14361  0  0.12396  0.139937  0  0.979114  0
H  H26  1  0.21367453  0.87788797  0.47093131  1  0.605688  0  0.324139  0.406609  0  0.88638  0
H  H27  1  0.94337550  0.55251645  0.46916196  1  0.656289  0  0.303788  0.363056  0  0.976796  0
H  H28  1  0.89028127  0.21800635  0.00644705  1  0.116764  0  0.113948  0.121796  0  1.003101  0
H  H29  1  0.41099177  0.22732031  0.90915595  1  0.137065  0  0.123191  0.144294  0  0.969158  0
H  H30  1  0.00084051  0.98943978  0.90346797  1  0.156115  0  0.121989  0.143697  0  0.975615  0
H  H31  1  0.04289411  0.09608764  0.80195010  1  0.120745  0  0.107062  0.126664  0  1.038816  0
H  H32  1  0.01524301  0.06869707  0.69137755  1  0.100031  0  0.115765  0.121451  0  0.973902  0
H  H33  1  0.55446521  0.97824918  0.68970400  1  0.143931  0  0.123973  0.139926  0  0.97921  0
H  H34  1  0.28625342  0.62212538  0.97094100  1  0.606004  0  0.324262  0.406883  0  0.886096  0
H  H35  1  0.55668511  0.94747260  0.96916279  1  0.656391  0  0.303795  0.362942  0  0.976827  0
C  C36  1  0.70770100  0.82840335  0.52091783  1  1.568971  0  0.247969  0.625388  0  4.148097  0
C  C37  1  0.65611024  0.73307438  0.53977081  1  -0.000979  0  -0.009382  -0.017417  0  3.97254  0
C  C38  1  0.48313613  0.68630364  0.52243081  1  0.036451  0  -0.065243  -0.090832  0  3.901442  0
C  C39  1  0.77520907  0.69190439  0.57696342  1  -0.064394  0  -0.066755  -0.160539  0  3.890717  0
C  C40  1  0.42754269  0.59891522  0.54233754  1  -0.011828  0  -0.011984  -0.026207  0  3.996049  0
C  C41  1  0.54487078  0.55714203  0.58012083  1  0.014648  0  -0.071066  -0.17731  0  3.917778  0
C  C42  1  0.71694785  0.60494443  0.59676148  1  0.4444  0  0.085764  0.244302  0  4.02963  0
C  C43  1  0.65589674  0.57140268  0.72264389  1  0.030953  0  -0.099979  -0.206963  0  3.982622  0
C  C44  1  0.81699655  0.55480803  0.69187410  1  0.441294  0  0.108283  0.240996  0  4.021573  0
C  C45  1  0.63966814  0.55501185  0.78432121  1  0.033191  0  -0.064451  -0.033885  0  3.929982  0
C  C46  1  0.96051436  0.52251491  0.72485847  1  0.174365  0  0.068233  -0.038731  0  3.941007  0
C  C47  1  0.23928855  0.55388856  0.52381350  1  1.522975  0  0.239391  0.585842  0  4.111755  0
C  C48  1  0.78117271  0.52064778  0.81639973  1  0.000434  0  -0.020689  -0.052152  0  3.982793  0
C  C49  1  0.76678672  0.50514042  0.88269018  1  1.574272  0  0.23977  0.614707  0  4.178746  0
C  C50  1  0.94218551  0.50366917  0.78589326  1  0.058845  0  -0.06556  -0.111313  0  3.949268  0
C  C51  1  0.79226441  0.67160635  0.02091627  1  1.568436  0  0.248201  0.626084  0  4.147562  0
C  C52  1  0.84390281  0.76693320  0.03977000  1  -0.000695  0  -0.009388  -0.017474  0  3.972369  0
C  C53  1  0.01689021  0.81368727  0.02243140  1  0.036229  0  -0.065202  -0.090635  0  3.900946  0
C  C54  1  0.72481412  0.80810643  0.07696458  1  -0.064804  0  -0.066824  -0.160885  0  3.891392  0
C  C55  1  0.07250116  0.90107495  0.04233753  1  -0.011987  0  -0.012139  -0.026526  0  3.996312  0
C  C56  1  0.95518454  0.94285603  0.08011568  1  0.023329  0  -0.070935  -0.177006  0  3.917954  0
C  C57  1  0.78309204  0.89506297  0.09675799  1  0.445585  0  0.085674  0.244235  0  4.029811  0
C  C58  1  0.84410967  0.92860580  0.22263937  1  0.031069  0  -0.100099  -0.207063  0  3.98267  0
C  C59  1  0.68302524  0.94520384  0.19186712  1  0.442708  0  0.108322  0.241022  0  4.021471  0
C  C60  1  0.86031261  0.94498379  0.28431981  1  0.032369  0  -0.064471  -0.033999  0  3.929875  0
C  C61  1  0.53948637  0.97748420  0.22484809  1  0.173394  0  0.068215  -0.038753  0  3.940982  0
C  C62  1  0.26076921  0.94609629  0.02381632  1  1.522158  0  0.239331  0.585888  0  4.11168  0
C  C63  1  0.71877615  0.97934046  0.31639177  1  0.001244  0  -0.020733  -0.05218  0  3.982647  0
C  C64  1  0.73311907  0.99484638  0.38268129  1  1.575429  0  0.240074  0.615275  0  4.177887  0
C  C65  1  0.55778227  0.99632046  0.28588330  1  0.057103  0  -0.065394  -0.111074  0  3.949342  0
C  C66  1  0.29177761  0.17165451  0.47914907  1  1.549317  0  0.248147  0.626668  0  4.146092  0
C  C67  1  0.34359985  0.26694636  0.46023522  1  0.015487  0  -0.009696  -0.017495  0  3.970639  0
C  C68  1  0.51664867  0.31365745  0.47756440  1  0.028476  0  -0.065073  -0.091091  0  3.901526  0
C  C69  1  0.22460395  0.30812626  0.42302142  1  -0.065049  0  -0.06679  -0.160592  0  3.890158  0
C  C70  1  0.57237411  0.40102830  0.45764459  1  6.7e-05  0  -0.012205  -0.026415  0  3.996159  0
C  C71  1  0.45510003  0.44283287  0.41986401  1  0.022487  0  -0.070983  -0.177516  0  3.918654  0
C  C72  1  0.28297796  0.39506934  0.40322155  1  0.445234  0  0.085724  0.244252  0  4.029855  0
C  C73  1  0.34415552  0.42859352  0.27737071  1  0.030535  0  -0.099935  -0.208108  0  3.982083  0
C  C74  1  0.18303016  0.44520895  0.30811390  1  0.440019  0  0.108032  0.240766  0  4.021877  0
C  C75  1  0.36045026  0.44497824  0.21569745  1  0.033348  0  -0.064228  -0.033788  0  3.930155  0
C  C76  1  0.03952624  0.47748399  0.27511555  1  0.17489  0  0.068442  -0.03844  0  3.940281  0
C  C77  1  0.76065845  0.44602213  0.47616728  1  1.524951  0  0.239205  0.585682  0  4.11184  0
C  C78  1  0.21898887  0.47936099  0.18361442  1  0.000533  0  -0.020791  -0.052279  0  3.982443  0
C  C79  1  0.23353001  0.49490829  0.11733569  1  1.575722  0  0.239839  0.615421  0  4.178032  0
C  C80  1  0.05791972  0.49633231  0.21408526  1  0.059547  0  -0.065761  -0.111492  0  3.948626  0
C  C81  1  0.20820782  0.32835651  0.97914162  1  1.54875  0  0.247897  0.626206  0  4.14658  0
C  C82  1  0.15641897  0.23306398  0.96023332  1  0.017243  0  -0.009644  -0.017342  0  3.970813  0
C  C83  1  0.98338016  0.18634143  0.97756426  1  0.027677  0  -0.064951  -0.090751  0  3.90142  0
C  C84  1  0.27542120  0.19188484  0.92301890  1  -0.071707  0  -0.066836  -0.160817  0  3.890099  0
C  C85  1  0.92766870  0.09896995  0.95764325  1  -0.000475  0  -0.012172  -0.026473  0  3.995933  0
C  C86  1  0.04494691  0.05717219  0.91985924  1  0.014493  0  -0.071239  -0.178052  0  3.918714  0
C  C87  1  0.21705958  0.10494046  0.90321603  1  0.450733  0  0.085862  0.244616  0  4.02957  0
C  C88  1  0.15586581  0.07142062  0.77736621  1  0.030245  0  -0.099988  -0.208113  0  3.982288  0
C  C89  1  0.31699562  0.05480311  0.80810509  1  0.440292  0  0.108081  0.240794  0  4.022012  0
C  C90  1  0.13954776  0.05502471  0.71569479  1  0.033891  0  -0.064229  -0.0338  0  3.930203  0
C  C91  1  0.46047717  0.02251680  0.77510338  1  0.174959  0  0.068362  -0.038636  0  3.940364  0
C  C92  1  0.73939210  0.05396601  0.97616672  1  1.525745  0  0.239274  0.585693  0  4.111526  0
C  C93  1  0.28098578  0.02063204  0.68360569  1  5.1e-05  0  -0.020866  -0.052402  0  3.981891  0
C  C94  1  0.26640088  0.00508362  0.61732700  1  1.57616  0  0.239848  0.615333  0  4.177593  0
C  C95  1  0.44206812  0.00365995  0.71407494  1  0.059388  0  -0.065728  -0.11122  0  3.94845  0
N  N96  1  0.14056215  0.51408715  0.69622761  1  0.386938  0  0.061748  0.538971  0  4.197085  0
N  N97  1  0.35944957  0.98590536  0.19620590  1  0.3883  0  0.06162  0.538869  0  4.197681  0
N  N98  1  0.85947440  0.48590305  0.30374506  1  0.388077  0  0.061387  0.538233  0  4.197958  0
N  N99  1  0.64054027  0.01409093  0.80373205  1  0.388625  0  0.061591  0.538446  0  4.197372  0
O  O100  1  0.76694991  0.05755044  0.53423573  1  -1.19379  0  -0.52156  -0.876619  0  2.032692  0
O  O101  1  0.87547292  0.86548201  0.53058041  1  -1.167679  0  -0.281904  -0.566613  0  2.254495  0
O  O102  1  0.57765289  0.86551897  0.49698431  1  -1.187305  0  -0.29016  -0.591745  0  2.312936  0
O  O103  1  0.84440183  0.56517515  0.63137631  1  -1.095164  0  -0.144404  -0.201158  0  2.599222  0
O  O104  1  0.19047766  0.47280499  0.54552155  1  -1.163323  0  -0.318273  -0.467246  0  2.320084  0
O  O105  1  0.13839485  0.59287898  0.48993497  1  -1.158865  0  -0.288552  -0.502364  0  2.181261  0
O  O106  1  0.62041426  0.52417848  0.90900960  1  -1.168948  0  -0.287423  -0.582831  0  2.30525  0
O  O107  1  0.90454771  0.47460811  0.90770945  1  -1.173174  0  -0.293205  -0.584175  0  2.292908  0
O  O108  1  0.20665699  0.44354691  0.70350461  1  -0.444794  0  -0.129857  -0.328072  0  1.854143  0
O  O109  1  0.21906284  0.58069261  0.66859069  1  -0.452249  0  -0.124872  -0.333438  0  1.940776  0
O  O110  1  0.73296320  0.44246576  0.03424175  1  -1.194707  0  -0.521744  -0.876831  0  2.032763  0
O  O111  1  0.62449213  0.63452699  0.03058229  1  -1.167291  0  -0.281901  -0.566874  0  2.2538  0
O  O112  1  0.92230408  0.63449558  0.99697483  1  -1.186906  0  -0.290333  -0.592138  0  2.31355  0
O  O113  1  0.65564515  0.93484353  0.13136894  1  -1.096233  0  -0.144363  -0.201013  0  2.599021  0
O  O114  1  0.30958548  0.02718023  0.04552502  1  -1.163096  0  -0.318361  -0.467711  0  2.319831  0
O  O115  1  0.36166569  0.90710604  0.98993984  1  -1.158562  0  -0.288376  -0.501983  0  2.181523  0
O  O116  1  0.87948964  0.97579889  0.40899959  1  -1.169925  0  -0.2876  -0.583157  0  2.305227  0
O  O117  1  0.59536586  0.02538708  0.40769838  1  -1.173046  0  -0.293335  -0.584396  0  2.292368  0
O  O118  1  0.29335741  0.05645003  0.20346704  1  -0.445486  0  -0.129642  -0.327881  0  1.854258  0
O  O119  1  0.28096151  0.91928991  0.16857636  1  -0.452878  0  -0.124864  -0.333508  0  1.941314  0
O  O120  1  0.23204826  0.94257899  0.46580142  1  -1.191868  0  -0.521331  -0.875927  0  2.033668  0
O  O121  1  0.12398860  0.13459260  0.46950318  1  -1.168096  0  -0.281908  -0.567564  0  2.252753  0
O  O122  1  0.42177853  0.13455702  0.50313445  1  -1.185713  0  -0.290057  -0.591881  0  2.313855  0
O  O123  1  0.15558852  0.43487266  0.36860988  1  -1.09594  0  -0.144218  -0.201025  0  2.599457  0
O  O124  1  0.80947293  0.52710837  0.45445968  1  -1.163976  0  -0.317914  -0.467088  0  2.32001  0
O  O125  1  0.86152965  0.40702171  0.51004401  1  -1.158844  0  -0.288642  -0.502215  0  2.181092  0
O  O126  1  0.37990660  0.47580666  0.09104423  1  -1.169768  0  -0.287509  -0.583319  0  2.305706  0
O  O127  1  0.09590619  0.52552607  0.09229883  1  -1.173885  0  -0.292968  -0.584388  0  2.292321  0
O  O128  1  0.79338475  0.55644663  0.29647798  1  -0.444291  0  -0.129661  -0.327709  0  1.854556  0
O  O129  1  0.78098435  0.41929155  0.33137701  1  -0.453338  0  -0.124766  -0.333339  0  1.941459  0
O  O130  1  0.26785938  0.55743573  0.96579765  1  -1.192193  0  -0.521444  -0.876252  0  2.033032  0
O  O131  1  0.37600664  0.36541374  0.96950400  1  -1.168237  0  -0.281852  -0.567267  0  2.252889  0
O  O132  1  0.07820694  0.36546254  0.00311687  1  -1.185701  0  -0.289982  -0.591828  0  2.313817  0
O  O133  1  0.34445659  0.06514658  0.86860373  1  -1.095994  0  -0.144165  -0.201096  0  2.599415  0
O  O134  1  0.69058493  0.97288005  0.95446118  1  -1.164357  0  -0.318078  -0.467113  0  2.319867  0
O  O135  1  0.63851652  0.09296560  0.01004274  1  -1.159138  0  -0.28857  -0.502157  0  2.181299  0
O  O136  1  0.12002625  0.02418130  0.59103170  1  -1.169535  0  -0.287439  -0.583185  0  2.305782  0
O  O137  1  0.40403068  0.97446613  0.59229052  1  -1.174194  0  -0.293117  -0.584507  0  2.291987  0
O  O138  1  0.70662432  0.94354694  0.79645873  1  -0.444256  0  -0.129761  -0.327889  0  1.854253  0
O  O139  1  0.71904412  0.08069899  0.83136339  1  -0.453597  0  -0.124842  -0.333335  0  1.941203  0
