# generated using pymatgen
data_TbH6(CO3)3
_symmetry_space_group_name_H-M   'P 1'
_cell_length_a   9.32736076
_cell_length_b   10.05427091
_cell_length_c   10.98131990
_cell_angle_alpha   113.85859796
_cell_angle_beta   89.99976254
_cell_angle_gamma   90.00007515
_symmetry_Int_Tables_number   1
_chemical_formula_structural   TbH6(CO3)3
_chemical_formula_sum   'Tb4 H24 C12 O36'
_cell_volume   941.82384074
_cell_formula_units_Z   4
loop_
 _symmetry_equiv_pos_site_id
 _symmetry_equiv_pos_as_xyz
  1  'x, y, z'
loop_
 _atom_site_type_symbol
 _atom_site_label
 _atom_site_symmetry_multiplicity
 _atom_site_fract_x
 _atom_site_fract_y
 _atom_site_fract_z
 _atom_site_occupancy
 _atom_site_hle17_bader_spin_density
 _atom_site_hle17_ddec_charge
 _atom_site_hle17_ddec_spin_density
 _atom_site_hle17_ddec_sum_bond_order
 _atom_site_hle17_magmom
 _atom_site_hse06_10hf_bader_spin_density
 _atom_site_hse06_10hf_ddec_charge
 _atom_site_hse06_10hf_ddec_spin_density
 _atom_site_hse06_10hf_ddec_sum_bond_order
 _atom_site_hse06_10hf_magmom
 _atom_site_hse06_bader_spin_density
 _atom_site_hse06_ddec_charge
 _atom_site_hse06_ddec_spin_density
 _atom_site_hse06_ddec_sum_bond_order
 _atom_site_hse06_magmom
 _atom_site_pbe_bader_spin_density
 _atom_site_pbe_cm5_charge
 _atom_site_pbe_ddec_charge
 _atom_site_pbe_ddec_spin_density
 _atom_site_pbe_ddec_sum_bond_order
 _atom_site_pbe_magmom
Tb  Tb0  1  0.55000632  0.66921102  0.30615723  1  0  2.237907  0  1.579824  0  0  2.073576  0  2.062683  0  0  2.203384  0  1.863279  0  0  1.456824  2.038325  0  2.093041  0
Tb  Tb1  1  0.05000126  0.83078837  0.69384303  1  0  2.237903  0  1.579798  0  0  2.073606  0  2.062595  0  0  2.203383  0  1.863245  0  0  1.456827  2.038361  0  2.092949  0
Tb  Tb2  1  0.44999938  0.33078607  0.69383877  1  0  2.237867  0  1.579882  0  0  2.073511  0  2.062798  0  0  2.203346  0  1.863342  0  0  1.456803  2.038265  0  2.093152  0
Tb  Tb3  1  0.94999802  0.16921470  0.30616192  1  0  2.237876  0  1.579928  0  0  2.073519  0  2.06282  0  0  2.203335  0  1.863401  0  0  1.456793  2.03827  0  2.093176  0
H  H4  1  0.82555043  0.51863913  0.29382116  1  0  0.440496  0  0.848548  0  0  0.41473  0  0.902574  0  0  0.425556  0  0.886742  0  0  0.310482  0.407315  0  0.913547  0
H  H5  1  0.32554230  0.98135982  0.70617509  1  0  0.44052  0  0.848527  0  0  0.414753  0  0.902559  0  0  0.425579  0  0.886726  0  0  0.310452  0.407337  0  0.913533  0
H  H6  1  0.17446170  0.48135916  0.70617085  1  0  0.440559  0  0.848486  0  0  0.414792  0  0.902518  0  0  0.425618  0  0.886685  0  0  0.310465  0.407375  0  0.913495  0
H  H7  1  0.67445912  0.01864326  0.29382986  1  0  0.440522  0  0.848538  0  0  0.414747  0  0.90258  0  0  0.425572  0  0.886749  0  0  0.310436  0.40733  0  0.913555  0
H  H8  1  0.86997233  0.68728385  0.38452092  1  0  0.448387  0  0.850406  0  0  0.416993  0  0.912784  0  0  0.429296  0  0.894969  0  0  0.303915  0.408771  0  0.924727  0
H  H9  1  0.36996761  0.81271563  0.61547416  1  0  0.448446  0  0.850331  0  0  0.417037  0  0.912721  0  0  0.42934  0  0.894906  0  0  0.303927  0.408817  0  0.924659  0
H  H10  1  0.13003445  0.31271291  0.61547209  1  0  0.448467  0  0.8503  0  0  0.417062  0  0.912684  0  0  0.429365  0  0.894869  0  0  0.303966  0.408843  0  0.924618  0
H  H11  1  0.63003273  0.18728611  0.38452780  1  0  0.448413  0  0.850383  0  0  0.417011  0  0.912762  0  0  0.429314  0  0.894947  0  0  0.303948  0.408792  0  0.924696  0
H  H12  1  0.25437834  0.63487386  0.24495600  1  0  0.449572  0  0.797127  0  0  0.432776  0  0.84718  0  0  0.441761  0  0.836264  0  0  0.333004  0.426521  0  0.854413  0
H  H13  1  0.75436866  0.86512734  0.75504549  1  0  0.449625  0  0.797026  0  0  0.43283  0  0.847084  0  0  0.441815  0  0.836179  0  0  0.33303  0.426574  0  0.854319  0
H  H14  1  0.74563165  0.36512666  0.75504098  1  0  0.449571  0  0.797011  0  0  0.432779  0  0.847067  0  0  0.441762  0  0.836227  0  0  0.333012  0.426525  0  0.854296  0
H  H15  1  0.24562954  0.13487440  0.24495647  1  0  0.449534  0  0.797031  0  0  0.432739  0  0.847092  0  0  0.441723  0  0.836276  0  0  0.332989  0.426483  0  0.854323  0
H  H16  1  0.25213408  0.59203205  0.36888424  1  0  0.44696  0  0.845343  0  0  0.415307  0  0.908888  0  0  0.427233  0  0.891604  0  0  0.303104  0.407252  0  0.920601  0
H  H17  1  0.75213041  0.90796771  0.63111627  1  0  0.446948  0  0.845355  0  0  0.415289  0  0.90891  0  0  0.427216  0  0.891624  0  0  0.303097  0.407233  0  0.920624  0
H  H18  1  0.74786948  0.40796792  0.63111374  1  0  0.446915  0  0.84543  0  0  0.415275  0  0.908954  0  0  0.427201  0  0.891668  0  0  0.30309  0.407218  0  0.920669  0
H  H19  1  0.24786886  0.09202917  0.36888372  1  0  0.446943  0  0.845388  0  0  0.415305  0  0.908908  0  0  0.42723  0  0.891623  0  0  0.303107  0.40725  0  0.920617  0
H  H20  1  0.69976519  0.80116560  0.12292077  1  0  0.461211  0  0.778775  0  0  0.442548  0  0.829527  0  0  0.452158  0  0.819197  0  0  0.341713  0.435912  0  0.837132  0
H  H21  1  0.19976013  0.69883483  0.87707694  1  0  0.46125  0  0.778719  0  0  0.442586  0  0.82948  0  0  0.452198  0  0.819147  0  0  0.34173  0.43595  0  0.837085  0
H  H22  1  0.30023194  0.19883957  0.87708218  1  0  0.461294  0  0.778779  0  0  0.442639  0  0.829505  0  0  0.452248  0  0.819178  0  0  0.341787  0.436003  0  0.83711  0
H  H23  1  0.80023271  0.30116192  0.12291607  1  0  0.461274  0  0.77882  0  0  0.442628  0  0.829526  0  0  0.452237  0  0.819199  0  0  0.341764  0.435993  0  0.83713  0
H  H24  1  0.79435115  0.83627965  0.24975618  1  0  0.446023  0  0.84889  0  0  0.414286  0  0.913159  0  0  0.426275  0  0.895674  0  0  0.311606  0.405947  0  0.925487  0
H  H25  1  0.29435201  0.66372119  0.75024217  1  0  0.446039  0  0.848857  0  0  0.41431  0  0.913112  0  0  0.426297  0  0.895632  0  0  0.311623  0.405972  0  0.925439  0
H  H26  1  0.20564491  0.16372110  0.75024579  1  0  0.446018  0  0.848893  0  0  0.414299  0  0.913133  0  0  0.426286  0  0.895652  0  0  0.311615  0.40596  0  0.925461  0
H  H27  1  0.70564619  0.33627745  0.24975282  1  0  0.446043  0  0.848868  0  0  0.414256  0  0.913207  0  0  0.426246  0  0.895722  0  0  0.311584  0.405916  0  0.925536  0
C  C28  1  0.47681668  0.57236631  0.55589308  1  0  0.592014  0  3.865975  0  0  0.543694  0  4.162858  0  0  0.574765  0  4.15797  0  0  0.236125  0.522804  0  4.169251  0
C  C29  1  0.97681394  0.92763414  0.44411058  1  0  0.592028  0  3.865959  0  0  0.543646  0  4.162911  0  0  0.574719  0  4.158021  0  0  0.236041  0.522757  0  4.169305  0
C  C30  1  0.52317938  0.42763948  0.44409789  1  0  0.591981  0  3.866082  0  0  0.543524  0  4.16315  0  0  0.574596  0  4.158268  0  0  0.236084  0.522647  0  4.16952  0
C  C31  1  0.02317890  0.07235814  0.55590140  1  0  0.591892  0  3.866409  0  0  0.5435  0  4.163388  0  0  0.574571  0  4.158507  0  0  0.23605  0.522623  0  4.169758  0
C  C32  1  0.42768861  0.99532971  0.46425160  1  0  0.55285  0  3.938768  0  0  0.507723  0  4.238655  0  0  0.537411  0  4.236742  0  0  0.214599  0.487431  0  4.244043  0
C  C33  1  0.92768699  0.50467717  0.53575322  1  0  0.552826  0  3.93894  0  0  0.507679  0  4.238846  0  0  0.537367  0  4.236934  0  0  0.214541  0.48739  0  4.244231  0
C  C34  1  0.57230959  0.00466099  0.53574343  1  0  0.552799  0  3.938791  0  0  0.507636  0  4.238712  0  0  0.537325  0  4.236798  0  0  0.214529  0.487345  0  4.2441  0
C  C35  1  0.07230692  0.49534202  0.46425666  1  0  0.552726  0  3.938858  0  0  0.507588  0  4.238759  0  0  0.537275  0  4.236847  0  0  0.214562  0.487296  0  4.244146  0
C  C36  1  0.55705902  0.44323984  0.99831875  1  0  0.556124  0  3.954881  0  0  0.515122  0  4.252024  0  0  0.544711  0  4.251043  0  0  0.21092  0.494773  0  4.257475  0
C  C37  1  0.05707084  0.05676209  0.00168339  1  0  0.556023  0  3.955209  0  0  0.514934  0  4.252505  0  0  0.544525  0  4.251528  0  0  0.210795  0.494583  0  4.257955  0
C  C38  1  0.44293703  0.55676157  0.00168022  1  0  0.556059  0  3.955126  0  0  0.514961  0  4.2524  0  0  0.54455  0  4.251424  0  0  0.210797  0.494611  0  4.257851  0
C  C39  1  0.94294022  0.94323360  0.99832059  1  0  0.556215  0  3.954975  0  0  0.515149  0  4.252232  0  0  0.544741  0  4.251249  0  0  0.210896  0.494801  0  4.257684  0
O  O40  1  0.35114213  0.11028114  0.50635219  1  0  -0.652605  0  2.065677  0  0  -0.592005  0  2.296588  0  0  -0.625844  0  2.28747  0  0  -0.340564  -0.574126  0  2.300725  0
O  O41  1  0.85114768  0.38971824  0.49364787  1  0  -0.652684  0  2.065638  0  0  -0.59205  0  2.296509  0  0  -0.625889  0  2.287392  0  0  -0.340574  -0.574169  0  2.300647  0
O  O42  1  0.64885392  0.88971684  0.49364580  1  0  -0.652527  0  2.065866  0  0  -0.591915  0  2.296815  0  0  -0.62575  0  2.287699  0  0  -0.340491  -0.574037  0  2.300952  0
O  O43  1  0.14885696  0.61028460  0.50635209  1  0  -0.652555  0  2.065867  0  0  -0.591976  0  2.29683  0  0  -0.625807  0  2.287716  0  0  -0.340571  -0.574097  0  2.300967  0
O  O44  1  0.44005468  0.56900772  0.66521911  1  0  -0.633133  0  2.074016  0  0  -0.577776  0  2.306553  0  0  -0.610352  0  2.294442  0  0  -0.324375  -0.560564  0  2.312742  0
O  O45  1  0.94004925  0.93099861  0.33478665  1  0  -0.633153  0  2.073949  0  0  -0.577795  0  2.306523  0  0  -0.610371  0  2.294415  0  0  -0.324346  -0.560581  0  2.31271  0
O  O46  1  0.55995210  0.43100273  0.33477783  1  0  -0.633241  0  2.074171  0  0  -0.577837  0  2.306783  0  0  -0.610411  0  2.294675  0  0  -0.324444  -0.560627  0  2.312961  0
O  O47  1  0.05994467  0.06900350  0.66522728  1  0  -0.633199  0  2.074157  0  0  -0.577849  0  2.306727  0  0  -0.61042  0  2.294623  0  0  -0.324432  -0.56064  0  2.312907  0
O  O48  1  0.78967636  0.61849708  0.34076784  1  0  -0.926558  0  1.87757  0  0  -0.876846  0  2.076537  0  0  -0.906565  0  2.034853  0  0  -0.659381  -0.863344  0  2.099737  0
O  O49  1  0.28967046  0.88150110  0.65922455  1  0  -0.92663  0  1.877523  0  0  -0.876905  0  2.076517  0  0  -0.906622  0  2.034837  0  0  -0.659368  -0.863406  0  2.099714  0
O  O50  1  0.21033149  0.38149889  0.65922118  1  0  -0.926693  0  1.877505  0  0  -0.876967  0  2.076493  0  0  -0.906691  0  2.034804  0  0  -0.659402  -0.863468  0  2.099693  0
O  O51  1  0.71032989  0.11850352  0.34077939  1  0  -0.926622  0  1.877632  0  0  -0.876875  0  2.076607  0  0  -0.906596  0  2.034921  0  0  -0.65937  -0.863376  0  2.099807  0
O  O52  1  0.47961075  0.68308731  0.52778529  1  0  -0.667924  0  2.120375  0  0  -0.610706  0  2.357656  0  0  -0.645729  0  2.345866  0  0  -0.341464  -0.592702  0  2.363224  0
O  O53  1  0.97960558  0.81691634  0.47221436  1  0  -0.667838  0  2.12034  0  0  -0.610602  0  2.357626  0  0  -0.645622  0  2.345839  0  0  -0.341418  -0.592598  0  2.363194  0
O  O54  1  0.52038852  0.31692259  0.47221265  1  0  -0.667718  0  2.120213  0  0  -0.610471  0  2.357556  0  0  -0.6455  0  2.345771  0  0  -0.341357  -0.592471  0  2.363112  0
O  O55  1  0.02038512  0.18307527  0.52779164  1  0  -0.667698  0  2.120446  0  0  -0.610447  0  2.357736  0  0  -0.645473  0  2.345956  0  0  -0.341301  -0.592447  0  2.363292  0
O  O56  1  0.62591775  0.47069214  0.10532189  1  0  -0.673157  0  2.058866  0  0  -0.625499  0  2.302159  0  0  -0.658552  0  2.287857  0  0  -0.376173  -0.608744  0  2.309506  0
O  O57  1  0.12592953  0.02930401  0.89467603  1  0  -0.673075  0  2.059131  0  0  -0.625386  0  2.30246  0  0  -0.658438  0  2.288162  0  0  -0.376052  -0.608631  0  2.309805  0
O  O58  1  0.37408045  0.52930000  0.89467412  1  0  -0.673066  0  2.059019  0  0  -0.625373  0  2.302353  0  0  -0.658432  0  2.288053  0  0  -0.376101  -0.608618  0  2.309699  0
O  O59  1  0.87408475  0.97069862  0.10532793  1  0  -0.673196  0  2.059075  0  0  -0.625507  0  2.302402  0  0  -0.658564  0  2.2881  0  0  -0.376158  -0.608751  0  2.309748  0
O  O60  1  0.39735005  0.87648151  0.36973352  1  0  -0.639341  0  2.060109  0  0  -0.594964  0  2.306806  0  0  -0.626458  0  2.292269  0  0  -0.367905  -0.579938  0  2.314084  0
O  O61  1  0.89735136  0.62351148  0.63027146  1  0  -0.63918  0  2.060314  0  0  -0.594817  0  2.307045  0  0  -0.626305  0  2.292509  0  0  -0.367824  -0.579795  0  2.314326  0
O  O62  1  0.60264707  0.12351671  0.63026945  1  0  -0.639367  0  2.059898  0  0  -0.594975  0  2.306615  0  0  -0.626476  0  2.292075  0  0  -0.36792  -0.579947  0  2.313893  0
O  O63  1  0.10264362  0.37648927  0.36973051  1  0  -0.639331  0  2.05999  0  0  -0.594952  0  2.306719  0  0  -0.626449  0  2.29218  0  0  -0.367899  -0.579924  0  2.313997  0
O  O64  1  0.57206131  0.33333465  0.88971659  1  0  -0.641675  0  2.02612  0  0  -0.596548  0  2.262444  0  0  -0.627488  0  2.248478  0  0  -0.369932  -0.580944  0  2.269963  0
O  O65  1  0.07207383  0.16665843  0.11028354  1  0  -0.641618  0  2.02634  0  0  -0.596459  0  2.262714  0  0  -0.627397  0  2.24875  0  0  -0.36985  -0.580857  0  2.270232  0
O  O66  1  0.42792403  0.66666730  0.11028138  1  0  -0.64168  0  2.026081  0  0  -0.59653  0  2.262438  0  0  -0.627467  0  2.248475  0  0  -0.369819  -0.580925  0  2.269955  0
O  O67  1  0.92793509  0.83333119  0.88972246  1  0  -0.641779  0  2.026235  0  0  -0.596633  0  2.262594  0  0  -0.627569  0  2.248626  0  0  -0.369933  -0.58103  0  2.270114  0
O  O68  1  0.30738891  0.58206212  0.28776235  1  0  -0.893963  0  1.847905  0  0  -0.84966  0  2.035374  0  0  -0.878232  0  1.99855  0  0  -0.636872  -0.836356  0  2.054882  0
O  O69  1  0.80738272  0.91793851  0.71223994  1  0  -0.894009  0  1.847824  0  0  -0.849719  0  2.035296  0  0  -0.87829  0  1.998486  0  0  -0.63689  -0.83641  0  2.054797  0
O  O70  1  0.69261251  0.41793354  0.71223266  1  0  -0.893926  0  1.847887  0  0  -0.849638  0  2.035349  0  0  -0.878214  0  1.998596  0  0  -0.636869  -0.836335  0  2.05486  0
O  O71  1  0.19261226  0.08206744  0.28776699  1  0  -0.893911  0  1.847872  0  0  -0.849622  0  2.035334  0  0  -0.878198  0  1.998608  0  0  -0.636866  -0.836322  0  2.054844  0
O  O72  1  0.69359495  0.81448262  0.21583271  1  0  -0.903225  0  1.904436  0  0  -0.852712  0  2.098661  0  0  -0.883293  0  2.063431  0  0  -0.60565  -0.8383  0  2.118683  0
O  O73  1  0.19359354  0.68551439  0.78416404  1  0  -0.903274  0  1.904375  0  0  -0.852766  0  2.09859  0  0  -0.883342  0  2.06336  0  0  -0.605662  -0.838353  0  2.118612  0
O  O74  1  0.30640110  0.18552155  0.78417025  1  0  -0.903297  0  1.904458  0  0  -0.852812  0  2.098703  0  0  -0.883394  0  2.063463  0  0  -0.60573  -0.8384  0  2.118727  0
O  O75  1  0.80640251  0.31447552  0.21582700  1  0  -0.903277  0  1.904427  0  0  -0.852748  0  2.098725  0  0  -0.88333  0  2.063489  0  0  -0.605673  -0.838337  0  2.118749  0
