# generated using pymatgen
data_MnH6C12(NO2)2
_symmetry_space_group_name_H-M   'P 1'
_cell_length_a   6.50640664
_cell_length_b   8.92512110
_cell_length_c   8.78933621
_cell_angle_alpha   90.00017421
_cell_angle_beta   89.99999012
_cell_angle_gamma   90.00012403
_symmetry_Int_Tables_number   1
_chemical_formula_structural   MnH6C12(NO2)2
_chemical_formula_sum   'Mn2 H12 C24 N4 O8'
_cell_volume   510.40085987
_cell_formula_units_Z   2
loop_
 _symmetry_equiv_pos_site_id
 _symmetry_equiv_pos_as_xyz
  1  'x, y, z'
loop_
 _atom_site_type_symbol
 _atom_site_label
 _atom_site_symmetry_multiplicity
 _atom_site_fract_x
 _atom_site_fract_y
 _atom_site_fract_z
 _atom_site_occupancy
 _atom_site_hle17_ddec_charge
 _atom_site_hle17_ddec_spin_density
 _atom_site_hle17_ddec_sum_bond_order
 _atom_site_hle17_magmom
 _atom_site_hse06_10hf_ddec_charge
 _atom_site_hse06_10hf_ddec_spin_density
 _atom_site_hse06_10hf_ddec_sum_bond_order
 _atom_site_hse06_10hf_magmom
 _atom_site_hse06_ddec_charge
 _atom_site_hse06_ddec_spin_density
 _atom_site_hse06_ddec_sum_bond_order
 _atom_site_hse06_magmom
 _atom_site_pbe_cm5_charge
 _atom_site_pbe_ddec_charge
 _atom_site_pbe_ddec_spin_density
 _atom_site_pbe_ddec_sum_bond_order
 _atom_site_pbe_magmom
Mn  Mn0  1  0.99999074  0.49999302  0.45312506  1  1.116964  -4.77196  1.897037  -4.656  0.955685  -4.668331  2.412468  -4.489  1.008283  -4.734309  2.3435  -4.571  0.615943  0.916417  -4.588819  2.465378  -4.396
Mn  Mn1  1  0.49999601  0.00000435  0.54686965  1  1.11702  4.771986  1.896764  4.656  0.955685  4.668406  2.41218  4.489  1.008285  4.734358  2.34322  4.571  0.616012  0.916394  4.588955  2.465078  4.396
H  H2  1  0.36620006  0.44054906  0.20970824  1  0.076455  1.1e-05  0.946336  0.0  0.084619  -0.000393  1.012202  0.0  0.087265  -0.000233  1.009629  0.0  0.117622  0.082159  -0.000557  1.014832  0.0
H  H3  1  0.63378894  0.55944609  0.20970621  1  0.076431  1.7e-05  0.946278  0.0  0.084577  -0.000393  1.01217  0.0  0.087233  -0.000234  1.009587  0.0  0.117594  0.082119  -0.000557  1.014801  0.0
H  H4  1  0.13377158  0.94054879  0.79028741  1  0.076403  -1.6e-05  0.946263  0.0  0.084536  0.000393  1.012186  0.0  0.087212  0.000234  1.009584  0.0  0.11756  0.08208  0.000557  1.014815  0.0
H  H5  1  0.86620735  0.05945051  0.79028981  1  0.076373  -1.4e-05  0.946318  0.0  0.084535  0.000393  1.012214  0.0  0.087182  0.000234  1.009645  0.0  0.11758  0.082075  0.000557  1.014844  0.0
H  H6  1  0.29662096  0.98438567  0.05605232  1  0.086771  3.6e-05  0.967279  0.0  0.097527  -0.000109  1.032817  0.0  0.099362  -8.5e-05  1.032386  0.0  0.104042  0.096004  -0.000112  1.033568  0.0
H  H7  1  0.70338210  0.01561345  0.05606247  1  0.086795  5e-05  0.967269  0.0  0.097597  -0.000109  1.032769  0.0  0.099442  -8.6e-05  1.032313  0.0  0.104076  0.096075  -0.000112  1.033511  0.0
H  H8  1  0.20340932  0.48439166  0.94394118  1  0.086658  -7.2e-05  0.967552  0.0  0.097558  0.000108  1.032949  0.0  0.099397  8.6e-05  1.032504  0.0  0.104049  0.096031  0.000111  1.033706  0.0
H  H9  1  0.79661702  0.51561375  0.94393115  1  0.086698  -4.2e-05  0.96755  0.0  0.097551  0.000109  1.032978  0.0  0.099386  8.6e-05  1.032543  0.0  0.104031  0.096033  0.000111  1.033715  0.0
H  H10  1  0.49749635  0.22393888  0.05326954  1  0.088666  -0.000338  0.987122  0.0  0.096827  -0.000333  1.054574  0.0  0.098166  -0.000295  1.056844  0.0  0.100186  0.09611  -0.000314  1.052958  0.0
H  H11  1  0.50249288  0.77606360  0.05327714  1  0.08873  -0.000343  0.986985  0.0  0.096862  -0.000332  1.054452  0.0  0.098207  -0.000295  1.056713  0.0  0.100219  0.096141  -0.000314  1.052843  0.0
H  H12  1  0.00250335  0.72392899  0.94671527  1  0.08872  0.000344  0.987225  0.0  0.096839  0.000332  1.054707  0.0  0.098171  0.000294  1.056979  0.0  0.100201  0.096122  0.000313  1.053093  0.0
H  H13  1  0.99750454  0.27606859  0.94670924  1  0.088753  0.000343  0.987142  0.0  0.096885  0.000332  1.054619  0.0  0.098225  0.000293  1.05688  0.0  0.100203  0.096161  0.000313  1.053013  0.0
C  C14  1  0.28196128  0.33523393  0.20127968  1  0.135902  -0.003214  3.706273  -0.003  0.103215  -0.005308  3.968908  -0.005  0.110565  -0.004402  3.983103  -0.004  0.055631  0.098782  -0.007554  3.960271  -0.006
C  C15  1  0.71803849  0.66476231  0.20127343  1  0.135892  -0.003284  3.706508  -0.003  0.103211  -0.005302  3.969122  -0.005  0.110553  -0.004404  3.983322  -0.004  0.055669  0.098776  -0.00755  3.960485  -0.006
C  C16  1  0.21803593  0.83522700  0.79873617  1  0.135834  0.003275  3.706602  0.003  0.10314  0.005298  3.969244  0.005  0.110455  0.004402  3.983444  0.004  0.055726  0.098704  0.007546  3.960611  0.006
C  C17  1  0.78195374  0.16477009  0.79873881  1  0.135953  0.003284  3.706714  0.003  0.10324  0.0053  3.969378  0.005  0.110575  0.004398  3.983588  0.004  0.05572  0.098807  0.007546  3.96074  0.006
C  C18  1  0.35444343  0.21412956  0.11665539  1  -0.101848  0.002196  3.73358  0.002  -0.118916  0.001751  3.994275  0.002  -0.122747  0.002068  4.013013  0.002  -0.082489  -0.117374  0.002986  3.981744  0.003
C  C19  1  0.64556108  0.78586976  0.11666195  1  -0.101958  0.002271  3.733768  0.002  -0.119019  0.001746  3.994506  0.002  -0.122853  0.002072  4.013242  0.002  -0.082574  -0.117478  0.002984  3.981991  0.003
C  C20  1  0.14554393  0.71413409  0.88334419  1  -0.101762  -0.002288  3.733653  -0.002  -0.11882  -0.001753  3.994466  -0.002  -0.12263  -0.002077  4.013206  -0.002  -0.082555  -0.1173  -0.002999  3.98197  -0.003
C  C21  1  0.85445945  0.28586440  0.88333696  1  -0.101827  -0.002274  3.733623  -0.002  -0.118933  -0.001754  3.994475  -0.002  -0.122746  -0.002072  4.013205  -0.002  -0.082569  -0.117408  -0.002996  3.981982  -0.003
C  C22  1  0.24200929  0.08199016  0.11820365  1  -0.033274  -0.003729  3.685048  -0.003  -0.061818  -0.005161  3.938938  -0.004  -0.058672  -0.004553  3.954466  -0.003  -0.062129  -0.063314  -0.007189  3.928611  -0.006
C  C23  1  0.75799061  0.91800244  0.11821291  1  -0.033256  -0.003824  3.685331  -0.003  -0.061832  -0.005154  3.939191  -0.004  -0.058686  -0.004556  3.95472  -0.003  -0.062119  -0.063324  -0.007183  3.928856  -0.006
C  C24  1  0.25801273  0.58199473  0.88181036  1  -0.033345  0.00388  3.685207  0.003  -0.062037  0.00515  3.939139  0.004  -0.058895  0.004556  3.954656  0.003  -0.062227  -0.063528  0.007181  3.928821  0.006
C  C25  1  0.74200602  0.41801048  0.88180344  1  -0.033354  0.003791  3.685014  0.003  -0.061952  0.005152  3.93898  0.004  -0.05881  0.004551  3.954504  0.003  -0.06221  -0.063444  0.007182  3.928664  0.006
C  C26  1  0.05874368  0.07165427  0.20167860  1  0.034941  0.001691  3.700492  0.002  0.043948  0.000634  3.935906  0.001  0.04282  0.001343  3.956586  0.002  0.018269  0.043938  0.001045  3.923785  0.001
C  C27  1  0.94126378  0.92833525  0.20167548  1  0.034921  0.001764  3.700513  0.002  0.043964  0.000629  3.935851  0.001  0.042839  0.001349  3.956524  0.002  0.018361  0.043953  0.001044  3.923731  0.001
C  C28  1  0.44127060  0.57163734  0.79833651  1  0.03522  -0.001783  3.700525  -0.002  0.04433  -0.000631  3.936021  -0.001  0.043217  -0.001356  3.956682  -0.002  0.018485  0.044314  -0.00105  3.923921  -0.001
C  C29  1  0.55874059  0.42837880  0.79833976  1  0.035188  -0.001747  3.700575  -0.002  0.044104  -0.000633  3.936099  -0.001  0.042975  -0.001343  3.956784  -0.002  0.018486  0.044085  -0.001049  3.923997  -0.001
C  C30  1  0.99248671  0.20172227  0.27788274  1  0.068498  -0.003416  3.6725  -0.003  0.062362  -0.005489  3.920432  -0.004  0.065097  -0.0048  3.934964  -0.004  0.122372  0.058627  -0.004008  3.912371  -0.004
C  C31  1  0.00750988  0.79826302  0.27787989  1  0.068376  -0.003482  3.672444  -0.003  0.062237  -0.005483  3.92032  -0.004  0.064971  -0.004802  3.934848  -0.004  0.122289  0.058498  -0.004004  3.912264  -0.004
C  C32  1  0.50753491  0.70174526  0.72210684  1  0.068613  0.003499  3.671714  0.003  0.062247  0.005483  3.919853  0.004  0.06499  0.004813  3.934362  0.004  0.122423  0.0585  0.003997  3.911817  0.004
C  C33  1  0.49247331  0.29826166  0.72211196  1  0.068187  0.003484  3.672176  0.003  0.062072  0.005488  3.920063  0.004  0.064818  0.004801  3.934583  0.004  0.122328  0.05833  0.004  3.912014  0.004
C  C34  1  0.79408223  0.21450988  0.36695769  1  0.628931  0.002558  3.902103  0.003  0.574793  0.002087  4.200972  0.002  0.609967  0.002129  4.193462  0.002  0.223633  0.550157  0.004436  4.204265  0.004
C  C35  1  0.20590961  0.78548466  0.36695491  1  0.628955  0.002598  3.90186  0.003  0.574831  0.002089  4.200683  0.002  0.610005  0.002132  4.193172  0.002  0.22369  0.550196  0.00444  4.203979  0.004
C  C36  1  0.70591026  0.71454162  0.63304558  1  0.628696  -0.002606  3.901623  -0.003  0.574639  -0.002098  4.200432  -0.002  0.609823  -0.002146  4.192907  -0.002  0.223482  0.549992  -0.004459  4.203749  -0.004
C  C37  1  0.29408273  0.28546837  0.63305056  1  0.628771  -0.002598  3.901697  -0.003  0.574705  -0.002095  4.200459  -0.002  0.609884  -0.002144  4.192945  -0.002  0.223602  0.550061  -0.004452  4.203766  -0.004
N  N38  1  0.10489266  0.32909069  0.27763465  1  -0.333179  -0.024864  3.269819  -0.012  -0.2757  -0.030022  3.546617  -0.013  -0.291048  -0.027057  3.559958  -0.011  -0.31011  -0.265763  -0.032436  3.539207  -0.016
N  N39  1  0.89510085  0.67090468  0.27762965  1  -0.33301  -0.024801  3.269778  -0.012  -0.275494  -0.030024  3.546529  -0.013  -0.290842  -0.027051  3.559875  -0.011  -0.31005  -0.265558  -0.032435  3.539121  -0.016
N  N40  1  0.39510299  0.82908805  0.72236525  1  -0.33314  0.024803  3.269908  0.012  -0.275507  0.03002  3.546677  0.013  -0.290854  0.027049  3.560033  0.011  -0.310079  -0.265568  0.032427  3.539269  0.016
N  N41  1  0.60489602  0.17091215  0.72236781  1  -0.333065  0.024803  3.270127  0.012  -0.275497  0.030019  3.546836  0.013  -0.290842  0.027056  3.560182  0.011  -0.310117  -0.265559  0.032429  3.539426  0.016
O  O42  1  0.68272245  0.09848905  0.37762156  1  -0.603856  0.02641  2.101384  0.011  -0.532798  0.029294  2.366908  0.01  -0.56389  0.027632  2.355985  0.009  -0.294651  -0.508471  0.031444  2.373798  0.012
O  O43  1  0.31727399  0.90150554  0.37762826  1  -0.603821  0.026406  2.101173  0.011  -0.532729  0.029294  2.366628  0.01  -0.563817  0.027633  2.355703  0.009  -0.29466  -0.508401  0.031446  2.373518  0.012
O  O44  1  0.81728941  0.59848157  0.62237456  1  -0.60391  -0.026398  2.100569  -0.011  -0.532876  -0.029284  2.36606  -0.01  -0.563981  -0.027618  2.355132  -0.009  -0.294688  -0.508531  -0.031432  2.372952  -0.012
O  O45  1  0.18271896  0.40153735  0.62237866  1  -0.60399  -0.026408  2.100571  -0.011  -0.532867  -0.029286  2.365946  -0.01  -0.563973  -0.027622  2.355028  -0.009  -0.294708  -0.508526  -0.031435  2.372838  -0.012
O  O46  1  0.75098654  0.34238050  0.42192219  1  -0.606465  -0.026205  2.013099  -0.015  -0.551911  -0.028779  2.276011  -0.014  -0.581053  -0.027189  2.264681  -0.013  -0.300393  -0.529051  -0.030417  2.282878  -0.016
O  O47  1  0.24901905  0.65760750  0.42192021  1  -0.60654  -0.026229  2.012945  -0.015  -0.552045  -0.02877  2.275924  -0.014  -0.581188  -0.027183  2.264596  -0.013  -0.300446  -0.52918  -0.030409  2.282788  -0.016
O  O48  1  0.74902660  0.84240759  0.57806664  1  -0.606469  0.026219  2.013252  0.015  -0.55179  0.028759  2.275955  0.014  -0.580929  0.027169  2.264624  0.013  -0.300326  -0.528934  0.030392  2.282824  0.015
O  O49  1  0.25097569  0.15760782  0.57807011  1  -0.606244  0.026217  2.013299  0.015  -0.551782  0.028762  2.276214  0.014  -0.580916  0.027175  2.264884  0.013  -0.300384  -0.528931  0.030398  2.283085  0.015
