# generated using pymatgen
data_CdH12(C7O3)2
_symmetry_space_group_name_H-M   'P 1'
_cell_length_a   7.37409214
_cell_length_b   11.81507338
_cell_length_c   15.69692002
_cell_angle_alpha   90.00001377
_cell_angle_beta   95.35988271
_cell_angle_gamma   89.99968099
_symmetry_Int_Tables_number   1
_chemical_formula_structural   CdH12(C7O3)2
_chemical_formula_sum   'Cd4 H48 C56 O24'
_cell_volume   1361.62137756
_cell_formula_units_Z   4
loop_
 _symmetry_equiv_pos_site_id
 _symmetry_equiv_pos_as_xyz
  1  'x, y, z'
loop_
 _atom_site_type_symbol
 _atom_site_label
 _atom_site_symmetry_multiplicity
 _atom_site_fract_x
 _atom_site_fract_y
 _atom_site_fract_z
 _atom_site_occupancy
 _atom_site_hle17_bader_spin_density
 _atom_site_hle17_ddec_charge
 _atom_site_hle17_ddec_spin_density
 _atom_site_hle17_ddec_sum_bond_order
 _atom_site_hle17_magmom
 _atom_site_hse06_10hf_bader_spin_density
 _atom_site_hse06_10hf_ddec_charge
 _atom_site_hse06_10hf_ddec_spin_density
 _atom_site_hse06_10hf_ddec_sum_bond_order
 _atom_site_hse06_10hf_magmom
 _atom_site_hse06_bader_spin_density
 _atom_site_hse06_ddec_charge
 _atom_site_hse06_ddec_spin_density
 _atom_site_hse06_ddec_sum_bond_order
 _atom_site_hse06_magmom
 _atom_site_pbe_bader_spin_density
 _atom_site_pbe_cm5_charge
 _atom_site_pbe_ddec_charge
 _atom_site_pbe_ddec_spin_density
 _atom_site_pbe_ddec_sum_bond_order
 _atom_site_pbe_magmom
Cd  Cd0  1  0.74949871  0.70073758  0.74735475  1  0  1.243522  0  1.623376  0  0  1.060495  0  2.071775  0  0  1.121062  0  2.012096  0  0  0.797432  1.016867  0  2.112761  0
Cd  Cd1  1  0.75050416  0.20073638  0.25264420  1  0  1.243528  0  1.623363  0  0  1.060527  0  2.071726  0  0  1.12108  0  2.01207  0  0  0.797457  1.016903  0  2.112722  0
Cd  Cd2  1  0.25050082  0.29926393  0.25264412  1  0  1.243497  0  1.623419  0  0  1.060464  0  2.071817  0  0  1.121032  0  2.012133  0  0  0.797429  1.016834  0  2.112822  0
Cd  Cd3  1  0.24949946  0.79926175  0.74735484  1  0  1.243527  0  1.623354  0  0  1.060501  0  2.071751  0  0  1.121069  0  2.01207  0  0  0.79745  1.016872  0  2.11275  0
H  H4  1  0.29402371  0.59837326  0.00064894  1  0  0.11273  0  0.992827  0  0  0.120848  0  1.059083  0  0  0.124286  0  1.057164  0  0  0.107291  0.118387  0  1.060549  0
H  H5  1  0.20597565  0.09837498  0.99935122  1  0  0.112754  0  0.992817  0  0  0.120883  0  1.059063  0  0  0.124322  0  1.057142  0  0  0.107287  0.118418  0  1.06053  0
H  H6  1  0.70597583  0.40162911  0.99935120  1  0  0.112702  0  0.992843  0  0  0.120832  0  1.059082  0  0  0.124271  0  1.057162  0  0  0.107299  0.118368  0  1.060551  0
H  H7  1  0.79402117  0.90162738  0.00064945  1  0  0.112729  0  0.99282  0  0  0.120859  0  1.059064  0  0  0.124297  0  1.057148  0  0  0.107314  0.118396  0  1.060533  0
H  H8  1  0.47356473  0.53833451  0.81899672  1  0  0.095558  0  0.945696  0  0  0.109142  0  1.003862  0  0  0.10999  0  1.003103  0  0  0.111932  0.108438  0  1.004523  0
H  H9  1  0.02643517  0.03833153  0.18100409  1  0  0.095569  0  0.945691  0  0  0.109155  0  1.003853  0  0  0.110004  0  1.003099  0  0  0.11195  0.108456  0  1.004518  0
H  H10  1  0.52643615  0.46166362  0.18100221  1  0  0.095538  0  0.945692  0  0  0.109121  0  1.003866  0  0  0.109965  0  1.003109  0  0  0.111925  0.108421  0  1.004529  0
H  H11  1  0.97356574  0.96166745  0.81899739  1  0  0.095591  0  0.945688  0  0  0.109176  0  1.003846  0  0  0.110023  0  1.00309  0  0  0.111957  0.108478  0  1.004509  0
H  H12  1  0.51422827  0.50151793  0.92916854  1  0  0.055644  0  0.948492  0  0  0.068256  0  1.018116  0  0  0.068561  0  1.017008  0  0  0.10078  0.067938  0  1.019046  0
H  H13  1  0.98577231  0.00151585  0.07083220  1  0  0.055645  0  0.948461  0  0  0.06825  0  1.018099  0  0  0.068565  0  1.016982  0  0  0.100771  0.067936  0  1.019027  0
H  H14  1  0.48576990  0.49848443  0.07083155  1  0  0.055615  0  0.948484  0  0  0.06822  0  1.018124  0  0  0.068528  0  1.017007  0  0  0.100764  0.067901  0  1.019056  0
H  H15  1  0.01422996  0.99848567  0.92916806  1  0  0.055633  0  0.948492  0  0  0.06824  0  1.018125  0  0  0.068559  0  1.017001  0  0  0.100765  0.067919  0  1.01907  0
H  H16  1  0.59282571  0.34342396  0.77857604  1  0  0.083596  0  0.952463  0  0  0.097904  0  1.008296  0  0  0.100075  0  1.008386  0  0  0.099353  0.096356  0  1.008306  0
H  H17  1  0.90717316  0.84342106  0.22142404  1  0  0.083572  0  0.952495  0  0  0.097886  0  1.008323  0  0  0.100062  0  1.008397  0  0  0.099349  0.096339  0  1.008338  0
H  H18  1  0.40716978  0.65657163  0.22142776  1  0  0.083567  0  0.952445  0  0  0.097881  0  1.008277  0  0  0.100057  0  1.008352  0  0  0.099314  0.096335  0  1.008286  0
H  H19  1  0.09283317  0.15657622  0.77857447  1  0  0.083576  0  0.952412  0  0  0.097891  0  1.008242  0  0  0.100068  0  1.008318  0  0  0.09934  0.096345  0  1.008253  0
H  H20  1  0.42203140  0.30195437  0.94869610  1  0  0.128767  0  0.951086  0  0  0.142904  0  1.008014  0  0  0.145438  0  1.007864  0  0  0.096772  0.141065  0  1.008225  0
H  H21  1  0.07797432  0.80194919  0.05130563  1  0  0.128733  0  0.95109  0  0  0.14289  0  1.008003  0  0  0.145426  0  1.007851  0  0  0.096752  0.141055  0  1.008216  0
H  H22  1  0.57796001  0.69805137  0.05130816  1  0  0.128641  0  0.95129  0  0  0.142824  0  1.008144  0  0  0.145367  0  1.007966  0  0  0.096734  0.140984  0  1.008373  0
H  H23  1  0.92203474  0.19804979  0.94869364  1  0  0.128704  0  0.951202  0  0  0.142875  0  1.008088  0  0  0.145413  0  1.007923  0  0  0.096774  0.141037  0  1.008301  0
H  H24  1  0.46046516  0.19708910  0.86460038  1  0  0.118961  0  0.980363  0  0  0.130638  0  1.042377  0  0  0.132898  0  1.042864  0  0  0.091376  0.129024  0  1.04205  0
H  H25  1  0.03953742  0.69708576  0.13540121  1  0  0.118882  0  0.980366  0  0  0.130551  0  1.042401  0  0  0.132807  0  1.042893  0  0  0.091336  0.128941  0  1.042062  0
H  H26  1  0.53952491  0.80291327  0.13540511  1  0  0.118961  0  0.980279  0  0  0.130614  0  1.042332  0  0  0.132868  0  1.042823  0  0  0.091356  0.129001  0  1.042017  0
H  H27  1  0.96047028  0.30291491  0.86459864  1  0  0.118941  0  0.980292  0  0  0.130607  0  1.042326  0  0  0.132865  0  1.042814  0  0  0.091345  0.12899  0  1.042009  0
H  H28  1  0.23255068  0.62481847  0.48006395  1  0  0.120043  0  0.990629  0  0  0.129393  0  1.052317  0  0  0.132547  0  1.051271  0  0  0.109764  0.127151  0  1.053117  0
H  H29  1  0.26744707  0.12482068  0.51993487  1  0  0.120077  0  0.990573  0  0  0.129413  0  1.052274  0  0  0.132566  0  1.051229  0  0  0.109778  0.127178  0  1.053067  0
H  H30  1  0.76744748  0.37517797  0.51993423  1  0  0.12005  0  0.990582  0  0  0.129386  0  1.052282  0  0  0.132536  0  1.051246  0  0  0.109762  0.127146  0  1.053078  0
H  H31  1  0.73255246  0.87518084  0.48006400  1  0  0.120072  0  0.990597  0  0  0.12942  0  1.052287  0  0  0.132575  0  1.051238  0  0  0.109772  0.127183  0  1.053075  0
H  H32  1  0.80050949  0.33925941  0.66086247  1  0  0.055074  0  0.937873  0  0  0.07062  0  1.002554  0  0  0.070838  0  1.001713  0  0  0.102674  0.070416  0  1.003165  0
H  H33  1  0.69949216  0.83926066  0.33913836  1  0  0.055073  0  0.937869  0  0  0.070621  0  1.002549  0  0  0.070836  0  1.001708  0  0  0.102672  0.070418  0  1.00316  0
H  H34  1  0.19948868  0.66073957  0.33913698  1  0  0.055126  0  0.937834  0  0  0.070649  0  1.002517  0  0  0.070866  0  1.001682  0  0  0.102694  0.070445  0  1.003122  0
H  H35  1  0.30051146  0.16073832  0.66086131  1  0  0.055138  0  0.937829  0  0  0.070647  0  1.002551  0  0  0.070865  0  1.001712  0  0  0.102679  0.070444  0  1.003162  0
H  H36  1  0.89803196  0.43497766  0.74109306  1  0  0.081315  0  0.938451  0  0  0.091292  0  1.005912  0  0  0.092563  0  1.004076  0  0  0.110278  0.090228  0  1.00741  0
H  H37  1  0.60196610  0.93497753  0.25890764  1  0  0.081312  0  0.93846  0  0  0.091291  0  1.005918  0  0  0.09256  0  1.004084  0  0  0.110288  0.090237  0  1.00741  0
H  H38  1  0.10196485  0.56502132  0.25890633  1  0  0.081378  0  0.938491  0  0  0.091348  0  1.005913  0  0  0.092649  0  1.00405  0  0  0.11033  0.090261  0  1.007432  0
H  H39  1  0.39803479  0.06501976  0.74109193  1  0  0.081331  0  0.938424  0  0  0.09134  0  1.005852  0  0  0.092612  0  1.004017  0  0  0.1103  0.090264  0  1.007365  0
H  H40  1  0.08040707  0.52611349  0.62551984  1  0  0.101  0  0.948616  0  0  0.113324  0  1.004559  0  0  0.11506  0  1.005258  0  0  0.101815  0.112058  0  1.004167  0
H  H41  1  0.41959706  0.02611681  0.37448305  1  0  0.101065  0  0.948565  0  0  0.113382  0  1.004493  0  0  0.11512  0  1.005188  0  0  0.101838  0.112119  0  1.004109  0
H  H42  1  0.91959522  0.47388295  0.37448233  1  0  0.10103  0  0.948536  0  0  0.113351  0  1.004476  0  0  0.115088  0  1.005172  0  0  0.101824  0.112087  0  1.004091  0
H  H43  1  0.58040520  0.97388047  0.62551657  1  0  0.101057  0  0.948564  0  0  0.113374  0  1.004497  0  0  0.115113  0  1.005191  0  0  0.101839  0.112111  0  1.004109  0
H  H44  1  0.04509226  0.27064920  0.58297873  1  0  0.11176  0  0.978281  0  0  0.125046  0  1.041419  0  0  0.127435  0  1.041097  0  0  0.088584  0.123296  0  1.041797  0
H  H45  1  0.45490830  0.77065213  0.41702278  1  0  0.111693  0  0.978323  0  0  0.124969  0  1.041513  0  0  0.127357  0  1.041192  0  0  0.088513  0.123215  0  1.041886  0
H  H46  1  0.95490318  0.72934893  0.41701997  1  0  0.111723  0  0.978312  0  0  0.125024  0  1.04146  0  0  0.127412  0  1.041139  0  0  0.088545  0.12327  0  1.04184  0
H  H47  1  0.54509398  0.22934685  0.58297939  1  0  0.1117  0  0.978362  0  0  0.124997  0  1.041519  0  0  0.127386  0  1.041197  0  0  0.088522  0.123246  0  1.041899  0
H  H48  1  0.22714127  0.36751413  0.55343223  1  0  0.126636  0  0.980452  0  0  0.136534  0  1.045982  0  0  0.138621  0  1.046972  0  0  0.091072  0.135035  0  1.045384  0
H  H49  1  0.27286116  0.86751685  0.44657129  1  0  0.126572  0  0.980449  0  0  0.136493  0  1.045971  0  0  0.138578  0  1.046965  0  0  0.091081  0.134995  0  1.045369  0
H  H50  1  0.77285692  0.63248485  0.44656913  1  0  0.126588  0  0.980426  0  0  0.136513  0  1.045945  0  0  0.138601  0  1.046934  0  0  0.091074  0.135014  0  1.045345  0
H  H51  1  0.72714247  0.13248213  0.55342967  1  0  0.126578  0  0.980437  0  0  0.136498  0  1.045951  0  0  0.138584  0  1.046945  0  0  0.09107  0.135002  0  1.04535  0
C  C52  1  0.10063549  0.63952371  0.85963648  1  0  0.667977  0  3.878841  0  0  0.619932  0  4.16413  0  0  0.656203  0  4.155376  0  0  0.205514  0.595197  0  4.169313  0
C  C53  1  0.39936214  0.13952618  0.14036362  1  0  0.667939  0  3.878837  0  0  0.619898  0  4.164131  0  0  0.656167  0  4.155376  0  0  0.205509  0.595161  0  4.169309  0
C  C54  1  0.89936132  0.36047612  0.14036291  1  0  0.667966  0  3.878789  0  0  0.619942  0  4.164082  0  0  0.656213  0  4.155327  0  0  0.205522  0.5952  0  4.169274  0
C  C55  1  0.60063738  0.86047788  0.85963525  1  0  0.667921  0  3.878952  0  0  0.619847  0  4.164301  0  0  0.656115  0  4.155547  0  0  0.20552  0.595115  0  4.169478  0
C  C56  1  0.04045964  0.56751919  0.93004493  1  0  -0.121672  0  3.713332  0  0  -0.107801  0  3.954048  0  0  -0.114763  0  3.972133  0  0  -0.020268  -0.103202  0  3.941981  0
C  C57  1  0.45954136  0.06751974  0.06995466  1  0  -0.121635  0  3.713306  0  0  -0.107787  0  3.954003  0  0  -0.114747  0  3.972088  0  0  -0.020262  -0.103191  0  3.941928  0
C  C58  1  0.95953854  0.43248148  0.06995516  1  0  -0.121558  0  3.713127  0  0  -0.107743  0  3.953966  0  0  -0.114706  0  3.972053  0  0  -0.020215  -0.103148  0  3.941898  0
C  C59  1  0.54046090  0.93248432  0.93004496  1  0  -0.121572  0  3.713242  0  0  -0.107687  0  3.953996  0  0  -0.114645  0  3.972082  0  0  -0.020218  -0.103091  0  3.94193  0
C  C60  1  0.86807476  0.51468609  0.92882929  1  0  0.259344  0  3.764867  0  0  0.239908  0  4.029902  0  0  0.251214  0  4.045055  0  0  0.084422  0.232085  0  4.019791  0
C  C61  1  0.63192570  0.01468524  0.07117080  1  0  0.259237  0  3.765123  0  0  0.239878  0  4.030068  0  0  0.25118  0  4.045217  0  0  0.084433  0.232069  0  4.019948  0
C  C62  1  0.13192071  0.48531289  0.07117196  1  0  0.259375  0  3.764923  0  0  0.2399  0  4.030061  0  0  0.251202  0  4.045214  0  0  0.084428  0.232092  0  4.019943  0
C  C63  1  0.36808064  0.98531459  0.92882835  1  0  0.259385  0  3.765081  0  0  0.23991  0  4.030195  0  0  0.251208  0  4.045354  0  0  0.08443  0.232094  0  4.02008  0
C  C64  1  0.16704737  0.55211901  0.00131481  1  0  -0.191447  0  3.7628  0  0  -0.221472  0  4.017124  0  0  -0.22424  0  4.036303  0  0  -0.099838  -0.219563  0  4.004315  0
C  C65  1  0.33295240  0.05212113  0.99868473  1  0  -0.191528  0  3.762841  0  0  -0.221581  0  4.017178  0  0  -0.224349  0  4.036359  0  0  -0.099868  -0.219663  0  4.004363  0
C  C66  1  0.83294809  0.44788167  0.99868581  1  0  -0.191461  0  3.76271  0  0  -0.221505  0  4.017067  0  0  -0.224274  0  4.036245  0  0  -0.099923  -0.219584  0  4.004258  0
C  C67  1  0.66704986  0.94788208  0.00131489  1  0  -0.191458  0  3.762876  0  0  -0.221541  0  4.017189  0  0  -0.224311  0  4.036368  0  0  -0.099931  -0.21963  0  4.004384  0
C  C68  1  0.55779894  0.48635924  0.86507778  1  0  0.082384  0  3.611956  0  0  0.02178  0  3.870519  0  0  0.03109  0  3.875153  0  0  -0.068192  0.015593  0  3.867368  0
C  C69  1  0.94220274  0.98635705  0.13492244  1  0  0.082382  0  3.611734  0  0  0.021796  0  3.870295  0  0  0.031087  0  3.874938  0  0  -0.068185  0.015593  0  3.867165  0
C  C70  1  0.44220059  0.51363974  0.13492173  1  0  0.082484  0  3.611801  0  0  0.021885  0  3.870385  0  0  0.031199  0  3.875002  0  0  -0.068165  0.015699  0  3.867232  0
C  C71  1  0.05779681  0.01364193  0.86507834  1  0  0.082377  0  3.611864  0  0  0.021783  0  3.870427  0  0  0.031083  0  3.875058  0  0  -0.068182  0.015585  0  3.867292  0
C  C72  1  0.54440733  0.36439472  0.84036862  1  0  -0.057416  0  3.781075  0  0  -0.064507  0  4.034438  0  0  -0.06827  0  4.057384  0  0  -0.103697  -0.061932  0  4.018744  0
C  C73  1  0.95559272  0.86439079  0.15963151  1  0  -0.057378  0  3.780994  0  0  -0.064475  0  4.034354  0  0  -0.068235  0  4.057308  0  0  -0.103652  -0.061893  0  4.018657  0
C  C74  1  0.45558949  0.63560595  0.15963205  1  0  -0.057453  0  3.781104  0  0  -0.064546  0  4.034485  0  0  -0.068314  0  4.057433  0  0  -0.103658  -0.061972  0  4.018788  0
C  C75  1  0.04440956  0.13560734  0.84036938  1  0  -0.057366  0  3.781045  0  0  -0.064461  0  4.034415  0  0  -0.068225  0  4.057369  0  0  -0.103655  -0.061885  0  4.01872  0
C  C76  1  0.47256435  0.28429040  0.88680960  1  0  -0.251333  0  3.644114  0  0  -0.291145  0  3.877691  0  0  -0.296033  0  3.897437  0  0  -0.17354  -0.28758  0  3.864213  0
C  C77  1  0.02743880  0.78428625  0.11319139  1  0  -0.25125  0  3.644107  0  0  -0.291074  0  3.877675  0  0  -0.295962  0  3.897424  0  0  -0.173516  -0.287504  0  3.864194  0
C  C78  1  0.52742843  0.71571112  0.11319473  1  0  -0.25116  0  3.644297  0  0  -0.290987  0  3.877863  0  0  -0.295867  0  3.897618  0  0  -0.173453  -0.287432  0  3.864379  0
C  C79  1  0.97256753  0.21571188  0.88680776  1  0  -0.251292  0  3.644239  0  0  -0.291126  0  3.877816  0  0  -0.29601  0  3.897567  0  0  -0.173538  -0.287561  0  3.86433  0
C  C80  1  0.39153999  0.65335973  0.63017410  1  0  0.67005  0  3.864491  0  0  0.61858  0  4.153581  0  0  0.655216  0  4.144614  0  0  0.206873  0.59359  0  4.158915  0
C  C81  1  0.10846023  0.15335905  0.36982419  1  0  0.670183  0  3.864462  0  0  0.618732  0  4.153526  0  0  0.655369  0  4.144554  0  0  0.206925  0.593736  0  4.158868  0
C  C82  1  0.60846089  0.34664010  0.36982419  1  0  0.670206  0  3.864412  0  0  0.618733  0  4.153531  0  0  0.655362  0  4.144569  0  0  0.206906  0.593741  0  4.15887  0
C  C83  1  0.89154338  0.84664162  0.63017421  1  0  0.670037  0  3.864532  0  0  0.618537  0  4.15365  0  0  0.655172  0  4.144684  0  0  0.206864  0.593544  0  4.158988  0
C  C84  1  0.45792889  0.57538971  0.56517264  1  0  -0.121269  0  3.713251  0  0  -0.108341  0  3.957095  0  0  -0.115635  0  3.975294  0  0  -0.017717  -0.103539  0  3.944992  0
C  C85  1  0.04207337  0.07538929  0.43482445  1  0  -0.121266  0  3.713426  0  0  -0.108378  0  3.957302  0  0  -0.115674  0  3.975503  0  0  -0.017742  -0.103576  0  3.945208  0
C  C86  1  0.54207198  0.42461012  0.43482438  1  0  -0.121255  0  3.713284  0  0  -0.108376  0  3.95721  0  0  -0.115666  0  3.975408  0  0  -0.017755  -0.10357  0  3.945103  0
C  C87  1  0.95793024  0.92461054  0.56517395  1  0  -0.121243  0  3.713248  0  0  -0.108307  0  3.957102  0  0  -0.115597  0  3.975291  0  0  -0.017731  -0.103505  0  3.945007  0
C  C88  1  0.61155347  0.50362011  0.57889811  1  0  0.260258  0  3.763229  0  0  0.241161  0  4.027875  0  0  0.252306  0  4.043093  0  0  0.086861  0.233411  0  4.017672  0
C  C89  1  0.88845251  0.00362101  0.42110030  1  0  0.26018  0  3.763397  0  0  0.241109  0  4.028041  0  0  0.252246  0  4.043258  0  0  0.086866  0.233359  0  4.01784  0
C  C90  1  0.38845013  0.49637887  0.42109965  1  0  0.260217  0  3.76326  0  0  0.241117  0  4.027948  0  0  0.252261  0  4.043163  0  0  0.08686  0.233363  0  4.017744  0
C  C91  1  0.11155245  0.99637966  0.57889816  1  0  0.260252  0  3.76328  0  0  0.241155  0  4.027924  0  0  0.252299  0  4.043139  0  0  0.086872  0.233399  0  4.017733  0
C  C92  1  0.35139094  0.57026592  0.48654715  1  0  -0.191069  0  3.754897  0  0  -0.220328  0  4.007115  0  0  -0.22293  0  4.026125  0  0  -0.097794  -0.218525  0  3.994445  0
C  C93  1  0.14860866  0.07026600  0.51345111  1  0  -0.191124  0  3.754865  0  0  -0.220359  0  4.007081  0  0  -0.222961  0  4.026093  0  0  -0.097788  -0.218561  0  3.994424  0
C  C94  1  0.64860995  0.42973306  0.51345114  1  0  -0.191117  0  3.754826  0  0  -0.220339  0  4.007052  0  0  -0.222944  0  4.026062  0  0  -0.097768  -0.218541  0  3.994387  0
C  C95  1  0.85139359  0.92973467  0.48654788  1  0  -0.191078  0  3.754893  0  0  -0.220353  0  4.007107  0  0  -0.222957  0  4.02612  0  0  -0.097779  -0.218552  0  3.994437  0
C  C96  1  0.86060106  0.42385632  0.67230846  1  0  0.081668  0  3.629497  0  0  0.021106  0  3.889892  0  0  0.030549  0  3.893545  0  0  -0.065397  0.014815  0  3.887326  0
C  C97  1  0.63939846  0.92385693  0.32769166  1  0  0.081718  0  3.62951  0  0  0.021162  0  3.889895  0  0  0.030603  0  3.893538  0  0  -0.065396  0.014863  0  3.887332  0
C  C98  1  0.13939711  0.57614181  0.32769099  1  0  0.081549  0  3.629625  0  0  0.021071  0  3.889901  0  0  0.030483  0  3.893561  0  0  -0.065444  0.014797  0  3.887341  0
C  C99  1  0.36060243  0.07614120  0.67230727  1  0  0.081639  0  3.629524  0  0  0.021063  0  3.889929  0  0  0.030497  0  3.893594  0  0  -0.065408  0.01478  0  3.887371  0
C  C100  1  0.02465067  0.44040951  0.62438941  1  0  -0.046142  0  3.746881  0  0  -0.051942  0  3.99763  0  0  -0.054979  0  4.020523  0  0  -0.100432  -0.049818  0  3.981954  0
C  C101  1  0.47535247  0.94041235  0.37561287  1  0  -0.046332  0  3.746814  0  0  -0.052116  0  3.997566  0  0  -0.055156  0  4.020455  0  0  -0.100449  -0.050009  0  3.981912  0
C  C102  1  0.97535025  0.55958862  0.37561206  1  0  -0.046259  0  3.746862  0  0  -0.052074  0  3.997614  0  0  -0.055113  0  4.020518  0  0  -0.100484  -0.049963  0  3.981951  0
C  C103  1  0.52464843  0.05958578  0.62438733  1  0  -0.046302  0  3.746818  0  0  -0.052075  0  3.997574  0  0  -0.05511  0  4.020466  0  0  -0.100459  -0.04996  0  3.981906  0
C  C104  1  0.10383011  0.35564053  0.58557378  1  0  -0.262952  0  3.636981  0  0  -0.305359  0  3.874766  0  0  -0.3101  0  3.89271  0  0  -0.181278  -0.30199  0  3.862598  0
C  C105  1  0.39617242  0.85564366  0.41442847  1  0  -0.262719  0  3.636894  0  0  -0.30516  0  3.874649  0  0  -0.309904  0  3.892603  0  0  -0.181214  -0.301777  0  3.862464  0
C  C106  1  0.89616944  0.64435676  0.41442701  1  0  -0.262767  0  3.636938  0  0  -0.305231  0  3.874713  0  0  -0.309971  0  3.892656  0  0  -0.18121  -0.301861  0  3.862548  0
C  C107  1  0.60382984  0.14435616  0.58557179  1  0  -0.26277  0  3.636882  0  0  -0.305224  0  3.874655  0  0  -0.309965  0  3.892599  0  0  -0.18122  -0.301853  0  3.862487  0
O  O108  1  0.02837526  0.62557723  0.78261517  1  0  -0.681327  0  2.05298  0  0  -0.612595  0  2.311808  0  0  -0.642668  0  2.29874  0  0  -0.338195  -0.591214  0  2.319785  0
O  O109  1  0.47162251  0.12558032  0.21738557  1  0  -0.681291  0  2.052953  0  0  -0.61254  0  2.311738  0  0  -0.642627  0  2.298708  0  0  -0.338197  -0.591163  0  2.319726  0
O  O110  1  0.97162020  0.37442175  0.21738481  1  0  -0.681334  0  2.052945  0  0  -0.612602  0  2.311773  0  0  -0.642674  0  2.298706  0  0  -0.338221  -0.591211  0  2.319738  0
O  O111  1  0.52837431  0.87442543  0.78261446  1  0  -0.681265  0  2.053039  0  0  -0.612505  0  2.311847  0  0  -0.642599  0  2.298833  0  0  -0.338183  -0.591124  0  2.319819  0
O  O112  1  0.22772634  0.71072491  0.87783346  1  0  -0.611803  0  1.950099  0  0  -0.551125  0  2.187507  0  0  -0.580085  0  2.17778  0  0  -0.31792  -0.530846  0  2.193441  0
O  O113  1  0.27226656  0.21072443  0.12216582  1  0  -0.611782  0  1.950087  0  0  -0.551104  0  2.187491  0  0  -0.580063  0  2.177765  0  0  -0.317931  -0.530826  0  2.193424  0
O  O114  1  0.77227045  0.28927492  0.12216466  1  0  -0.611807  0  1.950125  0  0  -0.551132  0  2.187529  0  0  -0.580092  0  2.177803  0  0  -0.317906  -0.530849  0  2.193462  0
O  O115  1  0.72772890  0.78927624  0.87783416  1  0  -0.611832  0  1.950149  0  0  -0.55116  0  2.18759  0  0  -0.58012  0  2.177865  0  0  -0.317946  -0.530882  0  2.193521  0
O  O116  1  0.74072600  0.53179326  0.86033720  1  0  -0.314397  0  2.356899  0  0  -0.234583  0  2.597959  0  0  -0.255782  0  2.600264  0  0  -0.180252  -0.219894  0  2.59619  0
O  O117  1  0.75927430  0.03179029  0.13966289  1  0  -0.314335  0  2.35699  0  0  -0.234581  0  2.598068  0  0  -0.255759  0  2.600365  0  0  -0.180274  -0.219897  0  2.596307  0
O  O118  1  0.25927081  0.46820572  0.13966220  1  0  -0.314504  0  2.356992  0  0  -0.23468  0  2.598084  0  0  -0.255872  0  2.600379  0  0  -0.18034  -0.220004  0  2.596315  0
O  O119  1  0.24072934  0.96820868  0.86033870  1  0  -0.314438  0  2.357005  0  0  -0.23463  0  2.598106  0  0  -0.255818  0  2.600408  0  0  -0.180316  -0.219948  0  2.596341  0
O  O120  1  0.45959886  0.64780908  0.70913956  1  0  -0.6978  0  2.124899  0  0  -0.620592  0  2.388831  0  0  -0.652802  0  2.375228  0  0  -0.338398  -0.597781  0  2.397259  0
O  O121  1  0.04040413  0.14780778  0.29085885  1  0  -0.697819  0  2.124905  0  0  -0.620619  0  2.388833  0  0  -0.652832  0  2.375231  0  0  -0.338386  -0.597806  0  2.397266  0
O  O122  1  0.54040202  0.35218989  0.29085873  1  0  -0.697875  0  2.124899  0  0  -0.620657  0  2.388832  0  0  -0.652867  0  2.375231  0  0  -0.33842  -0.597849  0  2.397269  0
O  O123  1  0.95959948  0.85219290  0.70913955  1  0  -0.697805  0  2.124936  0  0  -0.620578  0  2.388865  0  0  -0.652789  0  2.375264  0  0  -0.338383  -0.597769  0  2.397298  0
O  O124  1  0.26241375  0.72112254  0.60835636  1  0  -0.602238  0  1.934856  0  0  -0.54174  0  2.167995  0  0  -0.569835  0  2.158767  0  0  -0.310083  -0.522113  0  2.173686  0
O  O125  1  0.23758314  0.22112312  0.39164244  1  0  -0.602321  0  1.934857  0  0  -0.541818  0  2.167976  0  0  -0.569913  0  2.158744  0  0  -0.31011  -0.522183  0  2.173669  0
O  O126  1  0.73758576  0.27887644  0.39164123  1  0  -0.602302  0  1.934872  0  0  -0.541808  0  2.168026  0  0  -0.5699  0  2.158799  0  0  -0.310067  -0.522181  0  2.173723  0
O  O127  1  0.76241641  0.77887840  0.60835770  1  0  -0.602266  0  1.934821  0  0  -0.541746  0  2.167961  0  0  -0.569842  0  2.158732  0  0  -0.310092  -0.522115  0  2.17365  0
O  O128  1  0.71944167  0.50928050  0.65480829  1  0  -0.305421  0  2.354168  0  0  -0.227298  0  2.595468  0  0  -0.247792  0  2.597145  0  0  -0.179778  -0.212918  0  2.593925  0
O  O129  1  0.78055746  0.00928175  0.34519048  1  0  -0.305376  0  2.354127  0  0  -0.227274  0  2.595424  0  0  -0.247746  0  2.59709  0  0  -0.179775  -0.212889  0  2.593883  0
O  O130  1  0.28055923  0.49071764  0.34519128  1  0  -0.305398  0  2.354152  0  0  -0.227279  0  2.595419  0  0  -0.247772  0  2.597109  0  0  -0.179789  -0.212899  0  2.593869  0
O  O131  1  0.21944070  0.99071807  0.65480833  1  0  -0.305423  0  2.354192  0  0  -0.227297  0  2.595511  0  0  -0.247787  0  2.59719  0  0  -0.179794  -0.21291  0  2.593964  0
