# generated using pymatgen
data_Zn4H16C40N4O21
_symmetry_space_group_name_H-M   'P 1'
_cell_length_a   23.70909820
_cell_length_b   23.71072944
_cell_length_c   23.70891517
_cell_angle_alpha   65.98315877
_cell_angle_beta   72.75868273
_cell_angle_gamma   107.25112054
_symmetry_Int_Tables_number   1
_chemical_formula_structural   Zn4H16C40N4O21
_chemical_formula_sum   'Zn8 H32 C80 N8 O42'
_cell_volume   10211.49744349
_cell_formula_units_Z   2
loop_
 _symmetry_equiv_pos_site_id
 _symmetry_equiv_pos_as_xyz
  1  'x, y, z'
loop_
 _atom_site_type_symbol
 _atom_site_label
 _atom_site_symmetry_multiplicity
 _atom_site_fract_x
 _atom_site_fract_y
 _atom_site_fract_z
 _atom_site_occupancy
 _atom_site_pbe_bader_charge
 _atom_site_pbe_bader_spin_density
 _atom_site_pbe_cm5_charge
 _atom_site_pbe_ddec_charge
 _atom_site_pbe_ddec_spin_density
 _atom_site_pbe_ddec_sum_bond_order
 _atom_site_pbe_magmom
Zn  Zn0  1  0.05615124  0.95618993  0.48335740  1  1.319719  0  0.67934  0.97211  0  2.348682  0
Zn  Zn1  1  0.05615482  0.09995862  0.46050031  1  1.31932  0  0.679382  0.972154  0  2.348487  0
Zn  Zn2  1  0.94384347  0.98335121  0.45618453  1  1.31991  0  0.679396  0.972151  0  2.348227  0
Zn  Zn3  1  0.94385378  0.96049344  0.59996634  1  1.319385  0  0.679312  0.972006  0  2.348463  0
Zn  Zn4  1  0.93954022  0.53950144  0.01664894  1  1.320169  0  0.679405  0.972121  0  2.348407  0
Zn  Zn5  1  0.06046427  0.51664663  0.03950921  1  1.32047  0  0.679417  0.972258  0  2.348239  0
Zn  Zn6  1  0.93953615  0.40003669  0.04381116  1  1.319046  0  0.679359  0.972059  0  2.34846  0
Zn  Zn7  1  0.06044864  0.54380312  0.90004125  1  1.319151  0  0.679334  0.97205  0  2.348588  0
H  H8  1  0.92671124  0.65514349  0.10601117  1  0.118193  0  0.111674  0.119337  0  0.986534  0
H  H9  1  0.92571692  0.71716485  0.16959349  1  0.062713  0  0.109519  0.112821  0  0.985083  0
H  H10  1  0.07429682  0.66960508  0.21719148  1  0.060623  0  0.109612  0.113048  0  0.98504  0
H  H11  1  0.07331492  0.60602283  0.15517195  1  0.117805  0  0.11163  0.119295  0  0.986402  0
H  H12  1  0.92267891  0.82351761  0.28355397  1  0.068798  0  0.109757  0.113293  0  0.984866  0
H  H13  1  0.92258377  0.88573207  0.34689092  1  0.0927  0  0.111982  0.119212  0  0.986854  0
H  H14  1  0.07736529  0.84683995  0.38581312  1  0.093007  0  0.111955  0.119257  0  0.986903  0
H  H15  1  0.07726805  0.78349313  0.32361066  1  0.069437  0  0.109664  0.113235  0  0.984696  0
H  H16  1  0.07330387  0.46726985  0.77155889  1  0.120803  0  0.111593  0.119199  0  0.986636  0
H  H17  1  0.07429553  0.40467808  0.70854874  1  0.067747  0  0.109511  0.11291  0  0.985114  0
H  H18  1  0.92571950  0.20853303  0.90468848  1  0.067064  0  0.109564  0.112972  0  0.985102  0
H  H19  1  0.92670124  0.27153522  0.96728751  1  0.120326  0  0.111664  0.119397  0  0.986416  0
H  H20  1  0.07727955  0.29377093  0.59914060  1  0.070451  0  0.109709  0.113311  0  0.984724  0
H  H21  1  0.07737149  0.23052096  0.53684098  1  0.108928  0  0.11202  0.119367  0  0.986825  0
H  H22  1  0.92258663  0.03685026  0.73051564  1  0.108779  0  0.112005  0.119261  0  0.986872  0
H  H23  1  0.92268157  0.09915665  0.79376093  1  0.069879  0  0.109741  0.113259  0  0.984834  0
H  H24  1  0.73263694  0.46315907  0.11422081  1  0.134546  0  0.112039  0.119396  0  0.986692  0
H  H25  1  0.60708729  0.40085221  0.17643892  1  0.065532  0  0.109749  0.113397  0  0.984692  0
H  H26  1  0.60708457  0.20623667  0.21647119  1  0.070326  0  0.109697  0.113316  0  0.984751  0
H  H27  1  0.73263563  0.26948331  0.15312563  1  0.088185  0  0.111973  0.119362  0  0.986798  0
H  H28  1  0.38677846  0.29146052  0.28280546  1  0.061277  0  0.109539  0.112883  0  0.985093  0
H  H29  1  0.26117621  0.22845300  0.34482232  1  0.116035  0  0.111703  0.119467  0  0.986423  0
H  H30  1  0.26117167  0.03272344  0.39395306  1  0.119574  0  0.111685  0.119352  0  0.986666  0
H  H31  1  0.38677385  0.09531661  0.33037314  1  0.063852  0  0.109572  0.113018  0  0.985078  0
H  H32  1  0.26737047  0.61420879  0.96316718  1  0.134414  0  0.112004  0.119315  0  0.986868  0
H  H33  1  0.39292068  0.67641910  0.90086027  1  0.065274  0  0.109727  0.113365  0  0.984738  0
H  H34  1  0.39289833  0.71645152  0.70623932  1  0.070426  0  0.109703  0.113292  0  0.984791  0
H  H35  1  0.26734769  0.65311143  0.76948306  1  0.088323  0  0.112024  0.119354  0  0.986923  0
H  H36  1  0.61323569  0.78280870  0.79146337  1  0.062045  0  0.109568  0.112921  0  0.985156  0
H  H37  1  0.73883617  0.84482561  0.72845219  1  0.115951  0  0.111701  0.119475  0  0.986518  0
H  H38  1  0.73881208  0.89395842  0.53271942  1  0.11952  0  0.111643  0.119281  0  0.986498  0
H  H39  1  0.61321019  0.83037504  0.59531437  1  0.06306  0  0.109603  0.112954  0  0.984995  0
C  C40  1  0.17916986  0.08958495  0.41041091  1  1.537694  0  0.229019  0.6056  0  4.155183  0
C  C41  1  0.99999393  0.13601484  0.36397941  1  1.652597  0  0.233684  0.611974  0  4.179681  0
C  C42  1  0.99999426  0.90735247  0.40736649  1  1.532107  0  0.228777  0.606924  0  4.166769  0
C  C43  1  0.82082748  0.91040653  0.58957980  1  1.537929  0  0.228977  0.605664  0  4.155224  0
C  C44  1  0.00000294  0.86398184  0.63602706  1  1.652516  0  0.233686  0.611895  0  4.179134  0
C  C45  1  0.99999582  0.09264072  0.59264414  1  1.542166  0  0.228658  0.606893  0  4.166782  0
C  C46  1  0.00001656  0.58958555  0.08958575  1  1.544571  0  0.22888  0.605596  0  4.155822  0
C  C47  1  0.00000127  0.36398063  0.13602335  1  1.651374  0  0.233625  0.611815  0  4.179533  0
C  C48  1  0.81471443  0.40736081  0.09263391  1  1.521848  0  0.228615  0.606864  0  4.166721  0
C  C49  1  0.99999292  0.41040691  0.91042118  1  1.55028  0  0.229056  0.605585  0  4.155227  0
C  C50  1  0.99999303  0.63601717  0.86398176  1  1.65087  0  0.233748  0.612059  0  4.179733  0
C  C51  1  0.18528133  0.59263536  0.90736045  1  1.521927  0  0.228721  0.606731  0  4.166744  0
C  C52  1  0.99999942  0.80538056  0.69462720  1  0.092369  0  0.018225  -0.074608  0  3.874005  0
C  C53  1  0.99999204  0.69461128  0.80538628  1  0.096738  0  0.018082  -0.074887  0  3.874877  0
C  C54  1  0.95666019  0.77604667  0.76545588  1  0.274705  0  0.103573  0.035652  0  3.873059  0
C  C55  1  0.04149276  0.72210612  0.73455676  1  0.265245  0  0.103678  0.035901  0  3.873551  0
C  C56  1  0.95849660  0.72394305  0.81939702  1  0.260948  0  0.103706  0.035835  0  3.873184  0
C  C57  1  0.04333229  0.77788622  0.68061827  1  0.258524  0  0.103615  0.035777  0  3.873485  0
C  C58  1  0.99999984  0.19461431  0.30537845  1  0.091161  0  0.018117  -0.074825  0  3.874544  0
C  C59  1  0.00000257  0.30537948  0.19461650  1  0.097254  0  0.018224  -0.074743  0  3.8744  0
C  C60  1  0.95666157  0.18061129  0.27787903  1  0.259412  0  0.103689  0.035663  0  3.873094  0
C  C61  1  0.04150215  0.31938383  0.22395299  1  0.261145  0  0.10364  0.035755  0  3.873458  0
C  C62  1  0.95850372  0.23455296  0.22209817  1  0.265784  0  0.103649  0.035863  0  3.873025  0
C  C63  1  0.04333865  0.26544187  0.27605417  1  0.275016  0  0.103683  0.035941  0  3.873416  0
C  C64  1  0.00001370  0.62693863  0.12694634  1  0.054315  0  -0.018131  -0.044741  0  3.979201  0
C  C65  1  0.95850710  0.65843100  0.13085866  1  -0.039115  0  -0.076612  -0.081468  0  3.974464  0
C  C66  1  0.95815449  0.69304992  0.16600492  1  -0.030899  0  -0.078931  -0.12456  0  3.941244  0
C  C67  1  0.00000662  0.69756377  0.19757371  1  0.14146  0  0.007807  0.148391  0  4.109455  0
C  C68  1  0.04186158  0.66600576  0.19306960  1  -0.029987  0  -0.078866  -0.124923  0  3.941621  0
C  C69  1  0.04151412  0.63085969  0.15845067  1  -0.037425  0  -0.076459  -0.081032  0  3.974331  0
C  C70  1  0.00000077  0.73310676  0.23312105  1  -0.356743  0  -0.038441  -0.103234  0  4.115874  0
C  C71  1  0.99999035  0.76380835  0.26384122  1  -0.039113  0  -0.039571  -0.103324  0  4.11499  0
C  C72  1  0.99998366  0.79933890  0.29939464  1  0.016934  0  0.007738  0.150161  0  4.104926  0
C  C73  1  0.95627881  0.82856960  0.30622180  1  -0.043998  0  -0.078872  -0.12585  0  3.94059  0
C  C74  1  0.95621203  0.86318795  0.34137174  1  0.078746  0  -0.077247  -0.082713  0  3.97837  0
C  C75  1  0.99997852  0.86998267  0.37003885  1  -0.093195  0  -0.018097  -0.044681  0  3.979149  0
C  C76  1  0.04374147  0.84131820  0.36325995  1  0.07965  0  -0.076926  -0.082572  0  3.978121  0
C  C77  1  0.04367365  0.80616060  0.32864969  1  -0.043535  0  -0.078933  -0.12576  0  3.940091  0
C  C78  1  0.99999956  0.37304740  0.87306766  1  -0.057026  0  -0.018009  -0.044424  0  3.9789  0
C  C79  1  0.04150672  0.41063142  0.80006984  1  0.013861  0  -0.076447  -0.081247  0  3.974547  0
C  C80  1  0.04185800  0.37583605  0.76509938  1  -0.082243  0  -0.078929  -0.12478  0  3.941438  0
C  C81  1  0.00000410  0.30242237  0.80243889  1  0.233186  0  0.007849  0.148724  0  4.109335  0
C  C82  1  0.95815136  0.26508173  0.87585190  1  -0.082108  0  -0.078826  -0.12481  0  3.94154  0
C  C83  1  0.95850148  0.30004953  0.91064912  1  0.014122  0  -0.076663  -0.081482  0  3.974594  0
C  C84  1  0.99999881  0.26688190  0.76689050  1  -0.356549  0  -0.038584  -0.103793  0  4.115983  0
C  C85  1  0.99999497  0.23617797  0.73617148  1  -0.041159  0  -0.039498  -0.102966  0  4.114736  0
C  C86  1  0.99998573  0.20063824  0.70062862  1  0.160155  0  0.007704  0.150152  0  4.104797  0
C  C87  1  0.04367922  0.23750807  0.62769086  1  -0.116207  0  -0.078819  -0.125776  0  3.939993  0
C  C88  1  0.04374898  0.20241758  0.59301291  1  -0.017526  0  -0.077022  -0.082723  0  3.978039  0
C  C89  1  0.99998272  0.12999155  0.62998845  1  0.087645  0  -0.018159  -0.044665  0  3.979269  0
C  C90  1  0.95621450  0.09302145  0.70241277  1  -0.035717  0  -0.07721  -0.082794  0  3.978363  0
C  C91  1  0.95628294  0.12770295  0.73749859  1  -0.116884  0  -0.078896  -0.125826  0  3.940276  0
C  C92  1  0.74001967  0.37001206  0.12998399  1  0.009775  0  -0.018153  -0.044642  0  3.978953  0
C  C93  1  0.70456805  0.40698559  0.13677239  1  0.038249  0  -0.077149  -0.082818  0  3.978084  0
C  C94  1  0.63479923  0.37230335  0.17138974  1  -0.140516  0  -0.07889  -0.125994  0  3.940257  0
C  C95  1  0.59873157  0.29936762  0.20063113  1  0.091861  0  0.007741  0.150411  0  4.105107  0
C  C96  1  0.63479827  0.26249923  0.19380627  1  0.079878  0  -0.078798  -0.125913  0  3.940476  0
C  C97  1  0.70456638  0.29758647  0.15864617  1  -0.127683  0  -0.077145  -0.082825  0  3.978324  0
C  C98  1  0.52765237  0.26382525  0.23617052  1  -0.115737  0  -0.039561  -0.10341  0  4.114601  0
C  C99  1  0.46622027  0.23310832  0.26687593  1  -0.2673  0  -0.038645  -0.103607  0  4.11602  0
C  C100  1  0.39513772  0.19756890  0.30241472  1  0.149784  0  0.008069  0.149083  0  4.10932  0
C  C101  1  0.35906625  0.23491094  0.30692176  1  0.030424  0  -0.078751  -0.124622  0  3.940994  0
C  C102  1  0.28930078  0.19994097  0.34153713  1  -0.0934  0  -0.076883  -0.081832  0  3.974804  0
C  C103  1  0.25388308  0.12694282  0.37304236  1  0.027907  0  -0.018027  -0.044323  0  3.978852  0
C  C104  1  0.28929737  0.08936048  0.36911482  1  -0.036425  0  -0.076486  -0.081362  0  3.974672  0
C  C105  1  0.35906263  0.12415471  0.33397024  1  0.001437  0  -0.079033  -0.125069  0  3.941561  0
C  C106  1  0.25997628  0.62997429  0.87001467  1  0.010127  0  -0.01822  -0.044574  0  3.979276  0
C  C107  1  0.29543372  0.63675919  0.90699195  1  0.038184  0  -0.077015  -0.082676  0  3.978118  0
C  C108  1  0.36520276  0.67137379  0.87230804  1  -0.139864  0  -0.078858  -0.125856  0  3.940302  0
C  C109  1  0.40126346  0.70061883  0.79937030  1  0.091154  0  0.007683  0.150211  0  4.105413  0
C  C110  1  0.36518918  0.69378960  0.76250221  1  0.079866  0  -0.078938  -0.125917  0  3.940581  0
C  C111  1  0.29542118  0.65863205  0.79758800  1  -0.127783  0  -0.077148  -0.082902  0  3.978539  0
C  C112  1  0.47234420  0.73615751  0.76382940  1  -0.116234  0  -0.03959  -0.103485  0  4.114111  0
C  C113  1  0.53378430  0.76687572  0.73310717  1  -0.266903  0  -0.038553  -0.103395  0  4.115432  0
C  C114  1  0.60486508  0.80241336  0.69757004  1  0.150373  0  0.007947  0.148852  0  4.109877  0
C  C115  1  0.64094126  0.80692452  0.73491258  1  0.029697  0  -0.07878  -0.124626  0  3.941246  0
C  C116  1  0.71070715  0.84154481  0.69993882  1  -0.093071  0  -0.076792  -0.081778  0  3.974793  0
C  C117  1  0.74611404  0.87304324  0.62693920  1  0.02767  0  -0.017962  -0.044498  0  3.979061  0
C  C118  1  0.71069109  0.86911865  0.58935856  1  -0.036575  0  -0.076519  -0.081232  0  3.974454  0
C  C119  1  0.64092655  0.83397338  0.62415578  1  0.00202  0  -0.079018  -0.124897  0  3.94141  0
N  N120  1  0.90609485  0.79895681  0.78546259  1  0.452989  0  0.05922  0.506488  0  4.273445  0
N  N121  1  0.08440528  0.69154679  0.71454996  1  0.443729  0  0.059262  0.506369  0  4.273552  0
N  N122  1  0.91557123  0.70102565  0.89287229  1  0.472937  0  0.059172  0.506548  0  4.273817  0
N  N123  1  0.09390136  0.80845104  0.60714357  1  0.465144  0  0.059238  0.506281  0  4.273332  0
N  N124  1  0.90609169  0.10714216  0.30842613  1  0.465789  0  0.059249  0.506707  0  4.273362  0
N  N125  1  0.08441732  0.39285416  0.20105563  1  0.472915  0  0.05928  0.506554  0  4.272911  0
N  N126  1  0.91558402  0.21455193  0.19153186  1  0.443482  0  0.059355  0.506693  0  4.273452  0
N  N127  1  0.09390874  0.28544581  0.29896785  1  0.454183  0  0.059177  0.506416  0  4.274164  0
O  O128  1  0.99999991  0.99999828  0.50000040  1  -1.235227  0  -0.574686  -1.037556  0  2.536372  0
O  O129  1  0.14994631  0.02233951  0.44405940  1  -1.187275  0  -0.316306  -0.548504  0  2.340861  0
O  O130  1  0.02177705  0.15196337  0.40100339  1  -1.151886  0  -0.295727  -0.517822  0  2.335814  0
O  O131  1  0.95405481  0.92538817  0.41874661  1  -1.167091  0  -0.315895  -0.548005  0  2.3372  0
O  O132  1  0.14994242  0.12760301  0.40599735  1  -1.185813  0  -0.316308  -0.548529  0  2.340799  0
O  O133  1  0.04594141  0.91875048  0.42539726  1  -1.167222  0  -0.31596  -0.548057  0  2.33748  0
O  O134  1  0.97820971  0.07721550  0.36980725  1  -1.150566  0  -0.295529  -0.517589  0  2.335913  0
O  O135  1  0.85004879  0.94404576  0.52233235  1  -1.1876  0  -0.316217  -0.548472  0  2.340883  0
O  O136  1  0.97822784  0.90100233  0.65197705  1  -1.151669  0  -0.295636  -0.517669  0  2.335883  0
O  O137  1  0.85006146  0.90599631  0.62759756  1  -1.18573  0  -0.316329  -0.548489  0  2.340649  0
O  O138  1  0.02178437  0.86981372  0.57722265  1  -1.150502  0  -0.29561  -0.517741  0  2.335934  0
O  O139  1  0.04594520  0.12718456  0.52867661  1  -1.171993  0  -0.315868  -0.548012  0  2.337462  0
O  O140  1  0.95405243  0.02866814  0.62719410  1  -1.171979  0  -0.315898  -0.548031  0  2.337171  0
O  O141  1  0.99999862  0.49999757  0.00000511  1  -1.234688  0  -0.574679  -1.03759  0  2.536247  0
O  O142  1  0.96640706  0.59399919  0.05594497  1  -1.18313  0  -0.316349  -0.548497  0  2.340987  0
O  O143  1  0.05297607  0.42278193  0.09900305  1  -1.147956  0  -0.295622  -0.517682  0  2.335755  0
O  O144  1  0.84413531  0.37281071  0.08124368  1  -1.16678  0  -0.31587  -0.547999  0  2.337372  0
O  O145  1  0.03362936  0.55595342  0.09399720  1  -1.184024  0  -0.316093  -0.548442  0  2.34104  0
O  O146  1  0.84413878  0.47133146  0.07461017  1  -1.172719  0  -0.315882  -0.54801  0  2.337346  0
O  O147  1  0.94702965  0.34803535  0.13019081  1  -1.151417  0  -0.295651  -0.517657  0  2.335847  0
O  O148  1  0.96638883  0.37239119  0.97766703  1  -1.18551  0  -0.316233  -0.54843  0  2.34088  0
O  O149  1  0.05295793  0.63017777  0.84803323  1  -1.151179  0  -0.295723  -0.517847  0  2.336147  0
O  O150  1  0.03359342  0.47765298  0.87239788  1  -1.185608  0  -0.316386  -0.548506  0  2.34076  0
O  O151  1  0.94702312  0.59899503  0.92278252  1  -1.148005  0  -0.295618  -0.51769  0  2.335749  0
O  O152  1  0.15586165  0.57461009  0.97133322  1  -1.17276  0  -0.315963  -0.548046  0  2.337312  0
O  O153  1  0.15584991  0.58123730  0.87281213  1  -1.167073  0  -0.31582  -0.547816  0  2.337183  0
O  O154  1  0.85899358  0.78133906  0.77337825  1  -0.393587  0  -0.100647  -0.280707  0  1.88355  0
O  O155  1  0.91513965  0.83128169  0.81434243  1  -0.413799  0  -0.107001  -0.286534  0  1.867701  0
O  O156  1  0.05469971  0.63237726  0.72661264  1  -0.391963  0  -0.100681  -0.28062  0  1.883519  0
O  O157  1  0.14561023  0.72945307  0.68569662  1  -0.414868  0  -0.106981  -0.28648  0  1.867632  0
O  O158  1  0.94527073  0.71864649  0.92235536  1  -0.41087  0  -0.100531  -0.280634  0  1.883601  0
O  O159  1  0.85436689  0.66868831  0.91615287  1  -0.411558  0  -0.107068  -0.286678  0  1.867938  0
O  O160  1  0.14100892  0.86762298  0.57767820  1  -0.405625  0  -0.100647  -0.280591  0  1.883456  0
O  O161  1  0.08485446  0.77054359  0.58384536  1  -0.416442  0  -0.107002  -0.286446  0  1.867554  0
O  O162  1  0.85899019  0.07766470  0.36760134  1  -0.406115  0  -0.100608  -0.280747  0  1.88331  0
O  O163  1  0.91513324  0.08385814  0.27050524  1  -0.416641  0  -0.107066  -0.286662  0  1.867728  0
O  O164  1  0.05471086  0.42232236  0.21868585  1  -0.410688  0  -0.100637  -0.280674  0  1.883223  0
O  O165  1  0.14562377  0.41614966  0.16872258  1  -0.412183  0  -0.10706  -0.286606  0  1.86728  0
O  O166  1  0.94528646  0.22663180  0.13235410  1  -0.392313  0  -0.100763  -0.280836  0  1.883691  0
O  O167  1  0.85437886  0.18568043  0.22944416  1  -0.41488  0  -0.107063  -0.286663  0  1.867736  0
O  O168  1  0.14100966  0.27337004  0.28134405  1  -0.393783  0  -0.100614  -0.280662  0  1.88384  0
O  O169  1  0.08486848  0.31431528  0.33130239  1  -0.414951  0  -0.107009  -0.286574  0  1.868054  0
