# generated using pymatgen
data_CuH10C10Br2(NO)2
_symmetry_space_group_name_H-M   'P 1'
_cell_length_a   3.99491487
_cell_length_b   8.65575583
_cell_length_c   17.95418182
_cell_angle_alpha   90.00134436
_cell_angle_beta   89.99164342
_cell_angle_gamma   103.94228127
_symmetry_Int_Tables_number   1
_chemical_formula_structural   CuH10C10Br2(NO)2
_chemical_formula_sum   'Cu2 H20 C20 Br4 N4 O4'
_cell_volume   602.54724586
_cell_formula_units_Z   2
loop_
 _symmetry_equiv_pos_site_id
 _symmetry_equiv_pos_as_xyz
  1  'x, y, z'
loop_
 _atom_site_type_symbol
 _atom_site_label
 _atom_site_symmetry_multiplicity
 _atom_site_fract_x
 _atom_site_fract_y
 _atom_site_fract_z
 _atom_site_occupancy
 _atom_site_hle17_bader_charge
 _atom_site_hle17_bader_spin_density
 _atom_site_hle17_ddec_charge
 _atom_site_hle17_ddec_spin_density
 _atom_site_hle17_ddec_sum_bond_order
 _atom_site_hle17_magmom
 _atom_site_hse06_10hf_bader_spin_density
 _atom_site_hse06_10hf_ddec_charge
 _atom_site_hse06_10hf_ddec_spin_density
 _atom_site_hse06_10hf_ddec_sum_bond_order
 _atom_site_hse06_10hf_magmom
 _atom_site_pbe_bader_spin_density
 _atom_site_pbe_cm5_charge
 _atom_site_pbe_ddec_charge
 _atom_site_pbe_ddec_spin_density
 _atom_site_pbe_ddec_sum_bond_order
 _atom_site_pbe_magmom
Cu  Cu0  1  0.49999685  0.50000639  0.49999747  1  0.909999  0  0.636276  0  1.858339  0  0  0.563293  0  2.276555  0  0  0.540532  0.546933  0  2.306059  0
Cu  Cu1  1  0.99998847  0.00000301  0.00000186  1  0.909889  0  0.636171  0  1.858664  0  0  0.562628  0  2.277277  0  0  0.540572  0.546868  0  2.30654  0
H  H2  1  0.75290106  0.51594962  0.65403327  1  0.064203  0  0.090961  0  0.983659  0  0  0.096613  0  1.056397  0  0  0.0992  0.093982  0  1.05908  0
H  H3  1  0.74712493  0.98405949  0.15404401  1  0.063775  0  0.091011  0  0.983584  0  0  0.0966  0  1.05636  0  0  0.099197  0.09398  0  1.059034  0
H  H4  1  0.24712166  0.48406105  0.34595944  1  0.064077  0  0.091022  0  0.983678  0  0  0.096674  0  1.056436  0  0  0.099239  0.094053  0  1.059092  0
H  H5  1  0.25286612  0.01594261  0.84596318  1  0.06415  0  0.090982  0  0.983579  0  0  0.096602  0  1.056333  0  0  0.09923  0.093986  0  1.059002  0
H  H6  1  0.78142762  0.75454615  0.81468761  1  0.627378  0  0.353756  0  0.9195  0  0  0.330266  0  0.999936  0  0  0.270618  0.322925  0  1.008405  0
H  H7  1  0.71864769  0.74547894  0.31469811  1  0.627252  0  0.353994  0  0.91918  0  0  0.330498  0  0.999632  0  0  0.270719  0.32317  0  1.008055  0
H  H8  1  0.21858069  0.24545018  0.18531012  1  0.627387  0  0.353769  0  0.919412  0  0  0.330268  0  0.999876  0  0  0.270587  0.322927  0  1.008343  0
H  H9  1  0.28138461  0.25451524  0.68530463  1  0.626758  0  0.353775  0  0.919439  0  0  0.330236  0  0.999996  0  0  0.270604  0.322903  0  1.008424  0
H  H10  1  0.64281681  0.96633437  0.74153495  1  0.037426  0  0.118287  0  0.950715  0  0  0.126677  0  1.015396  0  0  0.1068  0.124077  0  1.017685  0
H  H11  1  0.85719127  0.53367152  0.24153276  1  0.037655  0  0.118359  0  0.950689  0  0  0.126771  0  1.015341  0  0  0.106869  0.124176  0  1.017619  0
H  H12  1  0.35716691  0.03366292  0.25846779  1  0.037464  0  0.11827  0  0.950841  0  0  0.12666  0  1.015506  0  0  0.106796  0.12406  0  1.017797  0
H  H13  1  0.14282263  0.46632604  0.75846552  1  0.037634  0  0.11827  0  0.950687  0  0  0.126684  0  1.015349  0  0  0.106839  0.124093  0  1.017625  0
H  H14  1  0.44482536  0.02585924  0.61527843  1  0.02862  0  0.108163  0  0.956513  0  0  0.1173  0  1.018077  0  0  0.101053  0.115105  0  1.018949  0
H  H15  1  0.05518308  0.47414361  0.11525809  1  0.028517  0  0.108183  0  0.956453  0  0  0.117334  0  1.018015  0  0  0.101062  0.115163  0  1.018895  0
H  H16  1  0.55514980  0.97414626  0.38472542  1  0.028907  0  0.108159  0  0.956485  0  0  0.117314  0  1.018034  0  0  0.101054  0.115119  0  1.01891  0
H  H17  1  0.94482592  0.52586458  0.88473908  1  0.028766  0  0.108227  0  0.956407  0  0  0.1174  0  1.017941  0  0  0.101057  0.115199  0  1.018852  0
H  H18  1  0.41999230  0.82758564  0.51227589  1  0.041373  0  0.078848  0  0.986491  0  0  0.08719  0  1.054612  0  0  0.096731  0.085251  0  1.056399  0
H  H19  1  0.08001310  0.67242912  0.01226057  1  0.041074  0  0.078823  0  0.986588  0  0  0.087097  0  1.054764  0  0  0.096655  0.085165  0  1.056563  0
H  H20  1  0.57997315  0.17242570  0.48772518  1  0.041551  0  0.078889  0  0.986502  0  0  0.087238  0  1.0546  0  0  0.096729  0.085298  0  1.056388  0
H  H21  1  0.91998311  0.32758368  0.98773827  1  0.040971  0  0.078771  0  0.986623  0  0  0.087069  0  1.054789  0  0  0.096666  0.085139  0  1.05659  0
C  C22  1  0.69001399  0.63087539  0.64719648  1  0.578061  0  -0.004719  0  3.663448  0  0  -0.043737  0  3.916753  0  0  0.020147  -0.045641  0  3.904951  0
C  C23  1  0.80999660  0.86912899  0.14719987  1  0.578301  0  -0.004757  0  3.663943  0  0  -0.043623  0  3.917005  0  0  0.020158  -0.04551  0  3.905273  0
C  C24  1  0.30999364  0.36913515  0.35279846  1  0.577788  0  -0.004775  0  3.663476  0  0  -0.043824  0  3.916838  0  0  0.020075  -0.045729  0  3.905042  0
C  C25  1  0.18999295  0.13086480  0.85280565  1  0.577757  0  -0.004897  0  3.66366  0  0  -0.043778  0  3.916913  0  0  0.02012  -0.045664  0  3.905184  0
C  C26  1  0.72184801  0.73748563  0.70692975  1  0.455025  0  0.290327  0  3.822359  0  0  0.289458  0  4.078198  0  0  0.086301  0.284561  0  4.065949  0
C  C27  1  0.77813986  0.76252556  0.20693347  1  0.455478  0  0.289981  0  3.822344  0  0  0.289142  0  4.07808  0  0  0.086165  0.284252  0  4.065836  0
C  C28  1  0.27815367  0.26251774  0.29306798  1  0.455359  0  0.290401  0  3.821948  0  0  0.289415  0  4.077984  0  0  0.086279  0.284518  0  4.06574  0
C  C29  1  0.22183769  0.23746931  0.79306648  1  0.455707  0  0.290401  0  3.821798  0  0  0.289355  0  4.077858  0  0  0.08625  0.284461  0  4.065616  0
C  C30  1  0.62919719  0.88178161  0.69608620  1  0.121984  0  -0.130513  0  3.686175  0  0  -0.158024  0  3.937932  0  0  -0.083714  -0.158667  0  3.92787  0
C  C31  1  0.87082787  0.61821949  0.19608068  1  0.121779  0  -0.130421  0  3.685872  0  0  -0.157954  0  3.937582  0  0  -0.083772  -0.158581  0  3.927479  0
C  C32  1  0.37079077  0.11821927  0.30391375  1  0.121558  0  -0.130481  0  3.686483  0  0  -0.157958  0  3.938263  0  0  -0.083704  -0.158598  0  3.928189  0
C  C33  1  0.12917426  0.38177441  0.80392039  1  0.121767  0  -0.130313  0  3.686021  0  0  -0.157781  0  3.937791  0  0  -0.083685  -0.158406  0  3.927676  0
C  C34  1  0.52034479  0.91511448  0.62564222  1  0.075502  0  -0.077465  0  3.743163  0  0  -0.088337  0  3.994614  0  0  -0.083806  -0.085275  0  3.980403  0
C  C35  1  0.97964593  0.58489255  0.12562769  1  0.054931  0  -0.077685  0  3.743347  0  0  -0.088594  0  3.994789  0  0  -0.083901  -0.085543  0  3.980586  0
C  C36  1  0.47962900  0.08489339  0.37435718  1  0.053028  0  -0.077446  0  3.743276  0  0  -0.088325  0  3.994686  0  0  -0.083791  -0.085265  0  3.980479  0
C  C37  1  0.02035073  0.41511078  0.87436837  1  0.054726  0  -0.077823  0  3.743232  0  0  -0.088737  0  3.994672  0  0  -0.083944  -0.085662  0  3.980481  0
C  C38  1  0.50458356  0.80605005  0.56806582  1  0.494265  0  0.090229  0  3.696007  0  0  0.054032  0  3.948628  0  0  0.021462  0.050207  0  3.936519  0
C  C39  1  0.99541932  0.69395713  0.06805319  1  0.515072  0  0.090355  0  3.696163  0  0  0.054263  0  3.948692  0  0  0.021591  0.050459  0  3.93667  0
C  C40  1  0.49540475  0.19395676  0.43193580  1  0.516334  0  0.090208  0  3.695991  0  0  0.053996  0  3.948586  0  0  0.021519  0.050174  0  3.936477  0
C  C41  1  0.00457173  0.30604496  0.93195066  1  0.515431  0  0.090318  0  3.695743  0  0  0.054178  0  3.948355  0  0  0.021523  0.050377  0  3.936329  0
Br  Br42  1  0.93582421  0.67674582  0.41999715  1  -0.564403  0  -0.46379  0  1.083184  0  0  -0.450213  0  1.408138  0  0  -0.199268  -0.442393  0  1.427076  0
Br  Br43  1  0.56434666  0.82320799  0.92002083  1  -0.564324  0  -0.463775  0  1.083295  0  0  -0.450216  0  1.408256  0  0  -0.199203  -0.442314  0  1.427223  0
Br  Br44  1  0.06427640  0.32321344  0.58000001  1  -0.564308  0  -0.463763  0  1.083071  0  0  -0.450167  0  1.408011  0  0  -0.199263  -0.442343  0  1.426951  0
Br  Br45  1  0.43566447  0.17676822  0.07998414  1  -0.564395  0  -0.463759  0  1.083296  0  0  -0.450217  0  1.408315  0  0  -0.199179  -0.442321  0  1.427296  0
N  N46  1  0.58344428  0.66516041  0.57961474  1  -1.233524  0  -0.270403  0  3.440723  0  0  -0.19097  0  3.712475  0  0  -0.356804  -0.180412  0  3.700068  0
N  N47  1  0.91653476  0.83484393  0.07961476  1  -1.233454  0  -0.270221  0  3.440965  0  0  -0.190969  0  3.712759  0  0  -0.356785  -0.180384  0  3.700394  0
N  N48  1  0.41654187  0.33485230  0.42037908  1  -1.233046  0  -0.270466  0  3.440876  0  0  -0.190981  0  3.712583  0  0  -0.356865  -0.180423  0  3.700178  0
N  N49  1  0.08343948  0.16515445  0.92038965  1  -1.233652  0  -0.270129  0  3.440873  0  0  -0.190807  0  3.7126  0  0  -0.356739  -0.180231  0  3.700241  0
O  O50  1  0.84146781  0.69255717  0.77202654  1  -1.180929  0  -0.501848  0  2.162136  0  0  -0.451787  0  2.373222  0  0  -0.34907  -0.437339  0  2.376379  0
O  O51  1  0.65855828  0.80745416  0.27204868  1  -1.181025  0  -0.501919  0  2.161984  0  0  -0.451811  0  2.372948  0  0  -0.348972  -0.437352  0  2.376062  0
O  O52  1  0.15855959  0.30744762  0.22796561  1  -1.180988  0  -0.501898  0  2.161857  0  0  -0.451736  0  2.372901  0  0  -0.34899  -0.437286  0  2.376062  0
O  O53  1  0.34144544  0.19253265  0.72795851  1  -1.180625  0  -0.501917  0  2.161957  0  0  -0.451701  0  2.372995  0  0  -0.348947  -0.437235  0  2.376107  0
