# generated using pymatgen
data_CuH6C6(N2Cl)2
_symmetry_space_group_name_H-M   'P 1'
_cell_length_a   3.94822400
_cell_length_b   7.58474542
_cell_length_c   14.52881802
_cell_angle_alpha   89.99955090
_cell_angle_beta   90.00188300
_cell_angle_gamma   94.31217528
_symmetry_Int_Tables_number   1
_chemical_formula_structural   CuH6C6(N2Cl)2
_chemical_formula_sum   'Cu2 H12 C12 N8 Cl4'
_cell_volume   433.85231891
_cell_formula_units_Z   2
loop_
 _symmetry_equiv_pos_site_id
 _symmetry_equiv_pos_as_xyz
  1  'x, y, z'
loop_
 _atom_site_type_symbol
 _atom_site_label
 _atom_site_symmetry_multiplicity
 _atom_site_fract_x
 _atom_site_fract_y
 _atom_site_fract_z
 _atom_site_occupancy
 _atom_site_hle17_bader_spin_density
 _atom_site_hle17_ddec_charge
 _atom_site_hle17_ddec_spin_density
 _atom_site_hle17_ddec_sum_bond_order
 _atom_site_hle17_magmom
 _atom_site_hse06_10hf_bader_spin_density
 _atom_site_hse06_10hf_ddec_charge
 _atom_site_hse06_10hf_ddec_spin_density
 _atom_site_hse06_10hf_ddec_sum_bond_order
 _atom_site_hse06_10hf_magmom
 _atom_site_hse06_bader_spin_density
 _atom_site_hse06_ddec_charge
 _atom_site_hse06_ddec_spin_density
 _atom_site_hse06_ddec_sum_bond_order
 _atom_site_hse06_magmom
 _atom_site_pbe_bader_spin_density
 _atom_site_pbe_cm5_charge
 _atom_site_pbe_ddec_charge
 _atom_site_pbe_ddec_spin_density
 _atom_site_pbe_ddec_sum_bond_order
 _atom_site_pbe_magmom
Cu  Cu0  1  0.61372126  0.35998071  0.14093890  1  0  0.742369  0  1.928767  0  0  0.688014  0  2.361461  0  0  0.712761  0  2.316041  0  0  0.583586  0.671347  0  2.393287  0
Cu  Cu1  1  0.38632105  0.63999618  0.64094783  1  0  0.742386  0  1.928953  0  0  0.68706  0  2.362134  0  0  0.712538  0  2.316527  0  0  0.583488  0.671164  0  2.393468  0
H  H2  1  0.23742403  0.91487510  0.24759123  1  0  0.304682  0  0.921015  0  0  0.285868  0  0.987061  0  0  0.294209  0  0.980208  0  0  0.283833  0.279845  0  0.99215  0
H  H3  1  0.76257693  0.08512171  0.74758539  1  0  0.304526  0  0.921005  0  0  0.285796  0  0.986967  0  0  0.294157  0  0.980079  0  0  0.283791  0.279778  0  0.992018  0
H  H4  1  0.91075800  0.99159825  0.06726185  1  0  0.303148  0  0.924866  0  0  0.284586  0  0.990526  0  0  0.292302  0  0.984521  0  0  0.284679  0.279039  0  0.995042  0
H  H5  1  0.08924910  0.00837805  0.56727773  1  0  0.303249  0  0.924725  0  0  0.284683  0  0.990345  0  0  0.292411  0  0.984323  0  0  0.284674  0.279141  0  0.99483  0
H  H6  1  0.10242424  0.38287038  0.34069290  1  0  0.105332  0  0.97412  0  0  0.111231  0  1.041508  0  0  0.113402  0  1.04126  0  0  0.112118  0.109682  0  1.041813  0
H  H7  1  0.89756018  0.61713727  0.84068263  1  0  0.105248  0  0.974452  0  0  0.111184  0  1.041736  0  0  0.113372  0  1.041472  0  0  0.112082  0.109618  0  1.042061  0
H  H8  1  0.39258301  0.72113592  0.38290400  1  0  0.115998  0  0.96228  0  0  0.124047  0  1.026883  0  0  0.126812  0  1.0259  0  0  0.11261  0.122132  0  1.027353  0
H  H9  1  0.60735086  0.27888704  0.88290510  1  0  0.115967  0  0.962137  0  0  0.124017  0  1.026762  0  0  0.126782  0  1.025793  0  0  0.112596  0.122088  0  1.027242  0
H  H10  1  0.32371879  0.56224842  0.94421673  1  0  0.107438  0  0.969377  0  0  0.116407  0  1.032004  0  0  0.118301  0  1.032486  0  0  0.114082  0.115062  0  1.03174  0
H  H11  1  0.67626096  0.43775415  0.44422933  1  0  0.107504  0  0.969535  0  0  0.116439  0  1.032195  0  0  0.118346  0  1.032664  0  0  0.114081  0.115092  0  1.031921  0
H  H12  1  0.54508903  0.91839227  0.92584791  1  0  0.116146  0  0.961538  0  0  0.124594  0  1.024187  0  0  0.127656  0  1.022367  0  0  0.112737  0.12284  0  1.02483  0
H  H13  1  0.45495942  0.08161195  0.42583810  1  0  0.116197  0  0.961304  0  0  0.124548  0  1.024083  0  0  0.127614  0  1.022261  0  0  0.112698  0.122773  0  1.024754  0
C  C14  1  0.08910885  0.50713180  0.30466765  1  0  0.008906  0  3.723776  0  0  -0.02621  0  4.003911  0  0  -0.02422  0  4.021564  0  0  0.001808  -0.027688  0  3.992367  0
C  C15  1  0.91088839  0.49289345  0.80467174  1  0  0.008945  0  3.723619  0  0  -0.02621  0  4.003823  0  0  -0.024223  0  4.021504  0  0  0.001853  -0.027714  0  3.9923  0
C  C16  1  0.23501674  0.67346732  0.32552646  1  0  0.021467  0  3.617812  0  0  -0.02012  0  3.883463  0  0  -0.018679  0  3.902021  0  0  0.007208  -0.02111  0  3.870835  0
C  C17  1  0.76495555  0.32654048  0.82553140  1  0  0.021631  0  3.617421  0  0  -0.020052  0  3.883264  0  0  -0.018586  0  3.901797  0  0  0.007225  -0.021051  0  3.870637  0
C  C18  1  0.95686789  0.68515180  0.19404789  1  0  0.264854  0  3.784231  0  0  0.232336  0  4.055759  0  0  0.244841  0  4.06849  0  0  0.212488  0.224078  0  4.046984  0
C  C19  1  0.04314412  0.31484825  0.69404707  1  0  0.264881  0  3.784232  0  0  0.232437  0  4.055804  0  0  0.244945  0  4.068554  0  0  0.212468  0.224149  0  4.04704  0
C  C20  1  0.79514211  0.72295345  0.10881105  1  0  0.260162  0  3.785634  0  0  0.23131  0  4.052383  0  0  0.243466  0  4.065922  0  0  0.213316  0.223389  0  4.042962  0
C  C21  1  0.20486865  0.27704620  0.60882132  1  0  0.260479  0  3.785117  0  0  0.231258  0  4.052295  0  0  0.243401  0  4.065847  0  0  0.213191  0.223308  0  4.042879  0
C  C22  1  0.48426279  0.64739095  0.98849472  1  0  0.021968  0  3.697492  0  0  -0.007654  0  3.961723  0  0  -0.006481  0  3.981868  0  0  0.004432  -0.008385  0  3.948284  0
C  C23  1  0.51576223  0.35262179  0.48849673  1  0  0.021743  0  3.697462  0  0  -0.007938  0  3.961715  0  0  -0.006757  0  3.981842  0  0  0.004344  -0.008692  0  3.948288  0
C  C24  1  0.59159515  0.82389708  0.97933371  1  0  0.015708  0  3.635617  0  0  -0.026557  0  3.90046  0  0  -0.024506  0  3.917802  0  0  0.007469  -0.028358  0  3.88894  0
C  C25  1  0.40844694  0.17610127  0.47933072  1  0  0.016047  0  3.635152  0  0  -0.026163  0  3.900002  0  0  -0.024086  0  3.917319  0  0  0.007621  -0.027969  0  3.888485  0
N  N26  1  0.91724981  0.51645073  0.22299949  1  0  -0.393519  0  3.333195  0  0  -0.342466  0  3.642473  0  0  -0.357904  0  3.652538  0  0  -0.368562  -0.332478  0  3.636231  0
N  N27  1  0.08272040  0.48353042  0.72300728  1  0  -0.393435  0  3.333426  0  0  -0.342404  0  3.642593  0  0  -0.357913  0  3.652796  0  0  -0.368496  -0.332334  0  3.636323  0
N  N28  1  0.14777684  0.78344634  0.25508726  1  0  -0.288068  0  3.419464  0  0  -0.22223  0  3.642833  0  0  -0.23726  0  3.65739  0  0  -0.366588  -0.2121  0  3.6331  0
N  N29  1  0.85220664  0.21656357  0.75509953  1  0  -0.288098  0  3.419349  0  0  -0.222276  0  3.642617  0  0  -0.237296  0  3.657127  0  0  -0.36655  -0.212116  0  3.632817  0
N  N30  1  0.78430047  0.86881822  0.05598330  1  0  -0.2917  0  3.453756  0  0  -0.2262  0  3.67498  0  0  -0.241802  0  3.691758  0  0  -0.367308  -0.215689  0  3.663919  0
N  N31  1  0.21574044  0.13117545  0.55597357  1  0  -0.29221  0  3.45348  0  0  -0.226531  0  3.674733  0  0  -0.242132  0  3.691484  0  0  -0.367349  -0.216007  0  3.66363  0
N  N32  1  0.61326305  0.58630091  0.06908127  1  0  -0.378777  0  3.297167  0  0  -0.324923  0  3.595134  0  0  -0.341168  0  3.607936  0  0  -0.369191  -0.314333  0  3.586852  0
N  N33  1  0.38674248  0.41368065  0.56908214  1  0  -0.378745  0  3.297227  0  0  -0.32479  0  3.595283  0  0  -0.34105  0  3.608151  0  0  -0.369057  -0.314104  0  3.586939  0
Cl  Cl34  1  0.61433141  0.13209433  0.24151326  1  0  -0.516182  0  0.979648  0  0  -0.495658  0  1.262748  0  0  -0.506596  0  1.241714  0  0  -0.297752  -0.48761  0  1.276973  0
Cl  Cl35  1  0.38563110  0.86790511  0.74150271  1  0  -0.516056  0  0.979732  0  0  -0.495757  0  1.262899  0  0  -0.506672  0  1.241871  0  0  -0.297797  -0.487601  0  1.277005  0
Cl  Cl36  1  0.22597898  0.22877443  0.04216425  1  0  -0.52017  0  1.025779  0  0  -0.505826  0  1.328183  0  0  -0.51497  0  1.30304  0  0  -0.280898  -0.49962  0  1.345508  0
Cl  Cl37  1  0.77399479  0.77122322  0.54218611  1  0  -0.520021  0  1.026053  0  0  -0.50585  0  1.328575  0  0  -0.515015  0  1.303452  0  0  -0.28093  -0.499565  0  1.345752  0
