# generated using pymatgen
data_MnSi2H30(C6O)2
_symmetry_space_group_name_H-M   'P 1'
_cell_length_a   9.71635563
_cell_length_b   10.12841727
_cell_length_c   10.80289941
_cell_angle_alpha   98.55516530
_cell_angle_beta   90.00071487
_cell_angle_gamma   118.66173032
_symmetry_Int_Tables_number   1
_chemical_formula_structural   MnSi2H30(C6O)2
_chemical_formula_sum   'Mn2 Si4 H60 C24 O4'
_cell_volume   919.35388187
_cell_formula_units_Z   2
loop_
 _symmetry_equiv_pos_site_id
 _symmetry_equiv_pos_as_xyz
  1  'x, y, z'
loop_
 _atom_site_type_symbol
 _atom_site_label
 _atom_site_symmetry_multiplicity
 _atom_site_fract_x
 _atom_site_fract_y
 _atom_site_fract_z
 _atom_site_occupancy
 _atom_site_pbe_cm5_charge
 _atom_site_pbe_ddec_charge
 _atom_site_pbe_ddec_spin_density
 _atom_site_pbe_ddec_sum_bond_order
 _atom_site_pbe_magmom
Mn  Mn0  1  0.25215683  0.99996236  0.74998348  1  0.453109  0.737495  4.765697  2.460277  4.355
Mn  Mn1  1  0.74784413  0.00003965  0.25001946  1  0.453106  0.737482  4.765706  2.460278  4.355
Si  Si2  1  0.22564328  0.29473511  0.67313873  1  0.081053  1.032255  0.012335  3.908331  0.006
Si  Si3  1  0.93089738  0.70524253  0.82684511  1  0.081027  1.031682  0.01235  3.909392  0.006
Si  Si4  1  0.77435814  0.70526576  0.32686127  1  0.081058  1.032222  0.012336  3.908373  0.006
Si  Si5  1  0.06910244  0.29475719  0.17315565  1  0.081037  1.031693  0.01235  3.909448  0.006
H  H6  1  0.25622256  0.24338900  0.88157215  1  0.069981  0.158149  0.005826  1.107145  0.007
H  H7  1  0.01281224  0.75657577  0.61838273  1  0.070195  0.158405  0.005823  1.106733  0.007
H  H8  1  0.74377737  0.75661301  0.11842893  1  0.069998  0.158145  0.005826  1.107163  0.007
H  H9  1  0.98718655  0.24342396  0.38161711  1  0.070211  0.158434  0.005823  1.106723  0.007
H  H10  1  0.43322531  0.30442032  0.80548973  1  0.065622  0.147915  0.007253  1.120806  0.008
H  H11  1  0.12880232  0.69553053  0.69449169  1  0.065753  0.147937  0.007262  1.121644  0.008
H  H12  1  0.56677509  0.69558055  0.19451211  1  0.065628  0.147935  0.007252  1.120768  0.008
H  H13  1  0.87119762  0.30447148  0.30550754  1  0.065765  0.147952  0.007263  1.121635  0.008
H  H14  1  0.43965308  0.35225446  0.52721076  1  0.084571  0.155319  -0.000137  1.041587  0.0
H  H15  1  0.08741097  0.64771523  0.97277957  1  0.084538  0.155307  -0.000138  1.041873  0.0
H  H16  1  0.56034891  0.64774755  0.47278940  1  0.084566  0.155332  -0.000137  1.041609  0.0
H  H17  1  0.91258679  0.35228449  0.02722027  1  0.084524  0.155279  -0.000138  1.041893  0.0
H  H18  1  0.26608260  0.32579000  0.44802895  1  0.08734  0.160289  -0.000118  1.046605  0.0
H  H19  1  0.94029459  0.67419731  0.05194986  1  0.087406  0.160358  -0.000117  1.046688  0.0
H  H20  1  0.73391825  0.67420973  0.55196996  1  0.087333  0.160282  -0.000118  1.046628  0.0
H  H21  1  0.05970318  0.32580242  0.94805090  1  0.087415  0.160356  -0.000117  1.046672  0.0
H  H22  1  0.28009124  0.16447016  0.47762564  1  0.081807  0.143811  0.001145  1.071379  0.0
H  H23  1  0.11559749  0.83549503  0.02235298  1  0.081559  0.143565  0.001146  1.071321  0.0
H  H24  1  0.71991122  0.83553070  0.52237436  1  0.081812  0.143803  0.001145  1.071332  0.0
H  H25  1  0.88440085  0.16450584  0.97764795  1  0.08155  0.14356  0.001146  1.071379  0.0
H  H26  1  0.96629228  0.05740058  0.61052894  1  0.088505  0.159859  0.003167  1.045182  0.001
H  H27  1  0.90890092  0.94260869  0.88948553  1  0.088723  0.160427  0.003158  1.045022  0.001
H  H28  1  0.03370960  0.94259915  0.38946998  1  0.088491  0.159823  0.003167  1.045213  0.001
H  H29  1  0.09109890  0.05739104  0.11051523  1  0.088731  0.160449  0.003157  1.045036  0.001
H  H30  1  0.95663565  0.22167948  0.58286379  1  0.082099  0.150131  0.000633  1.062885  0.001
H  H31  1  0.73495697  0.77831567  0.91714862  1  0.082473  0.15117  0.000633  1.061101  0.001
H  H32  1  0.04336680  0.77832139  0.41713621  1  0.082109  0.150155  0.000633  1.062872  0.001
H  H33  1  0.26504342  0.22168520  0.08285230  1  0.082468  0.151165  0.000633  1.0611  0.001
H  H34  1  0.95042641  0.18051290  0.73819409  1  0.083632  0.153852  -0.000267  1.05611  0.0
H  H35  1  0.76993327  0.81948864  0.76183418  1  0.083318  0.153719  -0.000267  1.056603  0.0
H  H36  1  0.04957444  0.81948682  0.26180575  1  0.083647  0.153901  -0.000267  1.056059  0.0
H  H37  1  0.23006712  0.18051223  0.23816674  1  0.083309  0.153705  -0.000267  1.05662  0.0
H  H38  1  0.23006401  0.51936044  0.81042567  1  0.084219  0.153968  -0.000212  1.041497  0.0
H  H39  1  0.71067699  0.48063443  0.68955104  1  0.083923  0.153427  -0.000214  1.041999  0.0
H  H40  1  0.76993684  0.48063929  0.18957325  1  0.084223  0.153966  -0.000212  1.041468  0.0
H  H41  1  0.28932283  0.51936530  0.31044880  1  0.083923  0.153434  -0.000214  1.041992  0.0
H  H42  1  0.23517408  0.54372840  0.65031426  1  0.082105  0.152515  0.000442  1.05051  0.0
H  H43  1  0.69142559  0.45627014  0.84967768  1  0.081905  0.151678  0.000436  1.051167  0.0
H  H44  1  0.76482837  0.45627247  0.34968481  1  0.082077  0.152434  0.000442  1.050471  0.0
H  H45  1  0.30857526  0.54372958  0.15032216  1  0.081906  0.151682  0.000436  1.051159  0.0
H  H46  1  0.40797227  0.57328783  0.73516030  1  0.085173  0.157443  -0.00016  1.031564  0.0
H  H47  1  0.83466225  0.42672037  0.76483290  1  0.0851  0.157075  -0.00016  1.031629  0.0
H  H48  1  0.59202915  0.42671304  0.26483970  1  0.085191  0.157456  -0.00016  1.031531  0.0
H  H49  1  0.16533861  0.57327935  0.23516693  1  0.08511  0.157091  -0.00016  1.031628  0.0
H  H50  1  0.59266559  0.94151720  0.85408679  1  0.105437  0.073994  -0.000138  0.992589  0.0
H  H51  1  0.65113349  0.05850239  0.64588023  1  0.105082  0.073997  -0.000137  0.99312  0.0
H  H52  1  0.40733378  0.05848367  0.14591043  1  0.105438  0.07397  -0.000138  0.992572  0.0
H  H53  1  0.34886416  0.94149506  0.35412114  1  0.105099  0.074044  -0.000137  0.993086  0.0
H  H54  1  0.38903718  0.79938085  0.81970063  1  0.117468  0.098171  0.001794  1.001028  0.001
H  H55  1  0.58965702  0.20063395  0.68027906  1  0.117244  0.097792  0.00179  1.001462  0.001
H  H56  1  0.61096218  0.20062002  0.18029752  1  0.117483  0.098146  0.001794  1.001014  0.001
H  H57  1  0.41034383  0.79936578  0.31972170  1  0.117244  0.097771  0.00179  1.001451  0.001
H  H58  1  0.48048383  0.22588326  0.98490196  1  0.117686  0.100721  0.000863  0.992463  0.001
H  H59  1  0.25466610  0.77414126  0.51511289  1  0.117552  0.100751  0.000863  0.993025  0.001
H  H60  1  0.51951405  0.77411875  0.01509449  1  0.117663  0.100656  0.000863  0.992594  0.001
H  H61  1  0.74533258  0.22585618  0.48488848  1  0.117559  0.100729  0.000863  0.993078  0.001
H  H62  1  0.64746393  0.19873280  0.95327219  1  0.106272  0.074988  4.5e-05  1.001479  0.0
H  H63  1  0.44878576  0.80126984  0.54676940  1  0.106243  0.075635  4.5e-05  1.000995  0.0
H  H64  1  0.35253429  0.80126578  0.04672563  1  0.106262  0.07496  4.5e-05  1.001432  0.0
H  H65  1  0.55121349  0.19872875  0.45323213  1  0.106249  0.07565  4.5e-05  1.000978  0.0
C  C66  1  0.30441092  0.22829285  0.79114467  1  -0.39615  -0.993096  0.021934  3.886236  -0.018
C  C67  1  0.07608021  0.77163471  0.70882046  1  -0.396301  -0.99314  0.021916  3.887138  -0.018
C  C68  1  0.69559005  0.77170916  0.20885641  1  -0.396177  -0.993105  0.021934  3.886214  -0.018
C  C69  1  0.92392076  0.22836731  0.29118062  1  -0.396325  -0.993176  0.021916  3.887161  -0.018
C  C70  1  0.31051356  0.28263788  0.51688336  1  -0.299688  -0.734035  0.002174  3.845963  0.001
C  C71  1  0.02787613  0.71733033  0.98309552  1  -0.299471  -0.733719  0.002175  3.846304  0.001
C  C72  1  0.68948729  0.71736184  0.48311647  1  -0.299685  -0.734038  0.002174  3.845949  0.001
C  C73  1  0.97212266  0.28266940  0.01690617  1  -0.29945  -0.733672  0.002175  3.84638  0.001
C  C74  1  0.00382369  0.17756471  0.64879616  1  -0.299664  -0.734662  0.005695  3.845286  0.003
C  C75  1  0.82626848  0.82243771  0.85122356  1  -0.300039  -0.736171  0.005702  3.844893  0.003
C  C76  1  0.99617773  0.82243616  0.35120291  1  -0.29967  -0.734679  0.005695  3.845243  0.003
C  C77  1  0.17373134  0.17756202  0.14877721  1  -0.300039  -0.73618  0.005703  3.84494  0.003
C  C78  1  0.27902432  0.50249211  0.72131703  1  -0.302597  -0.73187  0.001482  3.854156  0.002
C  C79  1  0.77650066  0.49750317  0.77867055  1  -0.302051  -0.729833  0.001482  3.854342  0.002
C  C80  1  0.72097710  0.49750876  0.27868204  1  -0.302602  -0.731782  0.001481  3.854006  0.002
C  C81  1  0.22349916  0.50249655  0.22132929  1  -0.302057  -0.729858  0.001482  3.854334  0.002
C  C82  1  0.47379489  0.89731228  0.88769680  1  -0.066997  -0.020389  0.006905  3.878077  0.005
C  C83  1  0.57647357  0.10270477  0.61227249  1  -0.0669  -0.020342  0.006919  3.878205  0.005
C  C84  1  0.52620344  0.10268859  0.11230042  1  -0.066996  -0.020287  0.006905  3.877852  0.005
C  C85  1  0.42352511  0.89729268  0.38772796  1  -0.066926  -0.020385  0.006919  3.878182  0.005
C  C86  1  0.52736297  0.14663315  0.98442992  1  -0.066449  -0.021358  0.006977  3.87851  0.005
C  C87  1  0.38076423  0.85337257  0.51560180  1  -0.066526  -0.023077  0.006987  3.880176  0.006
C  C88  1  0.47263891  0.85336658  0.01556807  1  -0.066393  -0.021162  0.006976  3.87852  0.005
C  C89  1  0.61923823  0.14662830  0.48439913  1  -0.06651  -0.023039  0.006988  3.880083  0.006
O  O90  1  0.42597726  0.01292193  0.89361397  1  -0.218025  -0.206925  0.039517  2.601746  0.026
O  O91  1  0.41306502  0.98709746  0.60638316  1  -0.217288  -0.205246  0.03949  2.600347  0.026
O  O92  1  0.57402107  0.98707894  0.10638417  1  -0.218034  -0.206974  0.039514  2.601615  0.026
O  O93  1  0.58693423  0.01290113  0.39361745  1  -0.217294  -0.205258  0.039492  2.600228  0.026
