# generated using pymatgen
data_NaH8C6N5O2
_symmetry_space_group_name_H-M   'P 1'
_cell_length_a   6.63627737
_cell_length_b   8.31913216
_cell_length_c   8.31914643
_cell_angle_alpha   91.73948235
_cell_angle_beta   106.73023143
_cell_angle_gamma   106.72978337
_symmetry_Int_Tables_number   1
_chemical_formula_structural   NaH8C6N5O2
_chemical_formula_sum   'Na2 H16 C12 N10 O4'
_cell_volume   418.00362144
_cell_formula_units_Z   2
loop_
 _symmetry_equiv_pos_site_id
 _symmetry_equiv_pos_as_xyz
  1  'x, y, z'
loop_
 _atom_site_type_symbol
 _atom_site_label
 _atom_site_symmetry_multiplicity
 _atom_site_fract_x
 _atom_site_fract_y
 _atom_site_fract_z
 _atom_site_occupancy
 _atom_site_pbe_bader_charge
 _atom_site_pbe_bader_spin_density
 _atom_site_pbe_cm5_charge
 _atom_site_pbe_ddec_charge
 _atom_site_pbe_ddec_spin_density
 _atom_site_pbe_ddec_sum_bond_order
 _atom_site_pbe_magmom
Na  Na0  1  0.00000051  0.00000127  0.00000136  1  0.878842  0  0.638856  0.825822  0  0.558687  0
Na  Na1  1  0.49999831  0.00000012  0.00000169  1  0.878831  0  0.638863  0.825821  0  0.55872  0
H  H2  1  0.97961107  0.31013859  0.15562932  1  0.615443  0  0.279665  0.345855  0  1.014704  0
H  H3  1  0.52038561  0.84437010  0.68986267  1  0.615471  0  0.27965  0.34584  0  1.014727  0
H  H4  1  0.02038483  0.68986186  0.84437083  1  0.615473  0  0.279673  0.345853  0  1.014711  0
H  H5  1  0.47961186  0.15563034  0.31014025  1  0.615434  0  0.279653  0.345833  0  1.014736  0
H  H6  1  0.84394872  0.29051968  0.96252151  1  0.634197  0  0.279492  0.327213  0  1.043418  0
H  H7  1  0.65605034  0.03747959  0.70948225  1  0.633997  0  0.279485  0.327198  0  1.043436  0
H  H8  1  0.15604875  0.70948076  0.03748141  1  0.633975  0  0.27949  0.327208  0  1.043422  0
H  H9  1  0.34394871  0.96252085  0.29051984  1  0.634178  0  0.279503  0.327234  0  1.043389  0
H  H10  1  0.80790633  0.01194940  0.36784471  1  0.078578  0  0.117402  0.078598  0  1.014357  0
H  H11  1  0.69209039  0.63215981  0.98805053  1  0.078491  0  0.117404  0.078561  0  1.014371  0
H  H12  1  0.19209015  0.98804471  0.63215179  1  0.078518  0  0.117392  0.078575  0  1.014458  0
H  H13  1  0.30791283  0.36784316  0.01195258  1  0.078274  0  0.117412  0.078597  0  1.014387  0
H  H14  1  0.81111469  0.81229456  0.58444055  1  0.088721  0  0.113826  0.119444  0  1.022118  0
H  H15  1  0.68887865  0.41555624  0.18769879  1  0.088748  0  0.113835  0.119496  0  1.022024  0
H  H16  1  0.18888385  0.18770461  0.41555657  1  0.088744  0  0.113829  0.119452  0  1.022058  0
H  H17  1  0.31112406  0.58444546  0.81230177  1  0.08873  0  0.113834  0.119468  0  1.022048  0
C  C18  1  0.75000006  0.59609142  0.40390802  1  0.02078  0  0.014886  0.075988  0  3.989969  0
C  C19  1  0.25000220  0.40390142  0.59609098  1  0.02074  0  0.014893  0.075997  0  3.989812  0
C  C20  1  0.78429162  0.87872883  0.33278841  1  0.491285  0  0.042415  0.093881  0  4.01035  0
C  C21  1  0.71570602  0.66722169  0.12127312  1  0.491435  0  0.042488  0.094012  0  4.010261  0
C  C22  1  0.21570486  0.12126528  0.66721050  1  0.491143  0  0.042482  0.09399  0  4.009943  0
C  C23  1  0.28429984  0.33278001  0.87872816  1  0.491609  0  0.042409  0.093848  0  4.010357  0
C  C24  1  0.74999919  0.47400320  0.52599652  1  0.894187  0  0.210793  0.217441  0  4.071054  0
C  C25  1  0.25000718  0.52599977  0.47400732  1  0.894235  0  0.210733  0.217385  0  4.071056  0
C  C26  1  0.78697826  0.76733722  0.45390504  1  0.00967  0  -0.079971  -0.159064  0  3.925805  0
C  C27  1  0.71301807  0.54609371  0.23265319  1  0.009681  0  -0.080048  -0.159288  0  3.925597  0
C  C28  1  0.21301819  0.23266070  0.54609637  1  0.00974  0  -0.079974  -0.15913  0  3.925636  0
C  C29  1  0.28698673  0.45390926  0.76734908  1  0.009676  0  -0.08003  -0.159165  0  3.925409  0
N  N30  1  0.81543284  0.51455881  0.69552749  1  -0.67785  0  -0.204182  -0.26074  0  3.279626  0
N  N31  1  0.68456682  0.30447289  0.48544448  1  -0.677787  0  -0.204226  -0.2608  0  3.279366  0
N  N32  1  0.18456827  0.48544669  0.30447281  1  -0.677712  0  -0.204249  -0.260835  0  3.27946  0
N  N33  1  0.31543588  0.69552881  0.51455848  1  -0.677842  0  -0.204201  -0.260813  0  3.279409  0
N  N34  1  0.74999784  0.83176683  0.16823617  1  -1.29308  0  -0.41882  -0.378397  0  3.439686  0
N  N35  1  0.25000801  0.16823488  0.83176992  1  -1.292927  0  -0.418808  -0.378393  0  3.439457  0
N  N36  1  0.78884913  0.36659118  0.75868727  1  -0.155183  0  -0.085543  -0.068172  0  3.334888  0
N  N37  1  0.71115181  0.24131188  0.63341318  1  -0.196886  0  -0.085438  -0.067968  0  3.334583  0
N  N38  1  0.21114780  0.63341179  0.24131079  1  -0.155228  0  -0.085458  -0.068031  0  3.334697  0
N  N39  1  0.28884618  0.75868983  0.36658629  1  -0.196906  0  -0.085434  -0.067966  0  3.334407  0
O  O40  1  0.86390665  0.22616833  0.06231546  1  -1.314347  0  -0.685992  -0.847467  0  2.057149  0
O  O41  1  0.63609231  0.93768531  0.77383570  1  -1.314383  0  -0.685987  -0.847466  0  2.057167  0
O  O42  1  0.13609131  0.77383717  0.93768532  1  -1.314365  0  -0.686008  -0.84746  0  2.057112  0
O  O43  1  0.36390725  0.06231640  0.22616774  1  -1.31433  0  -0.68599  -0.847456  0  2.057098  0
