# generated using pymatgen
data_AgH16C21SN6(OF)3
_symmetry_space_group_name_H-M   'P 1'
_cell_length_a   9.07157507
_cell_length_b   12.72151161
_cell_length_c   22.53102797
_cell_angle_alpha   101.51937970
_cell_angle_beta   90.00015637
_cell_angle_gamma   90.00021727
_symmetry_Int_Tables_number   1
_chemical_formula_structural   AgH16C21SN6(OF)3
_chemical_formula_sum   'Ag4 H64 C84 S4 N24 O12 F12'
_cell_volume   2547.79932577
_cell_formula_units_Z   4
loop_
 _symmetry_equiv_pos_site_id
 _symmetry_equiv_pos_as_xyz
  1  'x, y, z'
loop_
 _atom_site_type_symbol
 _atom_site_label
 _atom_site_symmetry_multiplicity
 _atom_site_fract_x
 _atom_site_fract_y
 _atom_site_fract_z
 _atom_site_occupancy
 _atom_site_pbe_bader_charge
 _atom_site_pbe_bader_spin_density
 _atom_site_pbe_cm5_charge
 _atom_site_pbe_ddec_charge
 _atom_site_pbe_ddec_spin_density
 _atom_site_pbe_ddec_sum_bond_order
 _atom_site_pbe_magmom
Ag  Ag0  1  0.50944524  0.13063133  0.57946722  1  0.621519  0  0.499371  0.3541  0  2.005656  0
Ag  Ag1  1  0.00944530  0.86936736  0.42053465  1  0.62153  0  0.499385  0.35413  0  2.005587  0
Ag  Ag2  1  0.06440025  0.12333616  0.94589121  1  0.618039  0  0.49954  0.365176  0  2.005231  0
Ag  Ag3  1  0.56440506  0.87666191  0.05410977  1  0.617972  0  0.499522  0.36517  0  2.00528  0
H  H4  1  0.98960991  0.82356373  0.68068732  1  0.067805  0  0.102201  0.102496  0  0.99758  0
H  H5  1  0.48962214  0.17643014  0.31930609  1  0.067779  0  0.102193  0.102526  0  0.997599  0
H  H6  1  0.17792694  0.80237254  0.59912331  1  0.120356  0  0.109507  0.124989  0  0.974211  0
H  H7  1  0.67793265  0.19762673  0.40087216  1  0.120365  0  0.109535  0.125018  0  0.974161  0
H  H8  1  0.27519538  0.93623172  0.75559864  1  0.097197  0  0.118313  0.103048  0  0.984526  0
H  H9  1  0.77520374  0.06377265  0.24440196  1  0.097139  0  0.118336  0.10305  0  0.984534  0
H  H10  1  0.19843032  0.03622191  0.81320006  1  0.11278  0  0.112142  0.088541  0  1.047615  0
H  H11  1  0.69843538  0.96378221  0.18680132  1  0.112731  0  0.112133  0.088515  0  1.047548  0
H  H12  1  0.89365333  0.14245198  0.65298014  1  0.121581  0  0.102728  0.122391  0  1.014145  0
H  H13  1  0.39366496  0.85754157  0.34701491  1  0.121547  0  0.102797  0.122474  0  1.014135  0
H  H14  1  0.49149723  0.84531394  0.77753386  1  0.066145  0  0.099686  0.099136  0  1.00486  0
H  H15  1  0.99150483  0.15468871  0.22246811  1  0.065903  0  0.099677  0.099109  0  1.004858  0
H  H16  1  0.00913882  0.10904254  0.35877444  1  0.119009  0  0.0999  0.099286  0  1.058519  0
H  H17  1  0.50912779  0.89095698  0.64122264  1  0.118972  0  0.099844  0.099206  0  1.058702  0
H  H18  1  0.69384044  0.82320028  0.84863399  1  0.129632  0  0.106621  0.127649  0  0.993838  0
H  H19  1  0.19384934  0.17680382  0.15136782  1  0.129448  0  0.10661  0.127664  0  0.993743  0
H  H20  1  0.41082641  0.32406162  0.48593102  1  0.15948  0  0.111814  0.140329  0  1.003733  0
H  H21  1  0.91081779  0.67593837  0.51406967  1  0.159543  0  0.111843  0.140368  0  1.003654  0
H  H22  1  0.96030738  0.33009991  0.08395682  1  0.142309  0  0.11101  0.133632  0  1.013551  0
H  H23  1  0.46030308  0.66989942  0.91604607  1  0.142262  0  0.111005  0.133601  0  1.013503  0
H  H24  1  0.39231012  0.15622810  0.88665562  1  0.070518  0  0.100435  0.113109  0  1.028679  0
H  H25  1  0.89231074  0.84377585  0.11334417  1  0.070586  0  0.100466  0.113156  0  1.028659  0
H  H26  1  0.54952838  0.12362817  0.16302894  1  0.111476  0  0.104604  0.107035  0  1.037727  0
H  H27  1  0.04952685  0.87637144  0.83697397  1  0.111459  0  0.104602  0.107035  0  1.037712  0
H  H28  1  0.08516387  0.12378268  0.57498275  1  0.091204  0  0.098213  0.101523  0  1.039932  0
H  H29  1  0.58516785  0.87621868  0.42501552  1  0.09125  0  0.098212  0.101515  0  1.040034  0
H  H30  1  0.37208749  0.94863504  0.55046439  1  0.098953  0  0.113985  0.105604  0  1.027289  0
H  H31  1  0.87209055  0.05136643  0.44953643  1  0.098943  0  0.113983  0.105616  0  1.027255  0
H  H32  1  0.24517751  0.86659452  0.50181043  1  0.148185  0  0.117728  0.120204  0  1.023466  0
H  H33  1  0.74518022  0.13340574  0.49818878  1  0.148179  0  0.117727  0.120223  0  1.023466  0
H  H34  1  0.35587853  0.36540881  0.65925053  1  0.099694  0  0.115231  0.128659  0  0.983966  0
H  H35  1  0.85588066  0.63459502  0.34074965  1  0.099911  0  0.115224  0.12862  0  0.983956  0
H  H36  1  0.59424105  0.13663409  0.95483634  1  0.097614  0  0.100332  0.106802  0  1.030254  0
H  H37  1  0.09424408  0.86336809  0.04516425  1  0.097642  0  0.100333  0.106828  0  1.030214  0
H  H38  1  0.77916463  0.88251084  0.95934198  1  0.16403  0  0.119411  0.12657  0  1.037928  0
H  H39  1  0.27917137  0.11749193  0.04065932  1  0.163999  0  0.119437  0.126614  0  1.037928  0
H  H40  1  0.89036155  0.97100815  0.92754595  1  0.10427  0  0.11181  0.09996  0  1.04067  0
H  H41  1  0.39036693  0.02899336  0.07245667  1  0.104165  0  0.111824  0.099989  0  1.040622  0
H  H42  1  0.70431008  0.02024644  0.70119245  1  0.093192  0  0.118532  0.106111  0  0.994667  0
H  H43  1  0.20431433  0.97975208  0.29880784  1  0.093237  0  0.118549  0.106092  0  0.994703  0
H  H44  1  0.78652762  0.91731477  0.73239387  1  0.075539  0  0.117297  0.101751  0  0.986434  0
H  H45  1  0.28653239  0.08268323  0.26760468  1  0.07564  0  0.117291  0.101719  0  0.986455  0
H  H46  1  0.07874130  0.29438391  0.34559959  1  0.093559  0  0.106455  0.107717  0  0.980212  0
H  H47  1  0.57872827  0.70561823  0.65439920  1  0.093191  0  0.106445  0.107709  0  0.980321  0
H  H48  1  0.63880605  0.21199059  0.72296561  1  0.103923  0  0.105115  0.1185  0  1.04503  0
H  H49  1  0.13878819  0.78800936  0.27702990  1  0.104173  0  0.105091  0.118525  0  1.044899  0
H  H50  1  0.86074098  0.33687209  0.93135210  1  0.096986  0  0.107848  0.123133  0  0.999052  0
H  H51  1  0.36074089  0.66312292  0.06864797  1  0.09694  0  0.107836  0.123107  0  0.99905  0
H  H52  1  0.22296507  0.49010207  0.74178484  1  0.061965  0  0.10496  0.101621  0  1.003232  0
H  H53  1  0.72297700  0.50989814  0.25821212  1  0.062021  0  0.104985  0.101647  0  1.003175  0
H  H54  1  0.17954342  0.24389183  0.84811245  1  0.111694  0  0.104994  0.114086  0  1.034764  0
H  H55  1  0.67954824  0.75611464  0.15188784  1  0.111889  0  0.104998  0.114067  0  1.034765  0
H  H56  1  0.27042845  0.39842407  0.40718823  1  0.136353  0  0.099792  0.110764  0  1.034349  0
H  H57  1  0.77041555  0.60157627  0.59281234  1  0.136443  0  0.099813  0.110825  0  1.034316  0
H  H58  1  0.57107208  0.38775204  0.78699652  1  0.073195  0  0.103236  0.103438  0  0.998926  0
H  H59  1  0.07106057  0.61224527  0.21299994  1  0.073127  0  0.103273  0.103503  0  0.998931  0
H  H60  1  0.67729560  0.44898258  0.88944401  1  0.109948  0  0.100226  0.115036  0  1.032076  0
H  H61  1  0.17729189  0.55101185  0.11055446  1  0.109853  0  0.100221  0.11498  0  1.032059  0
H  H62  1  0.63750715  0.30019761  0.22145424  1  0.072136  0  0.103545  0.099103  0  0.992199  0
H  H63  1  0.13750209  0.69980308  0.77854978  1  0.072637  0  0.103501  0.099032  0  0.99215  0
H  H64  1  0.14203440  0.43121457  0.83490966  1  0.105812  0  0.108942  0.114613  0  0.98904  0
H  H65  1  0.64204493  0.56878939  0.16508808  1  0.105876  0  0.108954  0.114615  0  0.989059  0
H  H66  1  0.83964528  0.39936526  0.18333595  1  0.068456  0  0.101482  0.096525  0  1.021575  0
H  H67  1  0.33963664  0.60063528  0.81666784  1  0.068307  0  0.10146  0.09647  0  1.021596  0
C  C68  1  0.01247539  0.89002647  0.65799688  1  -0.053851  0  -0.090993  -0.130323  0  4.006272  0
C  C69  1  0.51248135  0.10996984  0.34199984  1  -0.053786  0  -0.091025  -0.130438  0  4.006461  0
C  C70  1  0.82190099  0.18651815  0.06802131  1  0.451581  0  0.104713  0.129983  0  4.059142  0
C  C71  1  0.32190308  0.81348153  0.93198147  1  0.451492  0  0.104814  0.130112  0  4.059322  0
C  C72  1  0.28220440  0.17620032  0.46734437  1  0.363197  0  0.104644  0.128686  0  4.060388  0
C  C73  1  0.78219339  0.82380087  0.53265409  1  0.362571  0  0.104645  0.12879  0  4.060043  0
C  C74  1  0.11877979  0.87812585  0.61238163  1  -0.040635  0  -0.090733  -0.127345  0  3.962081  0
C  C75  1  0.61878612  0.12187242  0.38761365  1  -0.040531  0  -0.090753  -0.12731  0  3.962125  0
C  C76  1  0.17003286  0.11554140  0.43146984  1  0.42972  0  0.099859  0.124389  0  4.063753  0
C  C77  1  0.67002682  0.88446022  0.56852944  1  0.429692  0  0.099845  0.124349  0  4.063703  0
C  C78  1  0.29859139  0.01248700  0.78657689  1  0.276153  0  -0.045207  -0.139177  0  3.923906  0
C  C79  1  0.79859895  0.98751824  0.21342473  1  0.276239  0  -0.045222  -0.139186  0  3.923996  0
C  C80  1  0.95811048  0.06859869  0.64286735  1  -0.061537  0  -0.093315  -0.11846  0  3.946552  0
C  C81  1  0.45811817  0.93139587  0.35712877  1  -0.061454  0  -0.093462  -0.118661  0  3.946667  0
C  C82  1  0.42835617  0.00221127  0.82679851  1  -0.071981  0  -0.022238  0.070683  0  4.008247  0
C  C83  1  0.92835911  0.99779118  0.17320248  1  -0.072081  0  -0.022224  0.070752  0  4.008251  0
C  C84  1  0.51581304  0.90973966  0.81612272  1  -0.044991  0  -0.093595  -0.132847  0  4.016363  0
C  C85  1  0.01582391  0.09026627  0.18387910  1  -0.045053  0  -0.093504  -0.132745  0  4.016192  0
C  C86  1  0.09433042  0.15608610  0.38625045  1  -0.0653  0  -0.095042  -0.163459  0  3.988833  0
C  C87  1  0.59431565  0.84391449  0.61374818  1  -0.065213  0  -0.095029  -0.163386  0  3.988883  0
C  C88  1  0.62982311  0.89725739  0.85565533  1  -0.034713  0  -0.093363  -0.136478  0  3.964532  0
C  C89  1  0.12983157  0.10274490  0.14434487  1  -0.034206  0  -0.093411  -0.136561  0  3.964588  0
C  C90  1  0.32300132  0.27916933  0.45911947  1  -0.053205  0  -0.080279  -0.139109  0  3.925713  0
C  C91  1  0.82298981  0.72083037  0.54088153  1  -0.053706  0  -0.080288  -0.139153  0  3.925447  0
C  C92  1  0.78214734  0.17364970  0.79365482  1  0.320273  0  0.105918  0.072523  0  4.014317  0
C  C93  1  0.28214022  0.82634750  0.20634141  1  0.320541  0  0.105978  0.072678  0  4.014102  0
C  C94  1  0.14539381  0.96182382  0.58182224  1  -0.049796  0  -0.012963  0.093583  0  3.978576  0
C  C95  1  0.64539439  0.03817693  0.41817647  1  -0.049987  0  -0.012892  0.093627  0  3.978573  0
C  C96  1  0.87249016  0.28568492  0.10105095  1  -0.025995  0  -0.076444  -0.126734  0  3.923307  0
C  C97  1  0.37248378  0.71431574  0.89895155  1  -0.025968  0  -0.076506  -0.12669  0  3.923546  0
C  C98  1  0.45914944  0.08367377  0.87679217  1  -0.021383  0  -0.094436  -0.12123  0  3.966833  0
C  C99  1  0.95914941  0.91633120  0.12320782  1  -0.021374  0  -0.094484  -0.121352  0  3.967031  0
C  C100  1  0.33504293  0.23300260  0.70676794  1  0.394593  0  0.096433  0.111295  0  4.078197  0
C  C101  1  0.83504434  0.76700196  0.29323319  1  0.394548  0  0.096383  0.111284  0  4.078136  0
C  C102  1  0.63760576  0.16803721  0.14611121  1  -0.005851  0  -0.086058  -0.138976  0  3.957202  0
C  C103  1  0.13760301  0.83196428  0.85389335  1  -0.005933  0  -0.086102  -0.139024  0  3.957312  0
C  C104  1  0.92977506  0.98447944  0.67292939  1  -0.049299  0  -0.02084  0.073544  0  3.998144  0
C  C105  1  0.42977766  0.01551823  0.32706795  1  -0.049364  0  -0.020806  0.073603  0  3.997971  0
C  C106  1  0.06583526  0.05743924  0.59796861  1  -0.014784  0  -0.10001  -0.136643  0  3.982939  0
C  C107  1  0.56584275  0.94256046  0.40202856  1  -0.01474  0  -0.099962  -0.136576  0  3.983152  0
C  C108  1  0.65880744  0.97853577  0.90618798  1  -0.044854  0  -0.013856  0.097685  0  3.970092  0
C  C109  1  0.15881072  0.02146983  0.09381130  1  -0.044906  0  -0.013876  0.097692  0  3.970135  0
C  C110  1  0.25979931  0.94524732  0.53190104  1  0.262224  0  -0.04432  -0.172915  0  3.875349  0
C  C111  1  0.75980031  0.05475218  0.46809899  1  0.262258  0  -0.044378  -0.17306  0  3.875352  0
C  C112  1  0.31549972  0.33905736  0.69944163  1  0.019845  0  -0.077655  -0.131459  0  3.955044  0
C  C113  1  0.81550062  0.66094474  0.30055742  1  0.019759  0  -0.077621  -0.131373  0  3.954925  0
C  C114  1  0.28404195  0.19858159  0.75907042  1  0.35453  0  0.107324  0.069251  0  4.006886  0
C  C115  1  0.78404429  0.80142281  0.24092975  1  0.354365  0  0.107344  0.069212  0  4.006788  0
C  C116  1  0.57389257  0.07212072  0.91602173  1  -0.07156  0  -0.096748  -0.130491  0  3.970294  0
C  C117  1  0.07389400  0.92787978  0.08397909  1  -0.071456  0  -0.096702  -0.130433  0  3.970227  0
C  C118  1  0.84710217  0.20960841  0.85110992  1  0.429365  0  0.090826  0.106299  0  4.09365  0
C  C119  1  0.34709779  0.79038818  0.14888765  1  0.429243  0  0.090756  0.106151  0  4.09374  0
C  C120  1  0.91879699  0.35727776  0.56910619  1  1.628748  0  0.284518  0.509374  0  4.054821  0
C  C121  1  0.41879592  0.64271423  0.43089270  1  1.628802  0  0.284582  0.509381  0  4.054824  0
C  C122  1  0.78260853  0.96258270  0.94836532  1  0.245975  0  -0.048354  -0.177441  0  3.878608  0
C  C123  1  0.28261382  0.03742008  0.05163644  1  0.24594  0  -0.04839  -0.177558  0  3.878771  0
C  C124  1  0.80772036  0.99439601  0.71920600  1  0.292007  0  -0.041067  -0.138739  0  3.918507  0
C  C125  1  0.30772260  0.00560126  0.28079160  1  0.291901  0  -0.041049  -0.138621  0  3.918358  0
C  C126  1  0.13467317  0.25775871  0.37924339  1  -0.016151  0  -0.082591  -0.064108  0  3.976969  0
C  C127  1  0.63465900  0.74223961  0.62075459  1  -0.015879  0  -0.082611  -0.064197  0  3.977099  0
C  C128  1  0.68314808  0.23696465  0.76844179  1  -0.031369  0  -0.094769  -0.162756  0  3.983954  0
C  C129  1  0.18313859  0.76303543  0.23155467  1  -0.031356  0  -0.094716  -0.162767  0  3.983896  0
C  C130  1  0.81126313  0.30970227  0.88687472  1  -0.006068  0  -0.084549  -0.138416  0  3.957852  0
C  C131  1  0.31125798  0.69029340  0.11312315  1  -0.006257  0  -0.084564  -0.138421  0  3.957723  0
C  C132  1  0.24349382  0.40754897  0.74601549  1  -0.085531  0  -0.087352  -0.084997  0  4.011293  0
C  C133  1  0.74350176  0.59245049  0.25398274  1  -0.085432  0  -0.087389  -0.085044  0  4.011085  0
C  C134  1  0.21496609  0.26887476  0.80688289  1  -0.054826  0  -0.086892  -0.145869  0  3.969859  0
C  C135  1  0.71497325  0.73113103  0.19311692  1  -0.05479  0  -0.086899  -0.145843  0  3.969708  0
C  C136  1  0.24679290  0.31835734  0.41500492  1  -0.016893  0  -0.083021  -0.066501  0  3.960783  0
C  C137  1  0.74678258  0.68164613  0.58499643  1  -0.016351  0  -0.083001  -0.066499  0  3.960867  0
C  C138  1  0.70700025  0.12825342  0.09024920  1  0.38733  0  0.104252  0.129205  0  4.050933  0
C  C139  1  0.20699809  0.87174591  0.90975252  1  0.387352  0  0.104234  0.129234  0  4.05085  0
C  C140  1  0.64818099  0.33558691  0.80446072  1  -0.02952  0  -0.079314  -0.049978  0  3.961097  0
C  C141  1  0.14817294  0.66440905  0.19553566  1  -0.029697  0  -0.079398  -0.050169  0  3.961383  0
C  C142  1  0.70989273  0.37126017  0.86285507  1  0.024988  0  -0.086851  -0.073628  0  3.961952  0
C  C143  1  0.20988741  0.62873757  0.13714558  1  0.025206  0  -0.086815  -0.073452  0  3.961857  0
C  C144  1  0.68834594  0.26560538  0.17805068  1  -0.054825  0  -0.084923  -0.073553  0  3.998802  0
C  C145  1  0.18833804  0.73439629  0.82195217  1  -0.055368  0  -0.084851  -0.073434  0  3.998363  0
C  C146  1  0.19531815  0.37345648  0.79903827  1  0.055012  0  -0.079229  -0.062193  0  3.969548  0
C  C147  1  0.69532702  0.62654765  0.20095999  1  0.05482  0  -0.07917  -0.062142  0  3.969235  0
C  C148  1  0.80400840  0.32305957  0.15602451  1  -0.02327  0  -0.085889  -0.078127  0  3.998903  0
C  C149  1  0.30400365  0.67693765  0.84397886  1  -0.022824  0  -0.085868  -0.07818  0  3.998788  0
C  C150  1  0.44086280  0.39511002  0.01299133  1  1.668526  0  0.291897  0.521626  0  4.055966  0
C  C151  1  0.94086247  0.60488684  0.98701125  1  1.668464  0  0.291931  0.521778  0  4.055851  0
S  S152  1  0.71721459  0.34165002  0.58297780  1  3.27358  0  0.467319  0.973327  0  6.411094  0
S  S153  1  0.21721350  0.65834933  0.41702482  1  3.273358  0  0.467202  0.973191  0  6.411216  0
S  S154  1  0.26920560  0.32600095  0.03009056  1  3.227997  0  0.479464  0.978888  0  6.379125  0
S  S155  1  0.76920884  0.67399939  0.96991046  1  3.227958  0  0.479546  0.979167  0  6.378928  0
N  N156  1  0.33212074  0.11661603  0.50708427  1  -0.620228  0  -0.222028  -0.239163  0  3.356782  0
N  N157  1  0.83211860  0.88338451  0.49291595  1  -0.619789  0  -0.222084  -0.239271  0  3.3568  0
N  N158  1  0.25297874  0.02657654  0.49478678  1  -0.319255  0  -0.011717  0.312397  0  3.808396  0
N  N159  1  0.75297606  0.97342295  0.50521279  1  -0.319144  0  -0.011682  0.312574  0  3.808374  0
N  N160  1  0.78096925  0.04137853  0.00484772  1  -0.30831  0  -0.008949  0.319398  0  3.811224  0
N  N161  1  0.28097253  0.95862505  0.99515413  1  -0.308381  0  -0.008851  0.319541  0  3.811113  0
N  N162  1  0.15486662  0.02102578  0.45043078  1  -0.617867  0  -0.221529  -0.243369  0  3.32826  0
N  N163  1  0.65485986  0.97897420  0.54956741  1  -0.617971  0  -0.221472  -0.243418  0  3.328373  0
N  N164  1  0.83905443  0.07280866  0.77450095  1  -0.767962  0  -0.120024  0.135821  0  3.69584  0
N  N165  1  0.33905019  0.92718871  0.22549626  1  -0.768332  0  -0.120077  0.135737  0  3.695797  0
N  N166  1  0.40047002  0.14633376  0.66997363  1  -0.617788  0  -0.229179  -0.190569  0  3.577715  0
N  N167  1  0.90046884  0.85366860  0.33002688  1  -0.61774  0  -0.229218  -0.190563  0  3.577863  0
N  N168  1  0.93978821  0.12975759  0.86157274  1  -0.643322  0  -0.233544  -0.202743  0  3.60084  0
N  N169  1  0.43978859  0.87023609  0.13842549  1  -0.643227  0  -0.233521  -0.202634  0  3.600704  0
N  N170  1  0.68456826  0.03602698  0.04866335  1  -0.616434  0  -0.219554  -0.246901  0  3.318115  0
N  N171  1  0.18456907  0.96397548  0.95133959  1  -0.61631  0  -0.219512  -0.246888  0  3.318055  0
N  N172  1  0.32129977  0.09206515  0.74889794  1  -0.765362  0  -0.119959  0.134469  0  3.692935  0
N  N173  1  0.82130496  0.90794017  0.25110326  1  -0.765346  0  -0.120022  0.134479  0  3.693022  0
N  N174  1  0.86549948  0.12854462  0.01343663  1  -0.613291  0  -0.212478  -0.243461  0  3.297863  0
N  N175  1  0.36550003  0.87145682  0.98656551  1  -0.613276  0  -0.212606  -0.243662  0  3.2978  0
N  N176  1  0.39165885  0.06260056  0.69555582  1  -0.089479  0  -0.078268  -0.095685  0  3.177625  0
N  N177  1  0.89166234  0.93740418  0.30444628  1  -0.089676  0  -0.078286  -0.095832  0  3.177795  0
N  N178  1  0.93331818  0.04785845  0.81566821  1  -0.08436  0  -0.08228  -0.099644  0  3.183074  0
N  N179  1  0.43331930  0.95213680  0.18433063  1  -0.084214  0  -0.082233  -0.099649  0  3.183013  0
O  O180  1  0.71664012  0.24911231  0.61365346  1  -1.313942  0  -0.355594  -0.571247  0  2.349824  0
O  O181  1  0.21664483  0.75089104  0.38635139  1  -1.313784  0  -0.355566  -0.571233  0  2.349746  0
O  O182  1  0.67335600  0.44287605  0.62069799  1  -1.314761  0  -0.344192  -0.539634  0  2.168805  0
O  O183  1  0.17334531  0.55712880  0.37930211  1  -1.314682  0  -0.344163  -0.539582  0  2.168713  0
O  O184  1  0.65543893  0.31594898  0.52191282  1  -1.321988  0  -0.344968  -0.569212  0  2.222851  0
O  O185  1  0.15544280  0.68404937  0.47809006  1  -1.321977  0  -0.344909  -0.569127  0  2.222942  0
O  O186  1  0.26320847  0.23675425  0.97652199  1  -1.305164  0  -0.360151  -0.57594  0  2.427935  0
O  O187  1  0.76321577  0.76324445  0.02348017  1  -1.305195  0  -0.360215  -0.576058  0  2.427847  0
O  O188  1  0.15263620  0.40481956  0.03188609  1  -1.302994  0  -0.33552  -0.551967  0  2.255487  0
O  O189  1  0.65263791  0.59518362  0.96811379  1  -1.302942  0  -0.33553  -0.552023  0  2.255549  0
O  O190  1  0.30057401  0.29174836  0.08666256  1  -1.315929  0  -0.346616  -0.555218  0  2.197851  0
O  O191  1  0.80058256  0.70825447  0.91334011  1  -1.315904  0  -0.346569  -0.555272  0  2.197795  0
F  F192  1  0.99772837  0.36882234  0.62128718  1  -0.615806  0  -0.104715  -0.190325  0  1.33596  0
F  F193  1  0.49772467  0.63116750  0.37871156  1  -0.615951  0  -0.104689  -0.190304  0  1.335953  0
F  F194  1  0.94552568  0.44361034  0.54392521  1  -0.614337  0  -0.093482  -0.173797  0  1.333014  0
F  F195  1  0.44552101  0.55638014  0.45607354  1  -0.614484  0  -0.093565  -0.173827  0  1.33304  0
F  F196  1  0.97166286  0.26864477  0.53039284  1  -0.62209  0  -0.097607  -0.189133  0  1.382892  0
F  F197  1  0.47167464  0.73134901  0.46960631  1  -0.621871  0  -0.097614  -0.189132  0  1.382779  0
F  F198  1  0.47402389  0.47790844  0.05900660  1  -0.614233  0  -0.089687  -0.180682  0  1.37592  0
F  F199  1  0.97401842  0.52208612  0.94099532  1  -0.614222  0  -0.089644  -0.180746  0  1.375931  0
F  F200  1  0.55756007  0.32631052  0.00549382  1  -0.627156  0  -0.097078  -0.186301  0  1.35673  0
F  F201  1  0.05756293  0.67368189  0.99450916  1  -0.627098  0  -0.097125  -0.186337  0  1.356658  0
F  F202  1  0.42330021  0.43325042  0.96156364  1  -0.60993  0  -0.092167  -0.168111  0  1.356844  0
F  F203  1  0.92329224  0.56674559  0.03843749  1  -0.609964  0  -0.092235  -0.168219  0  1.356901  0
