# generated using pymatgen
data_HgH16C22I2N6(ClO)2
_symmetry_space_group_name_H-M   'P 1'
_cell_length_a   4.02195376
_cell_length_b   15.04292829
_cell_length_c   22.05190000
_cell_angle_alpha   104.96571942
_cell_angle_beta   95.43260762
_cell_angle_gamma   89.94804342
_symmetry_Int_Tables_number   1
_chemical_formula_structural   HgH16C22I2N6(ClO)2
_chemical_formula_sum   'Hg2 H32 C44 I4 N12 Cl4 O4'
_cell_volume   1282.75435910
_cell_formula_units_Z   2
loop_
 _symmetry_equiv_pos_site_id
 _symmetry_equiv_pos_as_xyz
  1  'x, y, z'
loop_
 _atom_site_type_symbol
 _atom_site_label
 _atom_site_symmetry_multiplicity
 _atom_site_fract_x
 _atom_site_fract_y
 _atom_site_fract_z
 _atom_site_occupancy
 _atom_site_hle17_bader_spin_density
 _atom_site_hle17_ddec_charge
 _atom_site_hle17_ddec_spin_density
 _atom_site_hle17_ddec_sum_bond_order
 _atom_site_hle17_magmom
 _atom_site_hse06_10hf_bader_spin_density
 _atom_site_hse06_10hf_ddec_charge
 _atom_site_hse06_10hf_ddec_spin_density
 _atom_site_hse06_10hf_ddec_sum_bond_order
 _atom_site_hse06_10hf_magmom
 _atom_site_hse06_bader_spin_density
 _atom_site_hse06_ddec_charge
 _atom_site_hse06_ddec_spin_density
 _atom_site_hse06_ddec_sum_bond_order
 _atom_site_hse06_magmom
 _atom_site_pbe_bader_charge
 _atom_site_pbe_bader_spin_density
 _atom_site_pbe_cm5_charge
 _atom_site_pbe_ddec_charge
 _atom_site_pbe_ddec_spin_density
 _atom_site_pbe_ddec_sum_bond_order
 _atom_site_pbe_magmom
Hg  Hg0  1  0.00000500  0.00000000  0.00000009  1  0  0.757283  0  2.065825  0  0  0.6058  0  2.551275  0  0  0.659804  0  2.516663  0  0.86946  0  0.492014  0.568488  0  2.574628  0
Hg  Hg1  1  0.00000004  0.49999982  0.00000047  1  0  0.757509  0  2.064687  0  0  0.605996  0  2.550177  0  0  0.660068  0  2.515472  0  0.866757  0  0.49173  0.568617  0  2.573617  0
H  H2  1  0.08186960  0.37040126  0.13708083  1  0  0.096043  0  0.931492  0  0  0.102996  0  0.992657  0  0  0.106401  0  0.990165  0  0.119329  0  0.112699  0.100534  0  0.99461  0
H  H3  1  0.94691704  0.12950426  0.86243229  1  0  0.096453  0  0.930784  0  0  0.103254  0  0.992065  0  0  0.106533  0  0.989717  0  0.110973  0  0.113084  0.100845  0  0.993961  0
H  H4  1  0.91811603  0.62959907  0.86291808  1  0  0.096077  0  0.931479  0  0  0.103063  0  0.992624  0  0  0.106474  0  0.990114  0  0.119294  0  0.112695  0.100592  0  0.994582  0
H  H5  1  0.05304873  0.87049745  0.13756334  1  0  0.096287  0  0.930914  0  0  0.103087  0  0.992222  0  0  0.106366  0  0.989873  0  0.111092  0  0.113041  0.100678  0  0.994116  0
H  H6  1  0.87918173  0.22894587  0.05111349  1  0  0.086093  0  0.964036  0  0  0.089195  0  1.038834  0  0  0.092077  0  1.036285  0  0.147218  0  0.103447  0.087113  0  1.040726  0
H  H7  1  0.83045589  0.27090666  0.94819272  1  0  0.086749  0  0.96243  0  0  0.089753  0  1.037099  0  0  0.092801  0  1.034361  0  0.116396  0  0.10421  0.087578  0  1.039065  0
H  H8  1  0.12081376  0.77105309  0.94888534  1  0  0.086022  0  0.964021  0  0  0.089134  0  1.038813  0  0  0.092023  0  1.036249  0  0.147247  0  0.103403  0.087028  0  1.040725  0
H  H9  1  0.16951720  0.72909299  0.05180358  1  0  0.086762  0  0.962556  0  0  0.089798  0  1.037183  0  0  0.092847  0  1.034444  0  0.116564  0  0.104199  0.087621  0  1.039152  0
H  H10  1  0.38479745  0.06194382  0.15120945  1  0  0.104898  0  0.936092  0  0  0.108321  0  1.004881  0  0  0.112577  0  1.000443  0  0.130359  0  0.116567  0.105225  0  1.008172  0
H  H11  1  0.23459349  0.43797685  0.84853312  1  0  0.104597  0  0.934576  0  0  0.108361  0  1.0029  0  0  0.112557  0  0.998517  0  0.14009  0  0.1169  0.105282  0  1.00617  0
H  H12  1  0.61520585  0.93805858  0.84879194  1  0  0.104877  0  0.936101  0  0  0.108287  0  1.0049  0  0  0.112545  0  1.000457  0  0.130378  0  0.116555  0.10519  0  1.008194  0
H  H13  1  0.76540512  0.56202900  0.15146924  1  0  0.104543  0  0.934753  0  0  0.108342  0  1.003031  0  0  0.112547  0  0.998641  0  0.140175  0  0.116871  0.105258  0  1.006307  0
H  H14  1  0.22661591  0.49593673  0.46398119  1  0  0.091444  0  0.974521  0  0  0.103715  0  1.037434  0  0  0.105924  0  1.036584  0  0.08225  0  0.095387  0.10214  0  1.038047  0
H  H15  1  0.76201009  0.00419732  0.53616205  1  0  0.091211  0  0.973399  0  0  0.103531  0  1.036391  0  0  0.105781  0  1.035538  0  0.07946  0  0.094995  0.101931  0  1.037001  0
H  H16  1  0.77337654  0.50405604  0.53602466  1  0  0.091404  0  0.974496  0  0  0.103693  0  1.03737  0  0  0.105902  0  1.036522  0  0.082027  0  0.095345  0.102118  0  1.037983  0
H  H17  1  0.23797310  0.99580371  0.46383829  1  0  0.091267  0  0.973389  0  0  0.103587  0  1.036374  0  0  0.105837  0  1.03552  0  0.079381  0  0.094995  0.101987  0  1.036984  0
H  H18  1  0.47059465  0.37524078  0.51219082  1  0  0.080551  0  0.97414  0  0  0.089107  0  1.043823  0  0  0.092049  0  1.042399  0  0.066847  0  0.092839  0.087026  0  1.044897  0
H  H19  1  0.95560294  0.12497105  0.48807667  1  0  0.081541  0  0.972215  0  0  0.089844  0  1.042135  0  0  0.092811  0  1.040744  0  0.061025  0  0.09309  0.087746  0  1.043187  0
H  H20  1  0.52939262  0.62474992  0.48781231  1  0  0.080582  0  0.974222  0  0  0.089177  0  1.043848  0  0  0.092121  0  1.042423  0  0.066724  0  0.092867  0.087096  0  1.044923  0
H  H21  1  0.04438251  0.87502722  0.51192096  1  0  0.081577  0  0.972167  0  0  0.089879  0  1.042078  0  0  0.092844  0  1.040689  0  0.061039  0  0.093048  0.08778  0  1.043131  0
H  H22  1  0.39482217  0.20979844  0.45331033  1  0  0.07955  0  0.977289  0  0  0.08937  0  1.043367  0  0  0.09163  0  1.042754  0  0.099526  0  0.093225  0.087683  0  1.043893  0
H  H23  1  0.93872953  0.29034661  0.54689109  1  0  0.080407  0  0.974651  0  0  0.089782  0  1.041218  0  0  0.092027  0  1.040681  0  0.096438  0  0.093367  0.088116  0  1.041686  0
H  H24  1  0.60518027  0.79019432  0.54668889  1  0  0.079585  0  0.977305  0  0  0.089436  0  1.043323  0  0  0.091695  0  1.042711  0  0.099643  0  0.09325  0.087753  0  1.043845  0
H  H25  1  0.06126590  0.70965166  0.45310535  1  0  0.080404  0  0.974633  0  0  0.089783  0  1.041219  0  0  0.092021  0  1.040689  0  0.096462  0  0.093379  0.088116  0  1.041688  0
H  H26  1  0.05016036  0.16595375  0.35020297  1  0  0.099691  0  1.019304  0  0  0.103312  0  1.09332  0  0  0.1074  0  1.090504  0  0.131801  0  0.088684  0.100368  0  1.095472  0
H  H27  1  0.69850584  0.33417410  0.64980943  1  0  0.098249  0  1.020156  0  0  0.102494  0  1.093668  0  0  0.106535  0  1.090911  0  0.124743  0  0.088247  0.099556  0  1.095811  0
H  H28  1  0.94985244  0.83404315  0.64979353  1  0  0.099726  0  1.019227  0  0  0.103302  0  1.093283  0  0  0.107378  0  1.090478  0  0.131703  0  0.088662  0.10036  0  1.095443  0
H  H29  1  0.30150245  0.66582830  0.35018887  1  0  0.098255  0  1.020126  0  0  0.1025  0  1.093623  0  0  0.106535  0  1.090871  0  0.124782  0  0.088257  0.099564  0  1.095761  0
H  H30  1  0.63714511  0.33782421  0.27678691  1  0  0.266332  0  0.972823  0  0  0.235337  0  1.068971  0  0  0.244377  0  1.060555  0  0.47683  0  0.285809  0.228964  0  1.074884  0
H  H31  1  0.36055634  0.16213294  0.72292048  1  0  0.265749  0  0.972738  0  0  0.234798  0  1.068093  0  0  0.24381  0  1.059814  0  0.473533  0  0.285709  0.228421  0  1.073986  0
H  H32  1  0.36288060  0.66217750  0.72321429  1  0  0.266327  0  0.972758  0  0  0.235317  0  1.068914  0  0  0.244359  0  1.060499  0  0.476827  0  0.285819  0.228942  0  1.07483  0
H  H33  1  0.63943209  0.83787084  0.27707863  1  0  0.26576  0  0.972774  0  0  0.234827  0  1.06808  0  0  0.243833  0  1.059808  0  0.473468  0  0.285714  0.228447  0  1.073968  0
C  C34  1  0.15046801  0.30158810  0.14051283  1  0  0.090512  0  3.681798  0  0  0.065823  0  3.944423  0  0  0.066257  0  3.960383  0  0.513469  0  0.054599  0.065294  0  3.933768  0
C  C35  1  0.01207278  0.19831329  0.85904866  1  0  0.08963  0  3.679809  0  0  0.064883  0  3.943217  0  0  0.065417  0  3.959197  0  0.527927  0  0.054302  0.064304  0  3.932511  0
C  C36  1  0.84953017  0.69841292  0.85948596  1  0  0.090476  0  3.682033  0  0  0.065717  0  3.944693  0  0  0.066148  0  3.960662  0  0.513278  0  0.054623  0.065197  0  3.93402  0
C  C37  1  0.98790073  0.80169117  0.14094895  1  0  0.089972  0  3.679856  0  0  0.065199  0  3.943301  0  0  0.065734  0  3.959282  0  0.527619  0  0.054372  0.064618  0  3.932591  0
C  C38  1  0.03815793  0.22361834  0.09286639  1  0  0.082161  0  3.66959  0  0  0.050414  0  3.926401  0  0  0.054301  0  3.946387  0  0.489101  0  0.05033  0.047942  0  3.91269  0
C  C39  1  0.94745019  0.27628168  0.90659309  1  0  0.080901  0  3.670405  0  0  0.04957  0  3.927186  0  0  0.053325  0  3.947092  0  0.516058  0  0.048839  0.047168  0  3.913577  0
C  C40  1  0.96184006  0.77638062  0.90713249  1  0  0.082239  0  3.669554  0  0  0.050507  0  3.92637  0  0  0.054392  0  3.94636  0  0.489383  0  0.050361  0.048056  0  3.91267  0
C  C41  1  0.05252551  0.72371935  0.09340531  1  0  0.080742  0  3.670694  0  0  0.049347  0  3.927575  0  0  0.053099  0  3.947482  0  0.515914  0  0.048818  0.046945  0  3.913969  0
C  C42  1  0.31476847  0.13076318  0.14809077  1  0  0.08578  0  3.645749  0  0  0.048165  0  3.896525  0  0  0.053002  0  3.913907  0  0.55574  0  0.060552  0.044931  0  3.884854  0
C  C43  1  0.16820597  0.36913959  0.85161897  1  0  0.084644  0  3.640724  0  0  0.046942  0  3.891798  0  0  0.051817  0  3.909115  0  0.546375  0  0.059459  0.043693  0  3.880181  0
C  C44  1  0.68523726  0.86923853  0.85190827  1  0  0.085716  0  3.64577  0  0  0.04815  0  3.896506  0  0  0.052992  0  3.913888  0  0.555978  0  0.060544  0.044913  0  3.884842  0
C  C45  1  0.83178989  0.63086350  0.14838241  1  0  0.084834  0  3.640989  0  0  0.047124  0  3.891987  0  0  0.051988  0  3.909314  0  0.546158  0  0.059566  0.043899  0  3.880331  0
C  C46  1  0.42746309  0.20918172  0.19525244  1  0  0.061136  0  3.741292  0  0  0.069221  0  3.987905  0  0  0.066648  0  4.006426  0  0.497819  0  0.118681  0.070416  0  3.975739  0
C  C47  1  0.23372636  0.29072931  0.80453587  1  0  0.060866  0  3.737638  0  0  0.069121  0  3.984839  0  0  0.066547  0  4.003346  0  0.477053  0  0.119025  0.070324  0  3.97265  0
C  C48  1  0.57254776  0.79082137  0.80474603  1  0  0.061479  0  3.741132  0  0  0.069555  0  3.987777  0  0  0.066974  0  4.006301  0  0.497455  0  0.118929  0.070746  0  3.975617  0
C  C49  1  0.76627469  0.70927584  0.19546460  1  0  0.060481  0  3.7378  0  0  0.068751  0  3.985009  0  0  0.066179  0  4.003515  0  0.477294  0  0.118843  0.069953  0  3.972819  0
C  C50  1  0.65255741  0.20008087  0.25171818  1  0  0.507002  0  3.836774  0  0  0.462527  0  4.116804  0  0  0.490768  0  4.117792  0  1.407381  0  0.237587  0.443737  0  4.115456  0
C  C51  1  0.40163869  0.29984323  0.74821475  1  0  0.508554  0  3.834778  0  0  0.462248  0  4.11683  0  0  0.490558  0  4.117868  0  1.417443  0  0.23736  0.443438  0  4.115436  0
C  C52  1  0.34746282  0.79991533  0.74827924  1  0  0.507042  0  3.836213  0  0  0.462435  0  4.116439  0  0  0.490682  0  4.117428  0  1.406787  0  0.237556  0.443647  0  4.115092  0
C  C53  1  0.59837679  0.70015572  0.25178760  1  0  0.509001  0  3.83472  0  0  0.462603  0  4.116894  0  0  0.490915  0  4.117925  0  1.417903  0  0.237576  0.443787  0  4.115499  0
C  C54  1  0.94081655  0.30548738  0.34886562  1  0  0.237816  0  3.7687  0  0  0.230455  0  4.010632  0  0  0.238014  0  4.0337  0  0.317774  0  0.092076  0.225498  0  3.994849  0
C  C55  1  0.59162004  0.19460949  0.65113781  1  0  0.239154  0  3.767204  0  0  0.230314  0  4.010013  0  0  0.237995  0  4.033043  0  0.326676  0  0.092839  0.225298  0  3.994246  0
C  C56  1  0.05919637  0.69451089  0.65113430  1  0  0.237722  0  3.768885  0  0  0.230345  0  4.010793  0  0  0.237908  0  4.033864  0  0.318034  0  0.092034  0.225386  0  3.995017  0
C  C57  1  0.40838325  0.80539291  0.34886313  1  0  0.239152  0  3.767305  0  0  0.230273  0  4.010125  0  0  0.237955  0  4.033154  0  0.326862  0  0.092816  0.225252  0  3.994342  0
C  C58  1  0.99840598  0.39924010  0.38103609  1  0  -0.091443  0  3.658897  0  0  -0.06806  0  3.914341  0  0  -0.070358  0  3.938313  0  -0.239643  0  -0.06203  -0.066599  0  3.898058  0
C  C59  1  0.61740220  0.10085815  0.61900458  1  0  -0.092638  0  3.660381  0  0  -0.068325  0  3.915208  0  0  -0.070687  0  3.939289  0  -0.257259  0  -0.061757  -0.066835  0  3.89887  0
C  C60  1  0.00160438  0.60075748  0.61896729  1  0  -0.091528  0  3.659036  0  0  -0.068091  0  3.914424  0  0  -0.070391  0  3.938394  0  -0.239403  0  -0.062088  -0.066624  0  3.898124  0
C  C61  1  0.38260098  0.89914287  0.38099566  1  0  -0.092602  0  3.660258  0  0  -0.06826  0  3.915062  0  0  -0.070619  0  3.939139  0  -0.257279  0  -0.061757  -0.066761  0  3.898713  0
C  C62  1  0.18733641  0.42352232  0.43946379  1  0  -0.098031  0  3.813574  0  0  -0.119411  0  4.066112  0  0  -0.120033  0  4.088981  0  -0.010348  0  -0.106259  -0.118765  0  4.050401  0
C  C63  1  0.74718371  0.07660071  0.56069826  1  0  -0.097086  0  3.813879  0  0  -0.118839  0  4.066168  0  0  -0.11948  0  4.088992  0  -0.016639  0  -0.105878  -0.118191  0  4.050511  0
C  C64  1  0.81265866  0.57647182  0.56054053  1  0  -0.097818  0  3.813414  0  0  -0.119198  0  4.065918  0  0  -0.119822  0  4.088788  0  -0.010295  0  -0.106132  -0.118553  0  4.05021  0
C  C65  1  0.25280686  0.92339894  0.43930242  1  0  -0.097167  0  3.813884  0  0  -0.118929  0  4.066166  0  0  -0.11957  0  4.08899  0  -0.016593  0  -0.105862  -0.118283  0  4.050506  0
C  C66  1  0.32550842  0.35559433  0.46623848  1  0  -0.074663  0  3.767504  0  0  -0.089581  0  4.019698  0  0  -0.093896  0  4.042488  0  -0.021473  0  -0.099169  -0.08674  0  4.004227  0
C  C67  1  0.85751022  0.14455761  0.53398230  1  0  -0.075217  0  3.766827  0  0  -0.089917  0  4.018777  0  0  -0.094272  0  4.041533  0  0.003949  0  -0.099107  -0.087045  0  4.003323  0
C  C68  1  0.67448415  0.64439981  0.53376444  1  0  -0.074781  0  3.767627  0  0  -0.089737  0  4.019835  0  0  -0.094052  0  4.042625  0  -0.02147  0  -0.099185  -0.086897  0  4.004365  0
C  C69  1  0.14247779  0.85544135  0.46601686  1  0  -0.075273  0  3.766858  0  0  -0.089961  0  4.018788  0  0  -0.094317  0  4.041543  0  0.003934  0  -0.099088  -0.087089  0  4.003335  0
C  C70  1  0.27945034  0.26307919  0.43363804  1  0  -0.049239  0  3.779858  0  0  -0.06087  0  4.024448  0  0  -0.060326  0  4.045968  0  -0.053911  0  -0.09441  -0.060949  0  4.009762  0
C  C71  1  0.84388777  0.23706105  0.56655188  1  0  -0.049721  0  3.779597  0  0  -0.060944  0  4.02424  0  0  -0.060433  0  4.045745  0  -0.096778  0  -0.094367  -0.061013  0  4.009549  0
C  C72  1  0.72054716  0.73691426  0.56636212  1  0  -0.049208  0  3.779922  0  0  -0.060851  0  4.024521  0  0  -0.060309  0  4.046043  0  -0.053924  0  -0.094424  -0.060932  0  4.009835  0
C  C73  1  0.15610785  0.76293929  0.43344629  1  0  -0.049711  0  3.779621  0  0  -0.060965  0  4.02427  0  0  -0.060448  0  4.045775  0  -0.096724  0  -0.094351  -0.061034  0  4.009576  0
C  C74  1  0.08765240  0.23787119  0.37570299  1  0  -0.154963  0  3.707251  0  0  -0.174343  0  3.95662  0  0  -0.180059  0  3.976704  0  -0.024033  0  -0.102157  -0.170543  0  3.943031  0
C  C75  1  0.71076665  0.26224220  0.62437827  1  0  -0.153603  0  3.707549  0  0  -0.173193  0  3.956459  0  0  -0.178889  0  3.976567  0  0.027158  0  -0.101963  -0.169387  0  3.94289  0
C  C76  1  0.91236046  0.76212639  0.62429635  1  0  -0.154998  0  3.707141  0  0  -0.174371  0  3.956599  0  0  -0.180079  0  3.976693  0  -0.024049  0  -0.102127  -0.170584  0  3.943024  0
C  C77  1  0.28923908  0.73775951  0.37562077  1  0  -0.15358  0  3.707471  0  0  -0.173161  0  3.956421  0  0  -0.178853  0  3.976534  0  0.027073  0  -0.101978  -0.169349  0  3.942843  0
I  I78  1  0.80517741  0.50306418  0.34035926  1  0  0.053641  0  1.535445  0  0  0.038736  0  1.870741  0  0  0.036079  0  1.859487  0  0.172151  0  0.142858  0.040626  0  1.878899  0
I  I79  1  0.46527259  0.99704542  0.65953772  1  0  0.054323  0  1.535309  0  0  0.039156  0  1.870038  0  0  0.036497  0  1.858817  0  0.173245  0  0.142994  0.041062  0  1.878178  0
I  I80  1  0.19482558  0.49693478  0.65964605  1  0  0.053652  0  1.535555  0  0  0.038719  0  1.87082  0  0  0.036063  0  1.859561  0  0.172133  0  0.142862  0.040607  0  1.878977  0
I  I81  1  0.53472339  0.00295905  0.34046436  1  0  0.05427  0  1.535288  0  0  0.039093  0  1.870006  0  0  0.036434  0  1.858788  0  0.173256  0  0.142968  0.041008  0  1.878145  0
N  N82  1  0.34505758  0.29420872  0.19139455  1  0  -0.267215  0  3.087658  0  0  -0.238227  0  3.352108  0  0  -0.242163  0  3.365192  0  -1.184507  0  -0.291117  -0.235184  0  3.34335  0
N  N83  1  0.15536417  0.20568579  0.80832342  1  0  -0.266794  0  3.084392  0  0  -0.237958  0  3.349222  0  0  -0.241921  0  3.362278  0  -1.182017  0  -0.291257  -0.234878  0  3.340451  0
N  N84  1  0.65495071  0.70579368  0.80860329  1  0  -0.26747  0  3.087845  0  0  -0.238459  0  3.35233  0  0  -0.242394  0  3.365418  0  -1.184505  0  -0.29129  -0.235416  0  3.343573  0
N  N85  1  0.84461915  0.79431661  0.19167535  1  0  -0.266728  0  3.084495  0  0  -0.237875  0  3.349312  0  0  -0.241837  0  3.362366  0  -1.182006  0  -0.291211  -0.234788  0  3.340536  0
N  N86  1  0.12104822  0.13895958  0.09707005  1  0  -0.26125  0  3.226674  0  0  -0.194503  0  3.490702  0  0  -0.213178  0  3.514396  0  -1.184135  0  -0.292836  -0.181472  0  3.474106  0
N  N87  1  0.02579467  0.36096246  0.90247660  1  0  -0.261087  0  3.222695  0  0  -0.194834  0  3.486951  0  0  -0.213448  0  3.510609  0  -1.176869  0  -0.292505  -0.181824  0  3.47032  0
N  N88  1  0.87894996  0.86104144  0.90293010  1  0  -0.26122  0  3.226586  0  0  -0.194499  0  3.490599  0  0  -0.213177  0  3.514295  0  -1.184107  0  -0.292831  -0.181468  0  3.473997  0
N  N89  1  0.97418865  0.63903994  0.09752263  1  0  -0.261087  0  3.222982  0  0  -0.194819  0  3.487233  0  0  -0.213437  0  3.51091  0  -1.176866  0  -0.292487  -0.181815  0  3.470607  0
N  N90  1  0.74027585  0.28349792  0.29170755  1  0  -0.421985  0  3.424587  0  0  -0.367329  0  3.663921  0  0  -0.390691  0  3.675334  0  -1.270546  0  -0.395816  -0.351365  0  3.65561  0
N  N91  1  0.44861155  0.21650741  0.70814615  1  0  -0.422443  0  3.424809  0  0  -0.365516  0  3.663027  0  0  -0.388897  0  3.674287  0  -1.269418  0  -0.395535  -0.349578  0  3.654877  0
N  N92  1  0.25974487  0.71650379  0.70829130  1  0  -0.421895  0  3.424633  0  0  -0.367171  0  3.664008  0  0  -0.390519  0  3.675382  0  -1.27062  0  -0.395808  -0.351207  0  3.655696  0
N  N93  1  0.55138950  0.78349775  0.29185432  1  0  -0.422643  0  3.424775  0  0  -0.365667  0  3.662995  0  0  -0.389051  0  3.674257  0  -1.269638  0  -0.395579  -0.34975  0  3.654917  0
Cl  Cl94  1  0.56289054  0.08734111  0.95471368  1  0  -0.467601  0  1.010345  0  0  -0.410157  0  1.292934  0  0  -0.430096  0  1.274504  0  -0.522766  0  -0.257693  -0.396501  0  1.305694  0
Cl  Cl95  1  0.60987684  0.41245980  0.04484516  1  0  -0.465563  0  1.014064  0  0  -0.408008  0  1.29735  0  0  -0.428016  0  1.278935  0  -0.519667  0  -0.256267  -0.394323  0  1.310101  0
Cl  Cl96  1  0.43712018  0.91266061  0.04528772  1  0  -0.467616  0  1.010334  0  0  -0.41016  0  1.292904  0  0  -0.430102  0  1.274478  0  -0.522752  0  -0.257705  -0.396502  0  1.305658  0
Cl  Cl97  1  0.39012377  0.58754054  0.95515581  1  0  -0.465539  0  1.014051  0  0  -0.407974  0  1.297318  0  0  -0.427988  0  1.278908  0  -0.519686  0  -0.256245  -0.394284  0  1.310061  0
O  O98  1  0.74318406  0.12358961  0.25757767  1  0  -0.515997  0  1.94507  0  0  -0.468278  0  2.165316  0  0  -0.487747  0  2.159798  0  -1.131569  0  -0.290904  -0.454792  0  2.168682  0
O  O99  1  0.48658108  0.37635928  0.74249761  1  0  -0.516525  0  1.944245  0  0  -0.468355  0  2.165495  0  0  -0.487864  0  2.159954  0  -1.132715  0  -0.290617  -0.454834  0  2.168849  0
O  O100  1  0.25681936  0.87641417  0.74241898  1  0  -0.51617  0  1.944454  0  0  -0.468366  0  2.164749  0  0  -0.487843  0  2.159226  0  -1.130997  0  -0.290968  -0.454859  0  2.168068  0
O  O101  1  0.51346760  0.62364794  0.25750768  1  0  -0.51661  0  1.9445  0  0  -0.468413  0  2.165807  0  0  -0.487916  0  2.160259  0  -1.13302  0  -0.290715  -0.454895  0  2.16917  0
