# generated using pymatgen
data_Al2H11C22Br2O10F
_symmetry_space_group_name_H-M   'P 1'
_cell_length_a   6.63893291
_cell_length_b   11.16305063
_cell_length_c   11.18025266
_cell_angle_alpha   81.26556686
_cell_angle_beta   72.69874599
_cell_angle_gamma   72.20142265
_symmetry_Int_Tables_number   1
_chemical_formula_structural   Al2H11C22Br2O10F
_chemical_formula_sum   'Al2 H11 C22 Br2 O10 F1'
_cell_volume   751.52859151
_cell_formula_units_Z   1
loop_
 _symmetry_equiv_pos_site_id
 _symmetry_equiv_pos_as_xyz
  1  'x, y, z'
loop_
 _atom_site_type_symbol
 _atom_site_label
 _atom_site_symmetry_multiplicity
 _atom_site_fract_x
 _atom_site_fract_y
 _atom_site_fract_z
 _atom_site_occupancy
 _atom_site_pbe_bader_charge
 _atom_site_pbe_bader_spin_density
 _atom_site_pbe_cm5_charge
 _atom_site_pbe_ddec_charge
 _atom_site_pbe_ddec_spin_density
 _atom_site_pbe_ddec_sum_bond_order
 _atom_site_pbe_magmom
Al  Al0  1  0.50665568  0.48746578  0.50590026  1  2.502616  0  0.393602  1.645646  0  2.571036  0
Al  Al1  1  0.00740561  0.48509557  0.50646983  1  2.500787  0  0.394108  1.644592  0  2.570585  0
H  H2  1  0.27197516  0.35378040  0.61721207  1  0.611105  0  0.344048  0.426528  0  0.869139  0
H  H3  1  0.71662563  0.63973950  0.43968143  1  0.621245  0  0.349389  0.426668  0  0.864123  0
H  H4  1  0.77206698  0.38036744  0.13426127  1  0.115169  0  0.119203  0.147287  0  0.977587  0
H  H5  1  0.01301144  0.71059796  0.10043791  1  0.036717  0  0.09525  0.101749  0  0.989547  0
H  H6  1  0.92980524  0.57088405  0.11062285  1  0.077632  0  0.096128  0.11291  0  1.000894  0
H  H7  1  0.06374350  0.56654488  0.87323762  1  0.075467  0  0.095202  0.116559  0  1.004637  0
H  H8  1  0.14228173  0.70698113  0.86617249  1  0.059788  0  0.091301  0.102059  0  0.998186  0
H  H9  1  0.20092027  0.22787747  0.30699567  1  0.098004  0  0.108251  0.115524  0  1.016364  0
H  H10  1  0.52236396  0.11569507  0.14832314  1  0.054255  0  0.104191  0.101536  0  0.99291  0
H  H11  1  0.42659660  0.75807948  0.31922478  1  0.061877  0  0.105984  0.109613  0  1.030446  0
H  H12  1  0.63391155  0.88001409  0.15413045  1  0.069109  0  0.102883  0.097617  0  1.005022  0
C  C13  1  0.86843217  0.26124562  0.49686126  1  1.578193  0  0.268671  0.651232  0  4.11943  0
C  C14  1  0.65487272  0.48044809  0.73230063  1  1.55523  0  0.26543  0.664524  0  4.111807  0
C  C15  1  0.14079329  0.71301647  0.51475803  1  1.646243  0  0.269274  0.66015  0  4.105041  0
C  C16  1  0.36054368  0.48719236  0.28048238  1  1.595985  0  0.270692  0.647843  0  4.097546  0
C  C17  1  0.43369163  0.48395035  0.14157906  1  -0.022223  0  -0.006711  -0.051018  0  3.995955  0
C  C18  1  0.58074752  0.47932747  0.87152099  1  0.070178  0  -0.020372  -0.19832  0  3.97695  0
C  C19  1  0.29172231  0.53816389  0.06590183  1  -0.070407  0  -0.009503  0.040259  0  3.893839  0
C  C20  1  0.72076491  0.42337764  0.95015133  1  0.406159  0  0.103294  0.268707  0  4.049596  0
C  C21  1  0.36430413  0.53623563  0.93543100  1  0.07382  0  0.000294  0.089973  0  3.886779  0
C  C22  1  0.65343594  0.42564957  0.08022389  1  0.016343  0  -0.096059  -0.243325  0  3.995512  0
C  C23  1  0.06065274  0.61662223  0.06472470  1  -0.012647  0  -0.151101  -0.191653  0  3.85732  0
C  C24  1  0.14332229  0.61438668  0.91664579  1  -0.040556  0  -0.153129  -0.202374  0  3.854768  0
C  C25  1  0.93719175  0.11977633  0.50080566  1  0.048544  0  -0.008917  -0.10939  0  3.924826  0
C  C26  1  0.12568795  0.05741211  0.40808445  1  0.085406  0  0.002485  0.069946  0  3.953871  0
C  C27  1  0.82017921  0.05137049  0.59463862  1  -0.030249  0  -0.016136  0.0374  0  3.954594  0
C  C28  1  0.24868315  0.12519585  0.31055811  1  -0.112622  0  -0.086373  -0.123173  0  3.946796  0
C  C29  1  0.42895580  0.06225732  0.22185428  1  0.052304  0  -0.087709  -0.075933  0  4.023086  0
C  C30  1  0.06831705  0.85438434  0.51100458  1  0.012033  0  -0.011575  -0.116909  0  3.935364  0
C  C31  1  0.88641961  0.91744914  0.59984779  1  -0.086103  0  -0.018078  0.035515  0  3.966536  0
C  C32  1  0.19185126  0.92225979  0.41289231  1  -0.012983  0  0.001795  0.069997  0  3.957076  0
C  C33  1  0.37652011  0.86055970  0.31850428  1  -0.048902  0  -0.092764  -0.136959  0  3.967773  0
C  C34  1  0.49257401  0.92908800  0.22554738  1  -0.050257  0  -0.090056  -0.078243  0  4.034535  0
Br  Br35  1  0.73255483  0.82385348  0.73211104  1  -0.018937  0  0.058374  -0.015974  0  1.524001  0
Br  Br36  1  0.57880201  0.13622030  0.72209376  1  -0.024501  0  0.057041  -0.025822  0  1.51067  0
O  O37  1  0.68435350  0.31773360  0.47557801  1  -1.25007  0  -0.228953  -0.57722  0  2.35298  0
O  O38  1  0.84497941  0.49453527  0.67950857  1  -1.254052  0  -0.235803  -0.601437  0  2.382226  0
O  O39  1  0.01191895  0.65867886  0.49567309  1  -1.253755  0  -0.229853  -0.593307  0  2.36624  0
O  O40  1  0.49094158  0.50676914  0.33424703  1  -1.258552  0  -0.234566  -0.590586  0  2.337492  0
O  O41  1  0.32970298  0.65960871  0.53156200  1  -1.252928  0  -0.22932  -0.582003  0  2.331733  0
O  O42  1  0.17074448  0.47242710  0.33348787  1  -1.246935  0  -0.228629  -0.574796  0  2.32602  0
O  O43  1  0.00147837  0.31298371  0.51514975  1  -1.251885  0  -0.224793  -0.575715  0  2.342738  0
O  O44  1  0.51909928  0.46816911  0.67814738  1  -1.251949  0  -0.236011  -0.596557  0  2.347812  0
O  O45  1  0.26183269  0.42780042  0.55888830  1  -1.415519  0  -0.449433  -0.992852  0  2.218454  0
O  O46  1  0.75141756  0.54856378  0.45344844  1  -1.426061  0  -0.449105  -0.987202  0  2.189107  0
F  F47  1  0.93420689  0.36042163  0.89828993  1  -0.632119  0  -0.101941  -0.143068  0  1.33638  0
