# generated using pymatgen
data_SnH15C12N2O3
_symmetry_space_group_name_H-M   'P 1'
_cell_length_a   8.30873402
_cell_length_b   8.83032802
_cell_length_c   9.65264694
_cell_angle_alpha   67.76113753
_cell_angle_beta   80.24447424
_cell_angle_gamma   74.72700573
_symmetry_Int_Tables_number   1
_chemical_formula_structural   SnH15C12N2O3
_chemical_formula_sum   'Sn2 H30 C24 N4 O6'
_cell_volume   630.43902757
_cell_formula_units_Z   2
loop_
 _symmetry_equiv_pos_site_id
 _symmetry_equiv_pos_as_xyz
  1  'x, y, z'
loop_
 _atom_site_type_symbol
 _atom_site_label
 _atom_site_symmetry_multiplicity
 _atom_site_fract_x
 _atom_site_fract_y
 _atom_site_fract_z
 _atom_site_occupancy
 _atom_site_hle17_bader_spin_density
 _atom_site_hle17_ddec_charge
 _atom_site_hle17_ddec_spin_density
 _atom_site_hle17_ddec_sum_bond_order
 _atom_site_hle17_magmom
 _atom_site_hse06_10hf_bader_spin_density
 _atom_site_hse06_10hf_ddec_charge
 _atom_site_hse06_10hf_ddec_spin_density
 _atom_site_hse06_10hf_ddec_sum_bond_order
 _atom_site_hse06_10hf_magmom
 _atom_site_hse06_bader_spin_density
 _atom_site_hse06_ddec_charge
 _atom_site_hse06_ddec_spin_density
 _atom_site_hse06_ddec_sum_bond_order
 _atom_site_hse06_magmom
 _atom_site_pbe_bader_spin_density
 _atom_site_pbe_cm5_charge
 _atom_site_pbe_ddec_charge
 _atom_site_pbe_ddec_spin_density
 _atom_site_pbe_ddec_sum_bond_order
 _atom_site_pbe_magmom
Sn  Sn0  1  0.35034178  0.03042982  0.85138163  1  0  1.454531  0  2.91016  0  0  1.282303  0  3.414224  0  0  1.335798  0  3.388012  0  0  0.620775  1.247721  0  3.4286  0
Sn  Sn1  1  0.64965832  0.96957144  0.14861919  1  0  1.454596  0  2.910063  0  0  1.28232  0  3.414199  0  0  1.335831  0  3.387975  0  0  0.620776  1.24774  0  3.428575  0
H  H2  1  0.17019196  0.59765879  0.94535607  1  0  0.075632  0  0.911973  0  0  0.08956  0  0.974496  0  0  0.092747  0  0.969326  0  0  0.120768  0.087706  0  0.977097  0
H  H3  1  0.82980663  0.40234373  0.05464556  1  0  0.075629  0  0.911931  0  0  0.089558  0  0.974463  0  0  0.092746  0  0.969293  0  0  0.120774  0.087705  0  0.977063  0
H  H4  1  0.09574321  0.14029679  0.41267576  1  0  0.096127  0  0.931085  0  0  0.114271  0  0.990164  0  0  0.115838  0  0.989757  0  0  0.101571  0.113252  0  0.990415  0
H  H5  1  0.90425933  0.85970446  0.58732473  1  0  0.096114  0  0.931067  0  0  0.114263  0  0.990149  0  0  0.11583  0  0.989744  0  0  0.101568  0.113245  0  0.990398  0
H  H6  1  0.91618658  0.16119164  0.53362770  1  0  0.093049  0  0.925877  0  0  0.113609  0  0.980922  0  0  0.115011  0  0.98084  0  0  0.102327  0.113086  0  0.980277  0
H  H7  1  0.08381528  0.83880711  0.46637375  1  0  0.093049  0  0.925893  0  0  0.113587  0  0.980968  0  0  0.114989  0  0.980887  0  0  0.102308  0.113065  0  0.980324  0
H  H8  1  0.58523995  0.35615502  0.44760708  1  0  0.103155  0  0.964498  0  0  0.113985  0  1.030269  0  0  0.11685  0  1.028583  0  0  0.103937  0.112729  0  1.029887  0
H  H9  1  0.41476071  0.64384373  0.55239350  1  0  0.103151  0  0.964565  0  0  0.113981  0  1.030335  0  0  0.116853  0  1.028632  0  0  0.10394  0.112725  0  1.029953  0
H  H10  1  0.62378610  0.14151871  0.69250518  1  0  0.154036  0  0.993565  0  0  0.169161  0  1.055127  0  0  0.171971  0  1.055918  0  0  0.087814  0.168881  0  1.051633  0
H  H11  1  0.37621427  0.85848130  0.30749604  1  0  0.154038  0  0.993517  0  0  0.169165  0  1.055073  0  0  0.171973  0  1.055866  0  0  0.087813  0.168885  0  1.051578  0
H  H12  1  0.53933981  0.04762631  0.59352456  1  0  0.156885  0  0.983969  0  0  0.175282  0  1.04133  0  0  0.177867  0  1.042329  0  0  0.090247  0.1739  0  1.039764  0
H  H13  1  0.46065905  0.95237496  0.40647746  1  0  0.156857  0  0.983967  0  0  0.175255  0  1.041336  0  0  0.177841  0  1.042335  0  0  0.090229  0.173873  0  1.039769  0
H  H14  1  0.66192427  0.91755417  0.75021641  1  0  0.158192  0  0.994837  0  0  0.176696  0  1.053013  0  0  0.178873  0  1.054851  0  0  0.091316  0.175499  0  1.050812  0
H  H15  1  0.33807488  0.08244584  0.24978498  1  0  0.158174  0  0.99487  0  0  0.176688  0  1.053024  0  0  0.178863  0  1.054865  0  0  0.091328  0.175494  0  1.050812  0
H  H16  1  0.35380257  0.25008439  0.40906455  1  0  0.09731  0  0.972361  0  0  0.106039  0  1.036578  0  0  0.109388  0  1.035433  0  0  0.098368  0.103145  0  1.038007  0
H  H17  1  0.64619478  0.74991814  0.59093828  1  0  0.097312  0  0.97237  0  0  0.106046  0  1.036584  0  0  0.109396  0  1.035441  0  0  0.098373  0.103152  0  1.038012  0
H  H18  1  0.20485143  0.40077019  0.17459599  1  0  0.085724  0  0.955598  0  0  0.097741  0  1.017882  0  0  0.10115  0  1.015059  0  0  0.097598  0.095721  0  1.019135  0
H  H19  1  0.79514592  0.59923234  0.82540683  1  0  0.085688  0  0.955644  0  0  0.09769  0  1.017946  0  0  0.101097  0  1.015125  0  0  0.097579  0.095677  0  1.019187  0
H  H20  1  0.77497505  0.49063092  0.47087535  1  0  0.082294  0  0.953593  0  0  0.099492  0  1.019296  0  0  0.10005  0  1.019256  0  0  0.093962  0.098812  0  1.02042  0
H  H21  1  0.22502559  0.50936784  0.52912626  1  0  0.082255  0  0.953636  0  0  0.099484  0  1.019295  0  0  0.100041  0  1.019256  0  0  0.09396  0.098803  0  1.02042  0
H  H22  1  0.91623656  0.58685711  0.32327465  1  0  0.103132  0  0.934292  0  0  0.120129  0  0.995513  0  0  0.121155  0  0.995029  0  0  0.105405  0.119064  0  0.996771  0
H  H23  1  0.08376407  0.41314165  0.67672800  1  0  0.103129  0  0.934317  0  0  0.120117  0  0.995544  0  0  0.121143  0  0.995059  0  0  0.105404  0.119051  0  0.996802  0
H  H24  1  0.85147026  0.40720591  0.32151658  1  0  0.083124  0  0.983412  0  0  0.0895  0  1.06902  0  0  0.091008  0  1.06744  0  0  0.093952  0.088083  0  1.070584  0
H  H25  1  0.14853038  0.59279284  0.67848504  1  0  0.083133  0  0.983429  0  0  0.089501  0  1.069031  0  0  0.091008  0  1.067452  0  0  0.093952  0.088085  0  1.070594  0
H  H26  1  0.18831005  0.20494040  0.02856018  1  0  0.159843  0  0.988264  0  0  0.174705  0  1.051593  0  0  0.178159  0  1.050812  0  0  0.088732  0.172804  0  1.051194  0
H  H27  1  0.81168582  0.79506339  0.97144241  1  0  0.159881  0  0.98825  0  0  0.174735  0  1.051586  0  0  0.178188  0  1.050808  0  0  0.088745  0.172834  0  1.051188  0
H  H28  1  0.13546331  0.00331483  0.09817162  1  0  0.159192  0  0.97371  0  0  0.179636  0  1.025595  0  0  0.18206  0  1.027279  0  0  0.08988  0.177697  0  1.025105  0
H  H29  1  0.86453643  0.99668265  0.90182746  1  0  0.159162  0  0.973759  0  0  0.179616  0  1.025634  0  0  0.18204  0  1.027318  0  0  0.089883  0.177676  0  1.025144  0
H  H30  1  0.04122036  0.16513752  0.93703634  1  0  0.151992  0  0.99337  0  0  0.169483  0  1.052766  0  0  0.171805  0  1.054342  0  0  0.088032  0.167889  0  1.051793  0
H  H31  1  0.95878081  0.83485873  0.06296711  1  0  0.151992  0  0.993406  0  0  0.169477  0  1.052812  0  0  0.171799  0  1.054389  0  0  0.088033  0.167884  0  1.051839  0
C  C32  1  0.13243494  0.01069139  0.64376245  1  0  0.497168  0  3.832423  0  0  0.466429  0  4.123301  0  0  0.491303  0  4.128722  0  0  0.218334  0.449686  0  4.11855  0
C  C33  1  0.86756790  0.98930860  0.35623636  1  0  0.497183  0  3.832487  0  0  0.466462  0  4.123336  0  0  0.491334  0  4.128757  0  0  0.218318  0.449721  0  4.118583  0
C  C34  1  0.24746693  0.67379447  0.95886525  1  0  0.133346  0  3.681823  0  0  0.083302  0  3.947136  0  0  0.099234  0  3.955534  0  0  0.075254  0.072563  0  3.942204  0
C  C35  1  0.75253165  0.32620806  0.04113740  1  0  0.133385  0  3.681657  0  0  0.083309  0  3.947004  0  0  0.099241  0  3.955404  0  0  0.07527  0.072569  0  3.942074  0
C  C36  1  0.45628084  0.67474241  0.12105795  1  0  0.241125  0  3.847524  0  0  0.216677  0  4.110458  0  0  0.231185  0  4.126391  0  0  0.088687  0.206912  0  4.098502  0
C  C37  1  0.54371803  0.32525886  0.87894407  1  0  0.241237  0  3.847542  0  0  0.216855  0  4.110365  0  0  0.231378  0  4.126293  0  0  0.088762  0.20709  0  4.098411  0
C  C38  1  0.33429219  0.60422499  0.09326785  1  0  -0.098545  0  3.851444  0  0  -0.082451  0  4.103294  0  0  -0.093395  0  4.129963  0  0  -0.036471  -0.076053  0  4.087941  0
C  C39  1  0.66570815  0.39577503  0.90673544  1  0  -0.098638  0  3.851475  0  0  -0.08256  0  4.103325  0  0  -0.093503  0  4.12999  0  0  -0.036514  -0.076161  0  4.087975  0
C  C40  1  0.55107203  0.57520357  0.24805607  1  0  0.126695  0  3.791824  0  0  0.117424  0  4.053331  0  0  0.1211  0  4.071065  0  0  0.064929  0.114136  0  4.040449  0
C  C41  1  0.44892861  0.42479518  0.75194555  1  0  0.126634  0  3.791924  0  0  0.117417  0  4.053387  0  0  0.121094  0  4.07111  0  0  0.064935  0.114131  0  4.040504  0
C  C42  1  0.02686746  0.06882192  0.51344331  1  0  -0.201029  0  3.712348  0  0  -0.244537  0  3.962107  0  0  -0.247871  0  3.972  0  0  -0.155589  -0.242362  0  3.955356  0
C  C43  1  0.97313537  0.93117808  0.48655654  1  0  -0.201051  0  3.71239  0  0  -0.244565  0  3.962158  0  0  -0.2479  0  3.972054  0  0  -0.155582  -0.242391  0  3.955407  0
C  C44  1  0.51353726  0.42620176  0.34986584  1  0  -0.148327  0  3.777102  0  0  -0.179019  0  4.04562  0  0  -0.177964  0  4.063152  0  0  -0.10461  -0.179527  0  4.033352  0
C  C45  1  0.48646219  0.57379699  0.65013387  1  0  -0.148289  0  3.777111  0  0  -0.178983  0  4.045613  0  0  -0.177927  0  4.063147  0  0  -0.104594  -0.179491  0  4.033344  0
C  C46  1  0.57220683  0.03538546  0.70294477  1  0  -0.674666  0  3.469059  0  0  -0.724131  0  3.708292  0  0  -0.739175  0  3.715869  0  0  -0.321208  -0.714881  0  3.698891  0
C  C47  1  0.42779354  0.96461455  0.29705645  1  0  -0.674627  0  3.468989  0  0  -0.724103  0  3.708244  0  0  -0.739149  0  3.715822  0  0  -0.3212  -0.714849  0  3.698844  0
C  C48  1  0.38520128  0.36452615  0.32635671  1  0  -0.087008  0  3.820484  0  0  -0.105927  0  4.08966  0  0  -0.109496  0  4.109596  0  0  -0.111703  -0.103176  0  4.07645  0
C  C49  1  0.61480033  0.63547385  0.67364330  1  0  -0.087022  0  3.820443  0  0  -0.105952  0  4.08961  0  0  -0.109524  0  4.109549  0  0  -0.111693  -0.103202  0  4.076402  0
C  C50  1  0.30036197  0.45040434  0.19812925  1  0  -0.102286  0  3.787859  0  0  -0.130259  0  4.050438  0  0  -0.128404  0  4.070627  0  0  -0.100854  -0.133355  0  4.038301  0
C  C51  1  0.69963867  0.54959442  0.80187237  1  0  -0.102234  0  3.787902  0  0  -0.130184  0  4.05047  0  0  -0.128329  0  4.070666  0  0  -0.100831  -0.133283  0  4.03834  0
C  C52  1  0.81402686  0.52120301  0.35059158  1  0  -0.069876  0  3.583981  0  0  -0.166783  0  3.840269  0  0  -0.159827  0  3.84297  0  0  -0.141577  -0.172326  0  3.841162  0
C  C53  1  0.18597351  0.47879700  0.64940964  1  0  -0.069898  0  3.584046  0  0  -0.16675  0  3.840325  0  0  -0.159796  0  3.843025  0  0  -0.141572  -0.172293  0  3.841219  0
C  C54  1  0.15445286  0.11102299  0.99785271  1  0  -0.679144  0  3.499818  0  0  -0.733477  0  3.745274  0  0  -0.748576  0  3.752862  0  0  -0.325758  -0.723867  0  3.74005  0
C  C55  1  0.84554628  0.88897703  0.00214971  1  0  -0.679153  0  3.49985  0  0  -0.733484  0  3.745322  0  0  -0.748586  0  3.752914  0  0  -0.325765  -0.723874  0  3.740096  0
N  N56  1  0.15462048  0.85152910  0.73309424  1  0  -0.393336  0  2.988641  0  0  -0.37328  0  3.27511  0  0  -0.392881  0  3.293766  0  0  -0.259735  -0.358992  0  3.261315  0
N  N57  1  0.84537840  0.14847216  0.26690675  1  0  -0.393339  0  2.988652  0  0  -0.373287  0  3.275092  0  0  -0.392886  0  3.293747  0  0  -0.259722  -0.358998  0  3.261294  0
N  N58  1  0.24911643  0.81717566  0.85041684  1  0  -0.227186  0  3.356443  0  0  -0.144847  0  3.615456  0  0  -0.158518  0  3.636692  0  0  -0.210231  -0.136021  0  3.599983  0
N  N59  1  0.75088245  0.18282560  0.14958414  1  0  -0.227203  0  3.356394  0  0  -0.144841  0  3.615405  0  0  -0.158514  0  3.63664  0  0  -0.210278  -0.136014  0  3.599932  0
O  O60  1  0.49086884  0.82128673  0.03410601  1  0  -0.633688  0  2.162765  0  0  -0.545656  0  2.404641  0  0  -0.573958  0  2.404256  0  0  -0.285924  -0.525752  0  2.402658  0
O  O61  1  0.50913002  0.17871454  0.96589601  1  0  -0.633748  0  2.162812  0  0  -0.545725  0  2.404617  0  0  -0.5741  0  2.404328  0  0  -0.285947  -0.525825  0  2.402641  0
O  O62  1  0.19116541  0.12489004  0.66055526  1  0  -0.623996  0  2.050136  0  0  -0.550888  0  2.288014  0  0  -0.578237  0  2.284618  0  0  -0.294137  -0.532228  0  2.290841  0
O  O63  1  0.80883894  0.87510869  0.33944276  1  0  -0.624018  0  2.050224  0  0  -0.550883  0  2.288076  0  0  -0.578227  0  2.284674  0  0  -0.294106  -0.532233  0  2.290916  0
O  O64  1  0.68075278  0.63792979  0.26106717  1  0  -0.273473  0  2.434359  0  0  -0.174163  0  2.655648  0  0  -0.194228  0  2.663195  0  0  -0.174112  -0.160741  0  2.651256  0
O  O65  1  0.31924692  0.36206771  0.73893397  1  0  -0.273371  0  2.434319  0  0  -0.174213  0  2.655713  0  0  -0.194265  0  2.663247  0  0  -0.174128  -0.160792  0  2.651321  0
