# generated using pymatgen
data_Zn4H14(C8O5)3
_symmetry_space_group_name_H-M   'P 1'
_cell_length_a   18.55721560
_cell_length_b   18.54496556
_cell_length_c   18.57263268
_cell_angle_alpha   90.33877933
_cell_angle_beta   119.49890985
_cell_angle_gamma   120.17533982
_symmetry_Int_Tables_number   1
_chemical_formula_structural   Zn4H14(C8O5)3
_chemical_formula_sum   'Zn8 H28 C48 O30'
_cell_volume   4528.23477586
_cell_formula_units_Z   2
loop_
 _symmetry_equiv_pos_site_id
 _symmetry_equiv_pos_as_xyz
  1  'x, y, z'
loop_
 _atom_site_type_symbol
 _atom_site_label
 _atom_site_symmetry_multiplicity
 _atom_site_fract_x
 _atom_site_fract_y
 _atom_site_fract_z
 _atom_site_occupancy
 _atom_site_pbe_bader_charge
 _atom_site_pbe_bader_spin_density
 _atom_site_pbe_cm5_charge
 _atom_site_pbe_ddec_charge
 _atom_site_pbe_ddec_spin_density
 _atom_site_pbe_ddec_sum_bond_order
 _atom_site_pbe_magmom
Zn  Zn0  1  0.08719407  0.95357380  0.54424347  1  1.304471  0  0.668032  0.959497  0  2.374335  0
Zn  Zn1  1  0.09082516  0.12759056  0.54359619  1  1.30319  0  0.667176  0.960157  0  2.383002  0
Zn  Zn2  1  0.91673844  0.95757215  0.54716504  1  1.305199  0  0.66952  0.963722  0  2.376007  0
Zn  Zn3  1  0.91335662  0.95202880  0.37362732  1  1.305115  0  0.668327  0.961289  0  2.384969  0
Zn  Zn4  1  0.91273786  0.54085354  0.95897963  1  1.315365  0  0.675568  0.967835  0  2.341061  0
Zn  Zn5  1  0.08846840  0.54563649  0.96395410  1  1.320239  0  0.670041  0.961906  0  2.385868  0
Zn  Zn6  1  0.91684011  0.36943034  0.95954848  1  1.304501  0  0.671433  0.965864  0  2.383597  0
Zn  Zn7  1  0.08225526  0.54202037  0.13361524  1  1.307677  0  0.677081  0.978419  0  2.33776  0
H  H8  1  0.13505027  0.03279875  0.20366669  1  0.067707  0  0.103162  0.098996  0  0.990439  0
H  H9  1  0.10081718  0.30773637  0.40461954  1  0.080633  0  0.112532  0.109585  0  0.977798  0
H  H10  1  0.95980351  0.73165896  0.41453609  1  0.076939  0  0.103322  0.108178  0  1.016304  0
H  H11  1  0.92528544  0.14624497  0.23453377  1  0.099274  0  0.11295  0.131866  0  0.98497  0
H  H12  1  0.91091166  0.19802365  0.80716185  1  0.116776  0  0.113434  0.112381  0  0.97569  0
H  H13  1  0.03558285  0.35530249  0.76505030  1  0.107801  0  0.113183  0.132644  0  0.982015  0
H  H14  1  0.89135122  0.10370963  0.69434147  1  0.082182  0  0.113598  0.112312  0  0.976352  0
H  H15  1  0.08792014  0.27212782  0.73341657  1  0.103115  0  0.11351  0.13277  0  0.981837  0
H  H16  1  0.59576612  0.18526579  0.78456248  1  0.115218  0  0.116489  0.114352  0  0.968597  0
H  H17  1  0.58304612  0.33737394  0.82856331  1  0.088029  0  0.113331  0.13324  0  0.98264  0
H  H18  1  0.40801339  0.08968737  0.71492727  1  0.116464  0  0.115843  0.115624  0  0.972045  0
H  H19  1  0.89126143  0.79443166  0.70764478  1  0.086414  0  0.116886  0.116476  0  0.968663  0
H  H20  1  0.42312340  0.25956739  0.68857562  1  0.088705  0  0.113054  0.130509  0  0.983353  0
H  H21  1  0.89934919  0.57848559  0.41190049  1  0.071671  0  0.106031  0.104493  0  0.986544  0
H  H22  1  0.85774757  0.47204738  0.29017344  1  0.109179  0  0.110644  0.11299  0  0.983898  0
H  H23  1  0.07439108  0.78564904  0.10133198  1  0.095805  0  0.103158  0.114086  0  1.01801  0
H  H24  1  0.13966364  0.93977530  0.10986098  1  0.073012  0  0.105631  0.10303  0  0.9867  0
H  H25  1  0.06933828  0.97109061  0.29177851  1  0.077468  0  0.101182  0.106776  0  1.009967  0
H  H26  1  0.86629354  0.66999538  0.76941873  1  0.137762  0  0.118088  0.12145  0  0.971893  0
H  H27  1  0.21398817  0.77920545  0.83077017  1  0.645378  0  0.351737  0.38862  0  0.837355  0
H  H28  1  0.78442648  0.46251167  0.02863834  1  0.640165  0  0.314423  0.366358  0  0.925447  0
H  H29  1  0.03288595  0.76685055  0.68934950  1  0.099043  0  0.1091  0.130269  0  1.011351  0
H  H30  1  0.40619633  0.71309726  0.31901045  1  0.092376  0  0.113365  0.111521  0  0.975629  0
H  H31  1  0.41808361  0.70243650  0.15981426  1  0.093337  0  0.113257  0.130733  0  0.984729  0
H  H32  1  0.59342500  0.81057295  0.41122540  1  0.108456  0  0.111902  0.109062  0  0.977035  0
H  H33  1  0.58209053  0.77153849  0.24291276  1  0.098114  0  0.113778  0.131792  0  0.983895  0
H  H34  1  0.09342826  0.40125530  0.31137778  1  0.109344  0  0.114114  0.112654  0  0.97378  0
H  H35  1  0.94552901  0.22972036  0.15234208  1  0.089021  0  0.112484  0.128311  0  0.98543  0
C  C36  1  0.99072954  0.13235258  0.36330792  1  1.556607  0  0.217703  0.639328  0  4.194141  0
C  C37  1  0.10935546  0.91177943  0.14799228  1  -0.11535  0  -0.090484  -0.081597  0  4.042144  0
C  C38  1  0.10705367  0.96456635  0.20137765  1  -0.032019  0  -0.092617  -0.083656  0  4.050387  0
C  C39  1  0.99195766  0.85333784  0.63164944  1  1.518845  0  0.22084  0.646289  0  4.175671  0
C  C40  1  0.07055090  0.93019779  0.25059202  1  -0.095508  0  -0.091464  -0.130744  0  3.980224  0
C  C41  1  0.93615975  0.71246122  0.77279683  1  -0.051609  0  -0.053853  -0.037307  0  3.926665  0
C  C42  1  0.01386569  0.70688762  0.82744998  1  0.009776  0  -0.009214  -0.165842  0  3.864825  0
C  C43  1  0.93784091  0.77015526  0.72033960  1  -0.045095  0  -0.062444  -0.011123  0  3.96267  0
C  C44  1  0.98979804  0.79291632  0.68346893  1  0.011668  0  -0.087307  -0.225987  0  3.865503  0
C  C45  1  0.44458407  0.72640353  0.28613764  1  0.037243  0  -0.065607  -0.021755  0  3.970616  0
C  C46  1  0.38572324  0.69130765  0.19763506  1  0.000243  0  -0.083637  -0.218688  0  3.871181  0
C  C47  1  0.90902117  0.56867875  0.23347965  1  1.3e-05  0  -0.01117  -0.069293  0  3.918073  0
C  C48  1  0.55507027  0.78118774  0.34093621  1  -0.084723  0  -0.06498  -0.018402  0  3.967969  0
C  C49  1  0.61412383  0.79856528  0.31190677  1  -0.063221  0  -0.084554  -0.220914  0  3.87154  0
C  C50  1  0.04613909  0.32972965  0.27867089  1  -0.06099  0  -0.063256  -0.017168  0  3.961578  0
C  C51  1  0.27694872  0.13253772  0.63209823  1  1.5644  0  0.219263  0.639168  0  4.185422  0
C  C52  1  0.99400736  0.29994179  0.19034203  1  -0.009308  0  -0.08073  -0.212135  0  3.857675  0
C  C53  1  0.04580492  0.27438029  0.33358072  1  0.082586  0  -0.063366  -0.015089  0  3.969506  0
C  C54  1  0.98357721  0.18496177  0.30417534  1  -0.112197  0  -0.087513  -0.228944  0  3.879695  0
C  C55  1  0.95184013  0.23021721  0.77754709  1  0.028554  0  -0.064284  -0.016183  0  3.97621  0
C  C56  1  0.99681872  0.31817109  0.79464241  1  -0.150566  0  -0.087078  -0.229406  0  3.876338  0
C  C57  1  0.95189579  0.17470733  0.72240951  1  -0.04328  0  -0.065082  -0.018705  0  3.977916  0
C  C58  1  0.95722569  0.66075607  0.23962653  1  -0.002096  0  0.007812  0.050408  0  3.905469  0
C  C59  1  0.02264674  0.20305739  0.70527510  1  0.026353  0  -0.085983  -0.226236  0  3.875509  0
C  C60  1  0.55730928  0.21624201  0.77974467  1  -0.125726  0  -0.056854  -0.003174  0  3.955212  0
C  C61  1  0.61594447  0.30310681  0.82652860  1  0.033667  0  -0.089167  -0.238588  0  3.885281  0
C  C62  1  0.44701927  0.16069207  0.72542340  1  0.013161  0  -0.062977  -0.020757  0  3.965398  0
C  C63  1  0.72631524  0.85649860  0.36966872  1  1.563139  0  0.217963  0.637639  0  4.193926  0
C  C64  1  0.38934504  0.19044493  0.68490056  1  -0.073897  0  -0.08301  -0.21975  0  3.870836  0
C  C65  1  0.27346791  0.63552783  0.14381408  1  1.49894  0  0.218013  0.639237  0  4.18888  0
C  C66  1  0.72788400  0.35743130  0.87810326  1  1.526455  0  0.222511  0.642514  0  4.172424  0
C  C67  1  0.00189392  0.64134350  0.87444450  1  1.589568  0  0.226074  0.616818  0  4.17497  0
C  C68  1  0.99811153  0.35940638  0.13773887  1  1.522379  0  0.223345  0.650896  0  4.168997  0
C  C69  1  0.97022656  0.71922012  0.30390493  1  -0.034947  0  0.00077  0.056966  0  3.970862  0
C  C70  1  0.99747259  0.37019858  0.85580455  1  1.531875  0  0.219085  0.641631  0  4.188365  0
C  C71  1  0.99963316  0.64310894  0.13376522  1  1.556391  0  0.229141  0.617684  0  4.166631  0
C  C72  1  0.01657868  0.14240743  0.64708995  1  1.533559  0  0.218973  0.641028  0  4.188753  0
C  C73  1  0.00658063  0.86398273  0.36419496  1  1.573835  0  0.232727  0.618799  0  4.173779  0
C  C74  1  0.94761338  0.68685001  0.36495911  1  -0.013026  0  -0.084464  -0.114995  0  3.966226  0
C  C75  1  0.91384201  0.60153876  0.36352645  1  -0.056051  0  -0.092142  -0.087697  0  4.048828  0
C  C76  1  0.89237317  0.54176235  0.29610344  1  -0.057856  0  -0.076191  -0.084961  0  3.97321  0
C  C77  1  0.12046003  0.76943078  0.85217712  1  1.556135  0  0.232124  0.606683  0  4.133741  0
C  C78  1  0.86224293  0.49547661  0.15571275  1  1.514217  0  0.220975  0.575446  0  4.148092  0
C  C79  1  0.99353031  0.69697633  0.18822013  1  0.029963  0  -0.005103  -0.11338  0  3.872385  0
C  C80  1  0.03264895  0.78617568  0.19225532  1  -0.016863  0  0.003623  0.06994  0  3.948454  0
C  C81  1  0.03380962  0.84106434  0.24896193  1  0.05067  0  -0.000141  0.060079  0  3.973978  0
C  C82  1  0.00423583  0.80664998  0.30446466  1  0.044342  0  -0.001507  -0.10456  0  3.886159  0
C  C83  1  0.07335917  0.82544143  0.14356762  1  0.018908  0  -0.091472  -0.129173  0  3.968875  0
O  O84  1  0.00215376  0.99742703  0.50270997  1  -1.19314  0  -0.572382  -1.030875  0  2.537936  0
O  O85  1  0.93713378  0.31982871  0.05426394  1  -1.154923  0  -0.322864  -0.556667  0  2.294273  0
O  O86  1  0.04947759  0.45414953  0.87180640  1  -1.161593  0  -0.320826  -0.549441  0  2.282406  0
O  O87  1  0.93198607  0.04821385  0.32472916  1  -1.171211  0  -0.3223  -0.553096  0  2.296838  0
O  O88  1  0.04619278  0.60896629  0.17437729  1  -1.158277  0  -0.305164  -0.540136  0  2.3337  0
O  O89  1  0.94821814  0.32861587  0.88822925  1  -1.172679  0  -0.319697  -0.557811  0  2.327725  0
O  O90  1  0.96109450  0.63707906  0.05314300  1  -1.16691  0  -0.315  -0.550613  0  2.353423  0
O  O91  1  0.91867763  0.59435507  0.86849135  1  -1.16708  0  -0.315288  -0.545136  0  2.292552  0
O  O92  1  0.06116027  0.44286878  0.17804250  1  -1.169172  0  -0.314118  -0.551084  0  2.325132  0
O  O93  1  0.23107049  0.60573317  0.06113031  1  -1.167737  0  -0.322239  -0.551016  0  2.29614  0
O  O94  1  0.77113862  0.32165166  0.87829786  1  -1.165315  0  -0.308909  -0.539441  0  2.30755  0
O  O95  1  0.23264935  0.05021656  0.62314938  1  -1.176411  0  -0.318422  -0.552436  0  2.311679  0
O  O96  1  0.04763916  0.86949623  0.60378689  1  -1.165491  0  -0.319936  -0.550005  0  2.28825  0
O  O97  1  0.23375684  0.17153377  0.60003050  1  -1.162228  0  -0.319058  -0.547795  0  2.287952  0
O  O98  1  0.77057685  0.88641756  0.45248325  1  -1.169542  0  -0.319972  -0.556123  0  2.31369  0
O  O99  1  0.08348111  0.17941774  0.63020898  1  -1.155808  0  -0.320249  -0.548965  0  2.288374  0
O  O100  1  0.94228849  0.88239310  0.32612434  1  -1.158199  0  -0.307547  -0.5388  0  2.327676  0
O  O101  1  0.94634285  0.05965622  0.61845704  1  -1.18067  0  -0.320065  -0.556878  0  2.326033  0
O  O102  1  0.07123136  0.88876549  0.44665601  1  -1.172244  0  -0.309879  -0.542931  0  2.322039  0
O  O103  1  0.18154998  0.84256158  0.90818436  1  -1.12195  0  -0.288823  -0.475693  0  2.021452  0
O  O104  1  0.14190668  0.73534302  0.80672814  1  -1.140069  0  -0.33236  -0.482093  0  2.202983  0
O  O105  1  0.86399780  0.43047603  0.15797394  1  -1.141498  0  -0.307218  -0.500736  0  2.073127  0
O  O106  1  0.76976472  0.87182157  0.32976879  1  -1.168928  0  -0.320224  -0.548394  0  2.298327  0
O  O107  1  0.80996528  0.50751984  0.07992976  1  -1.14678  0  -0.341546  -0.48928  0  2.286034  0
O  O108  1  0.05369144  0.17332638  0.44620186  1  -1.183144  0  -0.319728  -0.555478  0  2.323071  0
O  O109  1  0.94040507  0.88415677  0.61937783  1  -1.158328  0  -0.317459  -0.554706  0  2.311188  0
O  O110  1  0.99920911  0.49884536  0.00418831  1  -1.211077  0  -0.575059  -1.03458  0  2.545077  0
O  O111  1  0.22834592  0.62139748  0.18181483  1  -1.174844  0  -0.316798  -0.55436  0  2.305469  0
O  O112  1  0.77395164  0.43959171  0.91975448  1  -1.183771  0  -0.319019  -0.572799  0  2.308435  0
O  O113  1  0.07872618  0.63849408  0.91756340  1  -1.16529  0  -0.308509  -0.536741  0  2.323815  0
