# generated using pymatgen
data_Mn3H48C64S2(N5O9)2
_symmetry_space_group_name_H-M   'P 1'
_cell_length_a   12.83211019
_cell_length_b   14.25927280
_cell_length_c   20.97571619
_cell_angle_alpha   90.00053055
_cell_angle_beta   89.99970144
_cell_angle_gamma   117.25400008
_symmetry_Int_Tables_number   1
_chemical_formula_structural   Mn3H48C64S2(N5O9)2
_chemical_formula_sum   'Mn6 H96 C128 S4 N20 O36'
_cell_volume   3411.98233454
_cell_formula_units_Z   2
loop_
 _symmetry_equiv_pos_site_id
 _symmetry_equiv_pos_as_xyz
  1  'x, y, z'
loop_
 _atom_site_type_symbol
 _atom_site_label
 _atom_site_symmetry_multiplicity
 _atom_site_fract_x
 _atom_site_fract_y
 _atom_site_fract_z
 _atom_site_occupancy
 _atom_site_pbe_bader_charge
 _atom_site_pbe_bader_spin_density
 _atom_site_pbe_cm5_charge
 _atom_site_pbe_ddec_charge
 _atom_site_pbe_ddec_spin_density
 _atom_site_pbe_ddec_sum_bond_order
 _atom_site_pbe_magmom
Mn  Mn0  1  0.31976703  0.19883579  0.48407703  1  1.487009  4.549029  0.600049  0.873985  4.676919  2.390111  4.455
Mn  Mn1  1  0.18005651  0.80091154  0.98407399  1  1.486781  4.549083  0.600001  0.874428  4.675889  2.390164  4.455
Mn  Mn2  1  0.68006638  0.80093459  0.51592566  1  1.486765  4.549097  0.600001  0.874342  4.675976  2.39015  4.455
Mn  Mn3  1  0.81974887  0.19881682  0.01591917  1  1.486782  4.549061  0.600031  0.873916  4.676963  2.390187  4.455
Mn  Mn4  1  0.99992361  0.99997117  0.50000022  1  1.555787  4.530387  0.601562  1.049223  4.663796  2.330345  4.465
Mn  Mn5  1  0.49991890  0.99996559  0.99999871  1  1.555713  4.530365  0.60157  1.049275  4.663768  2.330313  4.465
H  H6  1  0.48527416  0.10789870  0.55896022  1  0.151656  0.000701  0.13406  0.100788  0.000564  1.038329  0.0
H  H7  1  0.01476287  0.89212759  0.05898193  1  0.151444  0.000702  0.134097  0.100794  0.000565  1.038324  0.0
H  H8  1  0.51475218  0.89213143  0.44101911  1  0.151298  0.000702  0.134071  0.100821  0.000565  1.03825  0.0
H  H9  1  0.98527058  0.10790273  0.94103888  1  0.151665  0.000701  0.134042  0.100785  0.000563  1.038388  0.0
H  H10  1  0.57459283  0.34119369  0.70253351  1  0.13949  0.000687  0.120108  0.117977  0.000449  1.04341  0.0
H  H11  1  0.92539290  0.65881615  0.20254721  1  0.139325  0.000688  0.120074  0.117958  0.000449  1.043411  0.0
H  H12  1  0.42539735  0.65882611  0.29745012  1  0.139088  0.000688  0.120074  0.117995  0.000449  1.043403  0.0
H  H13  1  0.07458650  0.34118935  0.79746693  1  0.139291  0.000687  0.120133  0.118058  0.000448  1.043399  0.0
H  H14  1  0.42284028  0.36044025  0.61679657  1  0.128586  0.000337  0.119041  0.111352  -0.000119  1.03037  0.0
H  H15  1  0.07711073  0.63953307  0.11679647  1  0.128705  0.000339  0.119111  0.11154  -0.000117  1.030133  0.0
H  H16  1  0.57711461  0.63954512  0.38320136  1  0.128795  0.000339  0.11911  0.111572  -0.000117  1.03  0.0
H  H17  1  0.92282986  0.36043557  0.88320098  1  0.128438  0.000338  0.11909  0.11142  -0.000119  1.030357  0.0
H  H18  1  0.64443099  0.10011881  0.58304590  1  0.077854  0.000211  0.102251  0.106313  -2.1e-05  1.059625  0.0
H  H19  1  0.85557764  0.89988312  0.08305322  1  0.078019  0.000211  0.102162  0.106173  -2.2e-05  1.059545  0.0
H  H20  1  0.35557090  0.89988808  0.41694631  1  0.078064  0.000211  0.102145  0.106155  -2.2e-05  1.059493  0.0
H  H21  1  0.14443362  0.10013026  0.91695900  1  0.077717  0.000211  0.102197  0.106258  -2.2e-05  1.059694  0.0
H  H22  1  0.74126091  0.00864430  0.63562340  1  0.083595  0.000135  0.109188  0.109704  -0.00014  1.011234  0.0
H  H23  1  0.75873292  0.99136179  0.13562541  1  0.083443  0.000137  0.109197  0.109641  -0.000139  1.011268  0.0
H  H24  1  0.25873261  0.99136625  0.36436976  1  0.083467  0.000137  0.109182  0.109624  -0.000138  1.011283  0.0
H  H25  1  0.24125630  0.00864631  0.86438253  1  0.083591  0.000135  0.109169  0.109692  -0.00014  1.011211  0.0
H  H26  1  0.72698068  0.15073513  0.81481775  1  0.099179  7.6e-05  0.106674  0.11158  -0.000119  1.00235  0.0
H  H27  1  0.77299767  0.84927751  0.31482550  1  0.098864  7.6e-05  0.106634  0.111582  -0.000119  1.002462  0.0
H  H28  1  0.27301304  0.84928554  0.18517016  1  0.098815  7.6e-05  0.106654  0.111685  -0.000119  1.002304  0.0
H  H29  1  0.22698444  0.15073040  0.68518578  1  0.099283  7.6e-05  0.106687  0.11164  -0.000119  1.002356  0.0
H  H30  1  0.61641790  0.23205865  0.76394411  1  0.081975  5.8e-05  0.104888  0.11251  3.4e-05  1.023568  0.0
H  H31  1  0.88357121  0.76795441  0.26395577  1  0.081692  5.8e-05  0.104878  0.112625  3.4e-05  1.023311  0.0
H  H32  1  0.38358100  0.76795983  0.23604285  1  0.082003  5.8e-05  0.104866  0.112545  3.4e-05  1.02335  0.0
H  H33  1  0.11642149  0.23205768  0.73605694  1  0.081669  5.8e-05  0.104882  0.112529  3.4e-05  1.023536  0.0
H  H34  1  0.89349169  0.00948320  0.67333773  1  0.115339  4.6e-05  0.110092  0.11712  -0.000299  1.003753  0.0
H  H35  1  0.60650451  0.99053978  0.17334450  1  0.115055  4.5e-05  0.110033  0.117163  -0.000299  1.003719  0.0
H  H36  1  0.10651332  0.99054634  0.32665114  1  0.115367  4.5e-05  0.110038  0.117174  -0.000299  1.003808  0.0
H  H37  1  0.39348494  0.00947689  0.82666773  1  0.115149  4.6e-05  0.11004  0.117094  -0.000299  1.003659  0.0
H  H38  1  0.98297071  0.90754158  0.72121386  1  0.083373  0.000192  0.108136  0.117343  6.1e-05  1.00815  0.0
H  H39  1  0.51703130  0.09248295  0.22122625  1  0.082598  0.000191  0.108109  0.117353  6.1e-05  1.008235  0.0
H  H40  1  0.01702974  0.09247850  0.27877406  1  0.082771  0.000191  0.108123  0.117346  6.1e-05  1.008232  0.0
H  H41  1  0.48295973  0.90753375  0.77878932  1  0.082798  0.000192  0.10812  0.117305  6.1e-05  1.008195  0.0
H  H42  1  0.81733666  0.90363454  0.90073503  1  0.092259  0.000181  0.104039  0.109201  -3e-05  1.043432  0.0
H  H43  1  0.68266028  0.09636960  0.40074406  1  0.092466  0.00018  0.104056  0.109176  -3e-05  1.043348  0.0
H  H44  1  0.18265619  0.09636977  0.09925193  1  0.092376  0.00018  0.104039  0.109183  -3e-05  1.043339  0.0
H  H45  1  0.31734006  0.90363570  0.59926721  1  0.092321  0.000181  0.10406  0.109241  -3e-05  1.043469  0.0
H  H46  1  0.72692292  0.00648422  0.85312016  1  0.081337  4.1e-05  0.108748  0.113989  -0.000268  0.997543  0.0
H  H47  1  0.77306856  0.99352072  0.35312595  1  0.081618  4e-05  0.108805  0.114113  -0.000269  0.997444  0.0
H  H48  1  0.27306906  0.99352474  0.14686680  1  0.081766  4e-05  0.108768  0.114092  -0.000269  0.997416  0.0
H  H49  1  0.22691926  0.00647801  0.64688437  1  0.081319  4.1e-05  0.108746  0.113984  -0.000268  0.997667  0.0
H  H50  1  0.96403334  0.74786167  0.76073146  1  0.142405  0.000563  0.116244  0.114687  0.000337  1.065041  0.0
H  H51  1  0.53596256  0.25216865  0.26075385  1  0.143011  0.000562  0.116305  0.114691  0.000337  1.065008  0.0
H  H52  1  0.03592156  0.25214315  0.23925264  1  0.142996  0.000563  0.116223  0.1145  0.000337  1.065259  0.0
H  H53  1  0.46403686  0.74786385  0.73927029  1  0.142356  0.000563  0.116222  0.114632  0.000337  1.065083  0.0
H  H54  1  0.08656501  0.68763795  0.84687179  1  0.181494  0.000386  0.121051  0.126268  -1e-05  1.027292  0.0
H  H55  1  0.41341667  0.31236251  0.34690672  1  0.181354  0.000385  0.121105  0.126151  -1.1e-05  1.027342  0.0
H  H56  1  0.91338362  0.31234413  0.15310230  1  0.183924  0.000384  0.121118  0.126156  -1.1e-05  1.027281  0.0
H  H57  1  0.58657303  0.68764171  0.65312982  1  0.181994  0.000386  0.121058  0.126258  -1e-05  1.027331  0.0
H  H58  1  0.99096582  0.90125926  0.93724411  1  0.153746  0.000556  0.134379  0.10068  0.000308  1.020933  0.0
H  H59  1  0.50901216  0.09872070  0.43725371  1  0.153525  0.000555  0.134439  0.100824  0.000308  1.021048  0.0
H  H60  1  0.00902370  0.09873328  0.06274237  1  0.153896  0.000556  0.13443  0.100736  0.000309  1.02097  0.0
H  H61  1  0.49096699  0.90125677  0.56275947  1  0.153844  0.000555  0.13444  0.100791  0.000308  1.020874  0.0
H  H62  1  0.27418536  0.41416278  0.62154865  1  0.090726  0.000183  0.107082  0.11192  -0.000138  1.009844  0.0
H  H63  1  0.22587325  0.58590615  0.12154584  1  0.090174  0.000184  0.107298  0.112232  -0.000138  1.009546  0.0
H  H64  1  0.72586736  0.58589298  0.37844450  1  0.090662  0.000184  0.107308  0.112239  -0.000138  1.009614  0.0
H  H65  1  0.77419015  0.41414912  0.87845924  1  0.090657  0.000183  0.107139  0.111907  -0.000139  1.009705  0.0
H  H66  1  0.22090422  0.52680809  0.69135886  1  0.14751  6.2e-05  0.108073  0.113422  -7e-06  1.011599  0.0
H  H67  1  0.27909825  0.47321507  0.19135041  1  0.113869  6e-05  0.108194  0.113495  -7e-06  1.011677  0.0
H  H68  1  0.77911321  0.47321324  0.30864097  1  0.127033  6e-05  0.10812  0.11343  -7e-06  1.011653  0.0
H  H69  1  0.72091971  0.52679926  0.80864752  1  0.113695  6e-05  0.10813  0.113332  -7e-06  1.011548  0.0
H  H70  1  0.85519530  0.30275102  0.67392844  1  0.088912  8e-05  0.101724  0.104769  2.6e-05  1.046057  0.0
H  H71  1  0.64483593  0.69721847  0.17394803  1  0.088432  8e-05  0.101678  0.104806  2.6e-05  1.046021  0.0
H  H72  1  0.14484412  0.69723668  0.32605805  1  0.088422  8e-05  0.101658  0.10475  2.6e-05  1.046068  0.0
H  H73  1  0.35519969  0.30276134  0.82608613  1  0.088839  8e-05  0.101747  0.104887  2.6e-05  1.045971  0.0
H  H74  1  0.91054085  0.18990026  0.60383361  1  0.107847  0.000215  0.104096  0.101983  -0.000152  1.049548  0.0
H  H75  1  0.58953796  0.81010854  0.10385980  1  0.106529  0.000215  0.104081  0.101954  -0.000152  1.049798  0.0
H  H76  1  0.08951742  0.81011363  0.39614620  1  0.107254  0.000215  0.104069  0.101947  -0.000152  1.049792  0.0
H  H77  1  0.41053779  0.18990117  0.89617435  1  0.107724  0.000215  0.104112  0.102005  -0.000152  1.049499  0.0
H  H78  1  0.15139815  0.69539451  0.67751254  1  0.069  9.9e-05  0.106851  0.114103  2.6e-05  0.998489  0.0
H  H79  1  0.34858527  0.30457270  0.17751568  1  0.068929  9.9e-05  0.106833  0.114009  2.6e-05  0.998512  0.0
H  H80  1  0.84859504  0.30459269  0.32248205  1  0.068691  9.9e-05  0.106837  0.114085  2.6e-05  0.998489  0.0
H  H81  1  0.65141863  0.69541246  0.82247796  1  0.068713  9.9e-05  0.106826  0.114032  2.6e-05  0.998327  0.0
H  H82  1  0.10454258  0.82254494  0.61600951  1  0.111124  0.000333  0.10317  0.102309  -0.000103  1.055643  0.0
H  H83  1  0.39546127  0.17743448  0.11601123  1  0.110923  0.000331  0.103181  0.102316  -0.000105  1.055548  0.0
H  H84  1  0.89545687  0.17744554  0.38398651  1  0.111088  0.000331  0.103201  0.102298  -0.000105  1.055588  0.0
H  H85  1  0.60455076  0.82255946  0.88398193  1  0.110863  0.000333  0.10317  0.102265  -0.000103  1.055527  0.0
H  H86  1  0.73666857  0.61844517  0.63806576  1  0.131644  0.000162  0.112091  0.130435  -0.000258  1.009609  0.0
H  H87  1  0.76333502  0.38156666  0.13807299  1  0.131866  0.000162  0.112128  0.130557  -0.000258  1.009326  0.0
H  H88  1  0.26333291  0.38156248  0.36192883  1  0.131782  0.000162  0.112136  0.130564  -0.000258  1.009433  0.0
H  H89  1  0.23667325  0.61843729  0.86192589  1  0.131928  0.000162  0.112094  0.130455  -0.000258  1.009577  0.0
H  H90  1  0.78093773  0.48814064  0.69682513  1  0.109829  0.000124  0.104389  0.106553  5.2e-05  1.030017  0.0
H  H91  1  0.71903444  0.51185553  0.19682998  1  0.109996  0.000124  0.104389  0.106637  5.2e-05  1.029622  0.0
H  H92  1  0.21905006  0.51185964  0.30317184  1  0.109909  0.000124  0.104409  0.106579  5.2e-05  1.029835  0.0
H  H93  1  0.28096612  0.48813887  0.80316985  1  0.109844  0.000124  0.104409  0.106648  5.2e-05  1.02991  0.0
H  H94  1  0.33893830  0.38179168  0.50370456  1  0.624017  -0.000107  0.299688  0.384494  0.000121  0.944051  0.0
H  H95  1  0.16105667  0.61820785  0.00373124  1  0.622644  -0.000101  0.299599  0.384305  0.000117  0.944206  0.0
H  H96  1  0.66104713  0.61820854  0.49627287  1  0.622581  -0.000103  0.299653  0.384408  0.000118  0.944088  0.0
H  H97  1  0.83892378  0.38178367  0.99629148  1  0.623829  -0.000107  0.299635  0.384529  0.000123  0.944038  0.0
H  H98  1  0.47447872  0.42581268  0.50740972  1  0.609037  0.000552  0.304201  0.374963  0.00026  0.937095  0.0
H  H99  1  0.02537767  0.57361271  0.00719007  1  0.609766  0.000582  0.303898  0.375173  0.000259  0.937481  0.0
H  H100  1  0.52537710  0.57364006  0.49280131  1  0.609896  0.000579  0.303813  0.375051  0.000259  0.937616  0.0
H  H101  1  0.97445792  0.42578344  0.99257473  1  0.60851  0.000552  0.304185  0.37495  0.00026  0.937019  0.0
C  C102  1  0.49143334  0.17615768  0.58440747  1  0.969582  0.010952  0.144198  0.099469  0.009538  3.912875  0.008
C  C103  1  0.00858360  0.82386295  0.08442829  1  0.970138  0.010964  0.144119  0.099323  0.009549  3.91279  0.008
C  C104  1  0.50857650  0.82386733  0.41557186  1  0.971036  0.010955  0.144107  0.099221  0.009544  3.91293  0.008
C  C105  1  0.99143148  0.17615676  0.91559299  1  0.969122  0.010956  0.144215  0.099529  0.009539  3.912676  0.008
C  C106  1  0.53431848  0.29677271  0.65990699  1  0.229713  0.001592  0.003347  -0.092827  0.001052  3.896812  0.001
C  C107  1  0.96567799  0.70323765  0.15992371  1  0.229345  0.001585  0.003231  -0.092991  0.001046  3.896709  0.001
C  C108  1  0.46567843  0.70324649  0.34007377  1  0.230072  0.001585  0.003255  -0.093005  0.001046  3.89678  0.001
C  C109  1  0.03431121  0.29677200  0.84009233  1  0.230023  0.001592  0.003245  -0.093027  0.001052  3.897073  0.001
C  C110  1  0.46000857  0.30593990  0.61623044  1  0.43512  0.004761  0.00051  -0.025141  0.002771  3.996708  0.004
C  C111  1  0.03998060  0.69406248  0.11625035  1  0.435543  0.004756  0.000664  -0.024921  0.002767  3.996495  0.004
C  C112  1  0.53998097  0.69407210  0.38374937  1  0.434937  0.004755  0.000625  -0.025025  0.002766  3.9964  0.004
C  C113  1  0.96000170  0.30593610  0.88376998  1  0.435196  0.004761  0.000516  -0.025106  0.002771  3.996961  0.004
C  C114  1  0.62067625  0.17023920  0.67010349  1  0.275603  0.000451  0.093683  0.163373  0.000426  4.014639  0.0
C  C115  1  0.87932801  0.82977618  0.17011364  1  0.275463  0.000453  0.093762  0.163739  0.000428  4.014397  0.0
C  C116  1  0.37932739  0.82977941  0.32988538  1  0.27538  0.000453  0.093789  0.163645  0.000428  4.014531  0.0
C  C117  1  0.12068072  0.17024491  0.82989906  1  0.275387  0.000451  0.093651  0.163362  0.000426  4.014705  0.0
C  C118  1  0.65883668  0.10919072  0.63426847  1  0.000543  0.000673  -0.096806  -0.178179  0.000411  4.009902  0.0
C  C119  1  0.84116458  0.89081945  0.13427674  1  0.000539  0.000675  -0.096724  -0.178224  0.000413  4.009606  0.0
C  C120  1  0.34116155  0.89082152  0.36572040  1  0.000618  0.000675  -0.096761  -0.178228  0.000412  4.00985  0.0
C  C121  1  0.15883836  0.10919448  0.86573644  1  0.000733  0.000673  -0.096751  -0.17826  0.000411  4.00989  0.0
C  C122  1  0.71643495  0.05925672  0.66396017  1  -0.048843  0.000116  -0.084951  -0.106231  2.1e-05  3.97675  0.0
C  C123  1  0.78355914  0.94075363  0.16396560  1  -0.049109  0.000116  -0.085128  -0.106418  2.1e-05  3.97674  0.0
C  C124  1  0.28356050  0.94075622  0.33603251  1  -0.049322  0.000116  -0.084998  -0.106261  2.1e-05  3.976859  0.0
C  C125  1  0.21643669  0.05926010  0.83603947  1  -0.048925  0.000116  -0.084947  -0.106132  2.1e-05  3.976824  0.0
C  C126  1  0.74194515  0.07177155  0.72945543  1  -0.07107  0.000711  -0.007387  0.05464  0.000582  4.000942  0.0
C  C127  1  0.75804245  0.92824102  0.22945991  1  -0.069164  0.000714  -0.007436  0.05474  0.000585  4.00073  0.0
C  C128  1  0.25804421  0.92824978  0.27053772  1  -0.069405  0.000714  -0.007437  0.054735  0.000584  4.000802  0.0
C  C129  1  0.24194472  0.07177091  0.77054898  1  -0.071028  0.000711  -0.007375  0.054641  0.000582  4.00111  0.0
C  C130  1  0.70673241  0.13686178  0.76420349  1  -0.021762  0.000115  -0.079687  -0.100129  3.8e-05  3.943042  0.0
C  C131  1  0.79325041  0.86314956  0.26421413  1  -0.022732  0.000115  -0.079558  -0.100112  3.8e-05  3.942837  0.0
C  C132  1  0.29325660  0.86315721  0.23578251  1  -0.020294  0.000115  -0.079629  -0.100377  3.8e-05  3.942687  0.0
C  C133  1  0.20673831  0.13686398  0.73579906  1  -0.0218  0.000115  -0.079715  -0.100301  3.8e-05  3.942993  0.0
C  C134  1  0.64553338  0.18478099  0.73532320  1  0.042509  0.000693  -0.087504  -0.152217  0.000583  3.971882  0.0
C  C135  1  0.85445693  0.81523407  0.23533048  1  0.04337  0.000695  -0.087493  -0.152425  0.000584  3.97151  0.0
C  C136  1  0.35446505  0.81524137  0.26466757  1  0.040747  0.000695  -0.087457  -0.152184  0.000584  3.971251  0.0
C  C137  1  0.14552977  0.18478175  0.76468223  1  0.043128  0.000693  -0.087475  -0.152129  0.000583  3.971881  0.0
C  C138  1  0.80138154  0.01535960  0.75923627  1  -0.007832  0.000605  -0.008532  0.054888  0.000494  3.998297  0.0
C  C139  1  0.69860521  0.98465333  0.25924319  1  -0.008631  0.000605  -0.008486  0.054867  0.000494  3.998551  0.0
C  C140  1  0.19860908  0.98465787  0.24075451  1  -0.008411  0.000605  -0.008457  0.054839  0.000494  3.998488  0.0
C  C141  1  0.30138126  0.01535392  0.74076570  1  -0.007937  0.000605  -0.008614  0.054669  0.000494  3.998805  0.0
C  C142  1  0.87354525  0.98523484  0.72296820  1  -0.04159  0.000159  -0.079729  -0.096929  -1.2e-05  3.938165  0.0
C  C143  1  0.62645485  0.01478578  0.22297404  1  -0.041585  0.000159  -0.079458  -0.096606  -1.2e-05  3.937796  0.0
C  C144  1  0.12645356  0.01478831  0.27702066  1  -0.041903  0.000159  -0.079522  -0.096611  -1.2e-05  3.938223  0.0
C  C145  1  0.37354054  0.98523028  0.77703580  1  -0.041444  0.000159  -0.07958  -0.0967  -1.2e-05  3.938038  0.0
C  C146  1  0.92446511  0.92689776  0.74966071  1  -0.02742  0.000877  -0.086979  -0.152346  0.000671  3.973809  0.001
C  C147  1  0.57552976  0.07312539  0.24967614  1  -0.026086  0.000877  -0.087118  -0.152592  0.000672  3.973598  0.001
C  C148  1  0.07553060  0.07312219  0.25032577  1  -0.026426  0.000877  -0.087125  -0.152628  0.000671  3.97394  0.001
C  C149  1  0.42446282  0.92689292  0.75034134  1  -0.02643  0.000877  -0.086958  -0.152325  0.000672  3.973715  0.001
C  C150  1  0.90404344  0.89717377  0.81375954  1  0.286249  0.000522  0.09141  0.163479  0.000529  4.02569  0.0
C  C151  1  0.59595777  0.10284260  0.31377413  1  0.285856  0.000521  0.091421  0.163403  0.000528  4.02555  0.0
C  C152  1  0.09595432  0.10284234  0.18622599  1  0.285941  0.000521  0.091395  0.163443  0.000528  4.025181  0.0
C  C153  1  0.40403613  0.89716875  0.68624096  1  0.285997  0.000522  0.091379  0.163414  0.000529  4.025796  0.0
C  C154  1  0.83404977  0.92723702  0.85091032  1  -0.036982  0.000693  -0.097323  -0.178421  0.000418  4.010017  0.0
C  C155  1  0.66594823  0.07277818  0.35091973  1  -0.03757  0.000693  -0.097357  -0.178251  0.000417  4.009573  0.0
C  C156  1  0.16594404  0.07277899  0.14907807  1  -0.037433  0.000693  -0.097327  -0.178261  0.000417  4.009817  0.0
C  C157  1  0.33405111  0.92723798  0.64909106  1  -0.03672  0.000693  -0.097298  -0.178464  0.000418  4.010109  0.0
C  C158  1  0.78390039  0.98615242  0.82384500  1  -0.021265  0.000112  -0.085829  -0.109322  -4.3e-05  3.965812  0.0
C  C159  1  0.71609978  0.01385548  0.32384960  1  -0.021064  0.000112  -0.085769  -0.109308  -4.3e-05  3.965275  0.0
C  C160  1  0.21609592  0.01385743  0.17614387  1  -0.02112  0.000112  -0.085785  -0.109355  -4.3e-05  3.965349  0.0
C  C161  1  0.28389468  0.98614731  0.67616072  1  -0.021157  0.000112  -0.085843  -0.109214  -4.3e-05  3.966058  0.0
C  C162  1  0.98813159  0.76967823  0.80992123  1  0.259871  0.000527  -0.002974  -0.106367  5e-05  3.91091  0.0
C  C163  1  0.51186169  0.23033943  0.30994404  1  0.259931  0.00053  -0.003241  -0.106279  5.2e-05  3.910566  0.0
C  C164  1  0.01183595  0.23032694  0.19005762  1  0.23565  0.000542  -0.003069  -0.10606  5.2e-05  3.910957  0.0
C  C165  1  0.48813601  0.76967980  0.69008106  1  0.235176  0.00054  -0.002953  -0.106235  5e-05  3.910946  0.0
C  C166  1  0.04766211  0.74023324  0.85317597  1  0.388156  0.006252  0.005506  -0.00865  0.004249  3.953733  0.005
C  C167  1  0.45231636  0.25976878  0.35320282  1  0.386723  0.006262  0.005467  -0.008612  0.004255  3.953554  0.005
C  C168  1  0.95229234  0.25975445  0.14680193  1  0.408997  0.006247  0.005414  -0.008651  0.004253  3.953951  0.005
C  C169  1  0.54766862  0.74023376  0.64682562  1  0.412258  0.00624  0.005469  -0.008825  0.004249  3.953752  0.005
C  C170  1  0.99906505  0.84901722  0.90239649  1  0.969812  0.013762  0.143104  0.09585  0.011783  3.917985  0.01
C  C171  1  0.50091547  0.15097715  0.40241741  1  0.970076  0.013773  0.143135  0.095786  0.011795  3.918382  0.01
C  C172  1  0.00091209  0.15098198  0.09758284  1  0.969914  0.013769  0.143117  0.09595  0.011793  3.91828  0.01
C  C173  1  0.49906501  0.84901281  0.59760435  1  0.96956  0.013765  0.143102  0.095725  0.011785  3.917967  0.01
C  C174  1  0.12578855  0.22255728  0.56981656  1  1.592278  0.019336  0.22751  0.598603  0.018279  4.169824  0.016
C  C175  1  0.37431491  0.77750678  0.06983689  1  1.592971  0.01932  0.226867  0.597991  0.018279  4.170329  0.016
C  C176  1  0.87429340  0.77749928  0.43016039  1  1.593661  0.019315  0.226952  0.597955  0.018274  4.169991  0.016
C  C177  1  0.62578647  0.22254642  0.93018630  1  1.59294  0.019339  0.227417  0.598471  0.018285  4.170127  0.016
C  C178  1  0.09498216  0.29505123  0.60843340  1  -0.007571  0.003334  -0.009085  -0.026364  0.002001  3.944051  0.002
C  C179  1  0.40510113  0.70498943  0.10844697  1  -0.007314  0.003334  -0.008751  -0.025666  0.002005  3.943657  0.002
C  C180  1  0.90508833  0.70498478  0.39154975  1  -0.007991  0.003336  -0.008754  -0.025675  0.002004  3.943541  0.002
C  C181  1  0.59497621  0.29503977  0.89157479  1  -0.0077  0.003333  -0.009075  -0.026222  0.002  3.944019  0.002
C  C182  1  0.18253881  0.39080935  0.63192072  1  -0.000582  0.005457  -0.077863  -0.077286  0.004025  3.943648  0.003
C  C183  1  0.31750838  0.60923606  0.13191586  1  0.003038  0.005455  -0.078206  -0.077813  0.004025  3.942639  0.003
C  C184  1  0.81750359  0.60922822  0.36807864  1  0.002215  0.005451  -0.078171  -0.077679  0.004022  3.942733  0.003
C  C185  1  0.68253885  0.39079698  0.86808922  1  0.001116  0.00546  -0.077866  -0.077248  0.004028  3.943419  0.003
C  C186  1  0.15320611  0.45413935  0.67096278  1  -0.060197  -0.000796  -0.083242  -0.094722  -0.000949  3.985253  -0.001
C  C187  1  0.34681240  0.54587309  0.17096362  1  -0.028434  -0.000792  -0.083417  -0.095047  -0.000947  3.985062  -0.001
C  C188  1  0.84681778  0.54587437  0.32903181  1  -0.041245  -0.000792  -0.083463  -0.095235  -0.000947  3.985055  -0.001
C  C189  1  0.65321536  0.45412440  0.82904431  1  -0.027314  -0.000795  -0.083219  -0.09454  -0.000949  3.98544  -0.001
C  C190  1  0.03512859  0.42121089  0.68543150  1  -0.23384  0.005422  -0.024891  -0.091624  0.004218  4.005091  0.003
C  C191  1  0.46488231  0.57878597  0.18543599  1  -0.235416  0.005416  -0.024854  -0.091267  0.004213  4.005117  0.003
C  C192  1  0.96489192  0.57879418  0.31456595  1  -0.235621  0.005412  -0.02476  -0.09104  0.00421  4.004715  0.003
C  C193  1  0.53513917  0.42120979  0.81458101  1  -0.234254  0.005428  -0.024936  -0.091737  0.004222  4.005087  0.003
C  C194  1  0.94626782  0.32716246  0.66119364  1  0.011614  2.5e-05  -0.083302  -0.086737  -9.8e-05  3.97149  0.0
C  C195  1  0.55376586  0.67282482  0.16121623  1  0.011894  2.5e-05  -0.083354  -0.087035  -9.9e-05  3.971465  0.0
C  C196  1  0.05376946  0.67283373  0.33878760  1  0.012281  2.5e-05  -0.083315  -0.086967  -9.9e-05  3.971409  0.0
C  C197  1  0.44627014  0.32715577  0.83881602  1  0.012041  2.5e-05  -0.083335  -0.086875  -9.9e-05  3.971648  0.0
C  C198  1  0.97708535  0.26426081  0.62280996  1  -0.070979  0.004622  -0.076843  -0.07954  0.003401  3.939472  0.003
C  C199  1  0.52297741  0.73575868  0.12283590  1  -0.068921  0.004621  -0.076834  -0.079569  0.003401  3.940182  0.003
C  C200  1  0.02297122  0.73575926  0.37716985  1  -0.069697  0.004619  -0.076857  -0.079599  0.003399  3.940197  0.003
C  C201  1  0.47708859  0.26426476  0.87719968  1  -0.07148  0.004623  -0.076863  -0.079555  0.003402  3.94006  0.003
C  C202  1  0.96798242  0.58471057  0.68991572  1  -0.300763  0.005984  -0.022638  -0.085516  0.004643  3.997096  0.004
C  C203  1  0.53199829  0.41527407  0.18992103  1  -0.299357  0.005959  -0.022657  -0.085453  0.004624  3.99703  0.004
C  C204  1  0.03201058  0.41528597  0.31008029  1  -0.300123  0.005957  -0.022674  -0.08566  0.004622  3.997284  0.004
C  C205  1  0.46800327  0.58470946  0.81007641  1  -0.300357  0.005983  -0.022617  -0.08529  0.004642  3.997063  0.004
C  C206  1  0.06097509  0.67782964  0.66730558  1  0.063209  -0.000953  -0.082788  -0.090492  -0.001147  3.975874  -0.001
C  C207  1  0.43901286  0.32215001  0.16730855  1  0.06285  -0.000945  -0.082697  -0.090367  -0.001138  3.97588  -0.001
C  C208  1  0.93902032  0.32216540  0.33268996  1  0.063454  -0.000945  -0.082799  -0.090552  -0.001137  3.9759  -0.001
C  C209  1  0.56098788  0.67783506  0.83268365  1  0.063232  -0.000952  -0.082722  -0.09048  -0.001146  3.975526  -0.001
C  C210  1  0.03515400  0.74906817  0.63408362  1  -0.081655  0.006111  -0.08039  -0.089954  0.004505  3.957326  0.004
C  C211  1  0.46483784  0.25091738  0.13408511  1  -0.081588  0.006089  -0.080461  -0.090048  0.004488  3.957146  0.004
C  C212  1  0.96483980  0.25092838  0.36591478  1  -0.081779  0.006088  -0.080433  -0.089989  0.004488  3.95722  0.004
C  C213  1  0.53516707  0.74907636  0.86590805  1  -0.081559  0.006112  -0.080416  -0.089936  0.004505  3.956776  0.004
C  C214  1  0.91845009  0.72878092  0.62469655  1  -0.06032  0.00303  -0.009496  -0.027713  0.001274  3.94515  0.001
C  C215  1  0.58155099  0.27121900  0.12469603  1  -0.060356  0.003032  -0.00949  -0.027729  0.00128  3.945157  0.001
C  C216  1  0.08155142  0.27122518  0.37530328  1  -0.060039  0.003032  -0.009431  -0.027477  0.00128  3.945  0.001
C  C217  1  0.41845264  0.72878015  0.87529474  1  -0.060198  0.003033  -0.009517  -0.027614  0.001275  3.944819  0.001
C  C218  1  0.82676875  0.63372590  0.64587517  1  0.048466  0.005884  -0.075642  -0.075207  0.004419  3.921162  0.004
C  C219  1  0.67322164  0.36627323  0.14587925  1  0.048385  0.005868  -0.075661  -0.075183  0.004406  3.921116  0.003
C  C220  1  0.17322802  0.36628008  0.35412180  1  0.048702  0.005867  -0.075682  -0.075344  0.004406  3.92125  0.003
C  C221  1  0.32677927  0.63372352  0.85411677  1  0.048048  0.005882  -0.075696  -0.075268  0.004417  3.921147  0.004
C  C222  1  0.85121561  0.56101158  0.67844209  1  -0.010155  -0.00035  -0.08359  -0.09228  -0.000534  3.98462  -0.001
C  C223  1  0.64876665  0.43897607  0.17844527  1  -0.010647  -0.000356  -0.083547  -0.092432  -0.00054  3.984418  -0.001
C  C224  1  0.14877386  0.43898408  0.32155631  1  -0.010864  -0.000356  -0.083547  -0.092159  -0.00054  3.984698  -0.001
C  C225  1  0.35123634  0.56101529  0.82155218  1  -0.010342  -0.00035  -0.083648  -0.092559  -0.000533  3.984676  -0.001
C  C226  1  0.89166884  0.81061219  0.59388646  1  1.599498  0.028672  0.223129  0.587453  0.027717  4.187662  0.024
C  C227  1  0.60832823  0.18939345  0.09387152  1  1.59931  0.028608  0.223059  0.587396  0.02766  4.188078  0.024
C  C228  1  0.10832471  0.18939681  0.40612768  1  1.599373  0.028606  0.223004  0.587212  0.027661  4.187819  0.024
C  C229  1  0.39166895  0.81061175  0.90611020  1  1.599567  0.028669  0.223131  0.587513  0.027716  4.187936  0.024
S  S230  1  0.99758161  0.49789519  0.73864652  1  2.468329  0.001136  0.470363  0.955878  0.000952  5.755319  0.0
S  S231  1  0.50238458  0.50207957  0.23865199  1  2.467188  0.001133  0.470519  0.956083  0.000948  5.755503  0.0
S  S232  1  0.00241304  0.50209828  0.26134569  1  2.468107  0.001132  0.470544  0.956018  0.000948  5.755615  0.0
S  S233  1  0.49760616  0.49789123  0.76135595  1  2.468379  0.001137  0.470167  0.955497  0.000952  5.756144  0.0
N  N234  1  0.43366209  0.23006403  0.56917774  1  -1.240738  0.050241  -0.344873  -0.313395  0.033558  3.536526  0.012
N  N235  1  0.06634441  0.76994600  0.06920614  1  -1.241149  0.050268  -0.344925  -0.313159  0.033581  3.536185  0.012
N  N236  1  0.56633640  0.76995522  0.43079492  1  -1.241174  0.050266  -0.344812  -0.31297  0.033576  3.536344  0.012
N  N237  1  0.93366014  0.23006642  0.93082372  1  -1.240301  0.05021  -0.344914  -0.313473  0.033555  3.536498  0.012
N  N238  1  0.55421726  0.21396124  0.63926474  1  -1.25664  0.004225  -0.222408  0.017875  0.002396  3.78353  0.002
N  N239  1  0.94578583  0.78605605  0.13928299  1  -1.255992  0.004226  -0.222618  0.017526  0.002397  3.783709  0.002
N  N240  1  0.44578588  0.78606281  0.36071555  1  -1.256606  0.004226  -0.222683  0.0175  0.002397  3.783827  0.002
N  N241  1  0.05421778  0.21396412  0.86073544  1  -1.256639  0.004225  -0.22231  0.017992  0.002396  3.783577  0.002
N  N242  1  0.95724323  0.83880681  0.84158144  1  -1.273044  0.005848  -0.227303  0.006029  0.003676  3.806034  0.004
N  N243  1  0.54274660  0.16120260  0.34160038  1  -1.272979  0.005854  -0.227312  0.005633  0.003681  3.805819  0.004
N  N244  1  0.04273689  0.16120182  0.15840218  1  -1.273021  0.005853  -0.227291  0.005654  0.00368  3.80567  0.004
N  N245  1  0.45724534  0.83880791  0.65842233  1  -1.273493  0.005849  -0.227304  0.006084  0.003676  3.805945  0.004
N  N246  1  0.05473905  0.79087281  0.91068644  1  -1.261006  0.052753  -0.347968  -0.304265  0.033987  3.523456  0.011
N  N247  1  0.44522905  0.20910865  0.41071012  1  -1.26087  0.052819  -0.34796  -0.304246  0.03399  3.524057  0.011
N  N248  1  0.94522184  0.20910883  0.08929051  1  -1.261682  0.052823  -0.347976  -0.30437  0.033987  3.524406  0.011
N  N249  1  0.55474407  0.79087410  0.58931640  1  -1.260844  0.052766  -0.348004  -0.304176  0.033984  3.523521  0.011
N  N250  1  0.22048429  0.95685559  0.49922613  1  0.499828  0.024419  -0.033479  0.219893  0.017266  3.404683  0.018
N  N251  1  0.27949034  0.04306650  0.99920658  1  0.498963  0.024346  -0.033737  0.219401  0.017209  3.405348  0.018
N  N252  1  0.77948076  0.04307481  0.50079182  1  0.498974  0.024352  -0.033765  0.219325  0.017212  3.405165  0.018
N  N253  1  0.72048260  0.95684467  0.00077085  1  0.499531  0.024429  -0.033405  0.219988  0.017272  3.404642  0.018
O  O254  1  0.22605680  0.26373500  0.54241342  1  -1.214661  0.061685  -0.308806  -0.575095  0.043491  2.361925  0.032
O  O255  1  0.27407022  0.73631924  0.04240472  1  -1.214556  0.06158  -0.308712  -0.575102  0.043449  2.362349  0.032
O  O256  1  0.77403806  0.73630791  0.45758499  1  -1.214451  0.061582  -0.308799  -0.575145  0.043449  2.362113  0.032
O  O257  1  0.72604401  0.26372343  0.95759607  1  -1.215082  0.061705  -0.308789  -0.5751  0.043501  2.362273  0.032
O  O258  1  0.05150746  0.12608049  0.56805148  1  -1.1952  0.055036  -0.299684  -0.553267  0.038965  2.309609  0.022
O  O259  1  0.44861471  0.87397705  0.06808028  1  -1.196243  0.055171  -0.299227  -0.552967  0.038999  2.309667  0.022
O  O260  1  0.94859445  0.87396572  0.43192309  1  -1.196405  0.055153  -0.299213  -0.552893  0.038996  2.309681  0.022
O  O261  1  0.55150968  0.12607211  0.93194577  1  -1.19537  0.055028  -0.299638  -0.553198  0.038963  2.309515  0.022
O  O262  1  0.10185463  0.56138405  0.77597320  1  -1.303032  0.000466  -0.306477  -0.519524  0.00023  2.209103  0.0
O  O263  1  0.39809930  0.43858673  0.27596653  1  -1.302793  0.000465  -0.306494  -0.519506  0.00023  2.209097  0.0
O  O264  1  0.89813932  0.43860473  0.22402616  1  -1.303182  0.000464  -0.306547  -0.519579  0.000229  2.209464  0.0
O  O265  1  0.60188092  0.56137677  0.72403187  1  -1.303099  0.000466  -0.306221  -0.519231  0.00023  2.209404  0.0
O  O266  1  0.88921614  0.42768067  0.77062440  1  -1.308446  0.000351  -0.311271  -0.522824  0.000163  2.20375  0.0
O  O267  1  0.61074485  0.57227412  0.27064713  1  -1.30802  0.000351  -0.311299  -0.52295  0.000162  2.203899  0.0
O  O268  1  0.11078438  0.57229584  0.22936590  1  -1.308519  0.00035  -0.311274  -0.522781  0.000162  2.203639  0.0
O  O269  1  0.38924306  0.42767947  0.72937654  1  -1.308216  0.000351  -0.311359  -0.522797  0.000163  2.204044  0.0
O  O270  1  0.97872724  0.89438404  0.57447652  1  -1.202458  0.068748  -0.310442  -0.564877  0.048079  2.336166  0.031
O  O271  1  0.52128047  0.10562554  0.07446991  1  -1.202421  0.068686  -0.310268  -0.564587  0.048027  2.336448  0.031
O  O272  1  0.02126912  0.10562270  0.42552713  1  -1.202627  0.068694  -0.310247  -0.56461  0.048024  2.33622  0.031
O  O273  1  0.47872778  0.89437997  0.92552372  1  -1.202328  0.068741  -0.310364  -0.564826  0.04808  2.336326  0.031
O  O274  1  0.78461531  0.79094111  0.59062661  1  -1.196112  0.068076  -0.311595  -0.545781  0.046045  2.354464  0.033
O  O275  1  0.71539506  0.20909209  0.09059381  1  -1.196075  0.068243  -0.311509  -0.545679  0.046153  2.35472  0.033
O  O276  1  0.21538989  0.20909856  0.40941137  1  -1.195918  0.068237  -0.311489  -0.545591  0.046148  2.354735  0.033
O  O277  1  0.28461550  0.79093605  0.90936740  1  -1.19602  0.068046  -0.311541  -0.545839  0.046032  2.354619  0.033
O  O278  1  0.19211930  0.03401109  0.49570397  1  -0.708453  0.094029  -0.176885  -0.41611  0.070554  2.417823  0.038
O  O279  1  0.30778002  0.96586141  0.99572778  1  -0.707641  0.093862  -0.17675  -0.415746  0.070524  2.417106  0.038
O  O280  1  0.80778451  0.96587794  0.50426916  1  -0.707195  0.093838  -0.176796  -0.415687  0.070521  2.416905  0.038
O  O281  1  0.69211368  0.03399855  0.00429493  1  -0.708142  0.094032  -0.177015  -0.41624  0.070557  2.417816  0.038
O  O282  1  0.32829955  0.98688583  0.50061004  1  -0.61026  0.027774  -0.156059  -0.359985  0.02081  2.208513  0.019
O  O283  1  0.17169007  0.01310417  0.00060142  1  -0.609815  0.027692  -0.156107  -0.360084  0.020752  2.208974  0.019
O  O284  1  0.67167941  0.01310098  0.49940219  1  -0.610156  0.027699  -0.155991  -0.359969  0.020754  2.208973  0.019
O  O285  1  0.82829964  0.98687904  0.99938983  1  -0.610292  0.02778  -0.156003  -0.359928  0.020814  2.208556  0.019
O  O286  1  0.40949615  0.40200493  0.47709755  1  -1.234363  0.035637  -0.569049  -0.731511  0.02553  1.980112  0.02
O  O287  1  0.09069232  0.59848378  0.97704442  1  -1.233947  0.036072  -0.568832  -0.731523  0.025875  1.982435  0.02
O  O288  1  0.59067281  0.59845242  0.52295615  1  -1.234036  0.036042  -0.568784  -0.731466  0.025846  1.982201  0.02
O  O289  1  0.90949524  0.40203322  0.02289439  1  -1.23363  0.035593  -0.569011  -0.731573  0.025507  1.979631  0.02
