# generated using pymatgen
data_Cu2H22C36N4O9
_symmetry_space_group_name_H-M   'P 1'
_cell_length_a   11.39899294
_cell_length_b   12.77742552
_cell_length_c   14.76244890
_cell_angle_alpha   80.08753556
_cell_angle_beta   67.29279850
_cell_angle_gamma   63.51624004
_symmetry_Int_Tables_number   1
_chemical_formula_structural   Cu2H22C36N4O9
_chemical_formula_sum   'Cu4 H44 C72 N8 O18'
_cell_volume   1775.34292668
_cell_formula_units_Z   2
loop_
 _symmetry_equiv_pos_site_id
 _symmetry_equiv_pos_as_xyz
  1  'x, y, z'
loop_
 _atom_site_type_symbol
 _atom_site_label
 _atom_site_symmetry_multiplicity
 _atom_site_fract_x
 _atom_site_fract_y
 _atom_site_fract_z
 _atom_site_occupancy
 _atom_site_pbe_bader_charge
 _atom_site_pbe_bader_spin_density
 _atom_site_pbe_cm5_charge
 _atom_site_pbe_ddec_charge
 _atom_site_pbe_ddec_spin_density
 _atom_site_pbe_ddec_sum_bond_order
 _atom_site_pbe_magmom
Cu  Cu0  1  0.65769216  0.65929187  0.01331353  1  1.036348  0.544971  0.721111  0.72466  0.723469  2.150095  0.544
Cu  Cu1  1  0.33018724  0.34076738  0.98657798  1  1.033604  0.545292  0.720462  0.722751  0.723831  2.151688  0.545
Cu  Cu2  1  0.42097752  0.15921829  0.48667554  1  1.032277  -0.542204  0.720693  0.722869  -0.762331  2.152787  -0.542
Cu  Cu3  1  0.06685838  0.84073718  0.51341108  1  1.034549  0.542499  0.720671  0.723464  0.719638  2.153127  0.542
H  H4  1  0.43318812  0.60028654  0.00695376  1  0.170092  0.00167  0.115899  0.094806  0.000767  1.069119  0.001
H  H5  1  0.04029372  0.39968812  0.99301711  1  0.168925  0.001668  0.11606  0.095013  0.00076  1.069929  0.001
H  H6  1  0.19007187  0.10032140  0.49309009  1  0.178699  -0.001661  0.115801  0.094621  -0.000798  1.070028  -0.001
H  H7  1  0.78349866  0.89974392  0.50687715  1  0.1435  0.001688  0.115541  0.094399  0.000758  1.069928  0.001
H  H8  1  0.29957531  0.63907655  0.90098473  1  0.146404  0.000914  0.112294  0.134505  0.000497  1.025261  0.001
H  H9  1  0.83951326  0.36094693  0.09910644  1  0.144971  0.00085  0.112675  0.135282  0.000446  1.027921  0.001
H  H10  1  0.95049297  0.13914966  0.59908252  1  0.134444  -0.000825  0.112079  0.134521  -0.000448  1.024959  -0.001
H  H11  1  0.68878171  0.86081321  0.40091059  1  0.155981  0.000871  0.112799  0.13568  0.000473  1.026627  0.001
H  H12  1  0.52360830  0.84371820  0.71530580  1  0.139197  0.000904  0.10707  0.122785  0.000493  1.045793  0.001
H  H13  1  0.08254294  0.15651243  0.28480162  1  0.145138  0.000771  0.106781  0.122708  0.000401  1.045231  0.001
H  H14  1  0.98897918  0.34373400  0.78475140  1  0.142534  -0.000809  0.106802  0.122577  -0.000442  1.045765  -0.001
H  H15  1  0.11746019  0.65620869  0.21530922  1  0.14262  0.000866  0.106861  0.122254  0.000477  1.045971  0.001
H  H16  1  0.65544348  0.78857835  0.82778909  1  0.135788  0.001557  0.114959  0.092285  0.000738  1.046705  0.002
H  H17  1  0.27166042  0.21164576  0.17221204  1  0.15172  0.001524  0.114509  0.091708  0.000676  1.046817  0.002
H  H18  1  0.23330808  0.28848692  0.67227125  1  0.128214  -0.001499  0.115238  0.092901  -0.000692  1.046378  -0.002
H  H19  1  0.19405869  0.71149003  0.32778297  1  0.149963  0.001575  0.115594  0.092514  0.000766  1.045393  0.002
H  H20  1  0.02178004  0.77663602  0.72207243  1  0.152316  0.001555  0.117034  0.096139  0.000786  1.041577  0.002
H  H21  1  0.52036014  0.22342699  0.27811275  1  0.156041  -0.001403  0.117454  0.096231  -0.000646  1.040462  -0.002
H  H22  1  0.49387887  0.27659496  0.77792060  1  0.129788  0.001463  0.11717  0.095939  0.00061  1.040899  0.002
H  H23  1  0.54849514  0.72342143  0.22195431  1  0.132188  0.001565  0.117022  0.095231  0.000769  1.041294  0.002
H  H24  1  0.14823986  0.73004681  0.83669718  1  0.127679  0.000911  0.111915  0.129236  0.000503  1.018004  0.001
H  H25  1  0.71480153  0.27003067  0.16342706  1  0.1169  -0.000871  0.111254  0.12873  -0.000471  1.018385  -0.001
H  H26  1  0.73496120  0.23009383  0.66329237  1  0.119858  0.000865  0.11204  0.129755  0.000453  1.018495  0.001
H  H27  1  0.62841708  0.76979976  0.33665009  1  0.129019  0.000932  0.111294  0.129507  0.000502  1.018084  0.001
H  H28  1  0.45440340  0.83391145  0.60659430  1  0.104809  0.000901  0.115462  0.13761  0.000458  1.002482  0.001
H  H29  1  0.89485592  0.16607916  0.39346372  1  0.102867  -0.000821  0.116024  0.138465  -0.000422  1.000958  -0.001
H  H30  1  0.81089738  0.33399043  0.89345752  1  0.109599  0.000907  0.11584  0.138101  0.000487  1.002829  0.001
H  H31  1  0.03845272  0.66583958  0.10660168  1  0.101549  0.000989  0.11572  0.137936  0.000547  1.001712  0.001
H  H32  1  0.32143013  0.86697334  0.50125053  1  0.178168  0.00158  0.116287  0.096861  0.000707  1.067808  0.001
H  H33  1  0.68967261  0.13301133  0.49885473  1  0.158044  -0.001599  0.116497  0.097271  -0.000746  1.067012  -0.001
H  H34  1  0.57260641  0.36698870  0.99877456  1  0.153275  0.001621  0.116559  0.097352  0.000727  1.067668  0.001
H  H35  1  0.93855462  0.63288201  0.00119580  1  0.180327  0.001585  0.116486  0.097631  0.000732  1.06768  0.001
H  H36  1  0.48229966  0.56695463  0.33279345  1  0.075261  0.000295  0.113273  0.135605  0.000128  0.984832  0.0
H  H37  1  0.38199199  0.43298214  0.66696039  1  0.077995  0.000142  0.113395  0.135645  3.5e-05  0.983783  0.0
H  H38  1  0.56496680  0.06697394  0.16699800  1  0.090883  0.000158  0.113431  0.136569  9e-05  0.98437  0.0
H  H39  1  0.79904207  0.93300451  0.83304570  1  0.065022  -3.6e-05  0.113134  0.135267  -1.1e-05  0.984131  0.0
H  H40  1  0.21358122  0.35897618  0.31369442  1  0.09639  0.000235  0.108421  0.117574  6.3e-05  0.981281  0.0
H  H41  1  0.88613189  0.64103690  0.68622017  1  0.083183  0.000242  0.107542  0.115872  0.000123  0.981926  0.0
H  H42  1  0.27697647  0.85897927  0.18641166  1  0.09647  5e-06  0.107933  0.116671  2.2e-05  0.982052  0.0
H  H43  1  0.32259251  0.14103059  0.81359953  1  0.089647  0.000163  0.107144  0.115565  0.000119  0.98307  0.0
H  H44  1  0.20851150  0.39378121  0.47519001  1  0.093481  0.000259  0.103653  0.114567  0.000175  1.037374  0.0
H  H45  1  0.07734107  0.60622251  0.52468270  1  0.093397  -5.4e-05  0.103556  0.114862  -8.4e-05  1.037369  0.0
H  H46  1  0.43337533  0.89371575  0.02485512  1  0.083232  -0.000178  0.103181  0.114099  -0.00015  1.036494  0.0
H  H47  1  0.35210886  0.10618274  0.97519003  1  0.101754  -0.000193  0.10368  0.114107  -0.000117  1.036838  0.0
C  C48  1  0.45231741  0.65270934  0.94143741  1  0.466624  -0.000724  0.045705  0.103394  4.7e-05  3.912874  0.0
C  C49  1  0.04634690  0.34733252  0.05855961  1  0.512893  -0.001069  0.044373  0.100526  -0.000153  3.9178  0.0
C  C50  1  0.14371275  0.15271909  0.55862541  1  0.517718  0.00114  0.045627  0.101377  -2.3e-05  3.914371  0.001
C  C51  1  0.85508031  0.84729014  0.44137804  1  0.498936  -0.00075  0.046199  0.103744  5.5e-05  3.916847  0.0
C  C52  1  0.37487625  0.67717553  0.88132391  1  -0.060124  0.004653  -0.077221  -0.160168  0.003219  3.879453  0.004
C  C53  1  0.93326112  0.32289727  0.11874139  1  -0.101878  0.005859  -0.077596  -0.160828  0.003952  3.886825  0.004
C  C54  1  0.00615727  0.17721602  0.61875579  1  -0.098607  -0.005824  -0.077336  -0.159574  -0.004163  3.880214  -0.004
C  C55  1  0.80217007  0.82273990  0.38127478  1  -0.0658  0.004617  -0.077388  -0.16121  0.003187  3.88517  0.004
C  C56  1  0.39691698  0.74739764  0.79774615  1  -0.02103  -0.002636  0.01437  0.105366  -0.001879  3.965969  -0.002
C  C57  1  0.94194863  0.25268850  0.20233112  1  -0.014935  -0.003625  0.015715  0.108056  -0.002587  3.970331  -0.003
C  C58  1  0.94463317  0.24746398  0.70231576  1  -0.025781  0.003669  0.014612  0.105361  0.002468  3.971885  0.003
C  C59  1  0.89443889  0.75246625  0.29773122  1  -0.0406  -0.002569  0.013519  0.104275  -0.001834  3.969855  -0.002
C  C60  1  0.50015850  0.78822136  0.77839921  1  -0.0168  0.005244  -0.081537  -0.165791  0.003671  3.911231  0.004
C  C61  1  0.06667319  0.21196303  0.22168593  1  -0.046488  0.00638  -0.082295  -0.167304  0.00438  3.911018  0.005
C  C62  1  0.02859751  0.28822271  0.72167111  1  -0.055117  -0.006361  -0.081007  -0.165431  -0.004602  3.911866  -0.005
C  C63  1  0.03848676  0.71172850  0.27839095  1  -0.021134  0.005196  -0.081397  -0.165938  0.003605  3.909458  0.004
C  C64  1  0.57432990  0.75888193  0.84141345  1  0.431627  0.000111  0.040728  0.088423  0.000747  3.936377  0.0
C  C65  1  0.17447805  0.24129139  0.15860556  1  0.427383  -0.000106  0.040345  0.087022  0.000587  3.936204  0.0
C  C66  1  0.16577783  0.25883419  0.65865800  1  0.476046  0.000246  0.038965  0.085374  -0.000756  3.936791  0.0
C  C67  1  0.08326159  0.74113744  0.34141228  1  0.430512  8.4e-05  0.039275  0.088094  0.000734  3.935716  0.0
C  C68  1  0.11854966  0.78723679  0.69983432  1  0.416114  -2.5e-05  0.042118  0.088846  0.000609  3.939663  0.0
C  C69  1  0.60556594  0.21274958  0.30029442  1  0.38412  0.000316  0.040479  0.086921  -0.000578  3.940274  0.0
C  C70  1  0.56837125  0.28727447  0.80015157  1  0.491091  -0.000469  0.042083  0.090052  0.000373  3.941308  0.0
C  C71  1  0.65591569  0.71268277  0.19975332  1  0.447887  -0.000113  0.043333  0.092596  0.000594  3.940808  0.0
C  C72  1  0.19015845  0.76273450  0.76383058  1  -0.025133  0.005244  -0.080087  -0.163858  0.003666  3.914675  0.004
C  C73  1  0.71665002  0.23724872  0.23625678  1  0.039981  -0.00623  -0.078893  -0.162978  -0.004608  3.917498  -0.005
C  C74  1  0.70395702  0.26283763  0.73614543  1  -0.070917  0.006436  -0.080876  -0.166746  0.004371  3.919724  0.005
C  C75  1  0.70305373  0.73707712  0.26379674  1  -0.068688  0.005365  -0.081014  -0.168324  0.003714  3.920993  0.004
C  C76  1  0.31548877  0.77652755  0.73262768  1  -0.021061  -0.002827  0.013236  0.103347  -0.002015  3.967247  -0.002
C  C77  1  0.82458831  0.22347851  0.26742968  1  -0.05179  0.003894  0.012762  0.102052  0.002622  3.972924  0.003
C  C78  1  0.79804413  0.27666135  0.76738241  1  -0.038124  -0.00387  0.013559  0.106217  -0.002761  3.970426  -0.003
C  C79  1  0.84214787  0.72328935  0.23263261  1  0.048048  -0.002875  0.01443  0.106709  -0.002054  3.972082  -0.002
C  C80  1  0.36041802  0.81769825  0.63667272  1  0.050401  0.004714  -0.074784  -0.156091  0.003319  3.886502  0.004
C  C81  1  0.81470662  0.18230219  0.36340531  1  0.084946  -0.005707  -0.074987  -0.156092  -0.004238  3.885089  -0.005
C  C82  1  0.74700403  0.31777891  0.86336339  1  0.054337  0.005872  -0.075636  -0.158903  0.004074  3.887693  0.005
C  C83  1  0.92822326  0.68215130  0.13665212  1  0.00318  0.004785  -0.075179  -0.155513  0.003363  3.88362  0.004
C  C84  1  0.28432833  0.83838529  0.57630878  1  0.41463  -0.000779  0.04536  0.101351  -5.9e-05  3.919757  0.0
C  C85  1  0.69896877  0.16160721  0.42380269  1  0.404205  0.000981  0.045625  0.100732  -4e-06  3.918753  0.001
C  C86  1  0.61055449  0.33844947  0.92369757  1  0.443238  -0.000961  0.045601  0.101773  -0.000156  3.919302  0.0
C  C87  1  0.87285025  0.66148243  0.07625563  1  0.415949  -0.000709  0.045433  0.099493  8e-06  3.917553  0.0
C  C88  1  0.42346455  0.52195411  0.32739790  1  0.056312  0.003043  -0.093441  -0.213738  0.00214  3.9427  0.002
C  C89  1  0.27275152  0.47800947  0.67241794  1  -0.010947  0.001822  -0.094973  -0.215601  0.001233  3.944993  0.001
C  C90  1  0.50066783  0.02200491  0.17249177  1  0.007622  -0.001339  -0.094916  -0.218467  -0.000854  3.948623  -0.001
C  C91  1  0.69527507  0.97796976  0.82755905  1  0.055686  0.002788  -0.093681  -0.213295  0.001835  3.945919  0.002
C  C92  1  0.42649311  0.50189568  0.23626268  1  -0.049869  0.011601  -0.005629  -0.015545  0.008137  3.942881  0.009
C  C93  1  0.16463705  0.49805941  0.76356750  1  -0.039868  0.010982  -0.005195  -0.014716  0.007697  3.944262  0.008
C  C94  1  0.41268555  0.00192394  0.26365292  1  -0.014844  -0.003849  -0.005447  -0.013666  -0.003301  3.942206  -0.004
C  C95  1  0.67836565  0.99808421  0.73638507  1  -0.06305  0.003713  -0.00389  -0.012846  0.002928  3.943657  0.004
C  C96  1  0.34847574  0.44463113  0.23097451  1  0.017113  0.010925  -0.017456  -0.065843  0.007802  3.953645  0.008
C  C97  1  0.02404717  0.55541138  0.76888491  1  -0.001495  0.012532  -0.018462  -0.068604  0.008886  3.955144  0.009
C  C98  1  0.32934615  0.94461953  0.26902876  1  -0.019421  0.003602  -0.017395  -0.067493  0.00292  3.955639  0.004
C  C99  1  0.54314342  0.05534749  0.73099642  1  0.042699  -0.004735  -0.018277  -0.069438  -0.004008  3.956864  -0.004
C  C100  1  0.27122738  0.40598073  0.31743241  1  -0.011152  0.002502  -0.081967  -0.067523  0.001634  3.989594  0.001
C  C101  1  0.99453266  0.59402202  0.68244885  1  0.032372  0.002244  -0.080258  -0.063047  0.001558  3.986639  0.001
C  C102  1  0.33843766  0.90593922  0.18262639  1  0.007926  0.002921  -0.081634  -0.065944  0.001937  3.990388  0.002
C  C103  1  0.42719017  0.09397811  0.81740970  1  -0.04747  -0.002792  -0.081416  -0.06514  -0.001908  3.98902  -0.002
C  C104  1  0.26899473  0.42451772  0.40850331  1  -0.058239  0.002366  -0.108675  -0.230805  0.001699  4.045208  0.001
C  C105  1  0.10190403  0.57545298  0.59135545  1  -0.040783  0.003571  -0.10726  -0.229749  0.002284  4.041733  0.002
C  C106  1  0.42719198  0.92449000  0.09151877  1  -0.056928  -0.005427  -0.108406  -0.229838  -0.003857  4.040327  -0.003
C  C107  1  0.44336155  0.07540345  0.90852948  1  -0.004986  0.003593  -0.108214  -0.229712  0.002245  4.041648  0.003
C  C108  1  0.34471986  0.48329572  0.41305742  1  0.379496  0.003377  0.082649  0.256395  0.002234  4.057033  0.002
C  C109  1  0.24097388  0.51678757  0.58678439  1  0.394349  0.002845  0.083829  0.256987  0.001886  4.057327  0.002
C  C110  1  0.50753474  0.98322602  0.08690581  1  0.401491  0.003973  0.084728  0.259085  0.002652  4.058414  0.003
C  C111  1  0.57781121  0.01663137  0.91316015  1  0.363497  -0.004033  0.082981  0.256295  -0.002914  4.061344  -0.003
C  C112  1  0.52372196  0.53147509  0.14347003  1  1.570142  -0.000832  0.203846  0.558081  0.000456  4.227845  -0.003
C  C113  1  0.19870601  0.46842110  0.85635282  1  1.589234  -0.000832  0.203026  0.558811  0.000454  4.229849  -0.003
C  C114  1  0.41721485  0.03143272  0.35644155  1  1.570622  0.001284  0.204641  0.559961  -0.000498  4.226059  0.003
C  C115  1  0.80524231  0.96853927  0.64363699  1  1.577666  -0.001229  0.203513  0.557366  0.000176  4.226852  -0.003
C  C116  1  0.33797897  0.43381425  0.13495017  1  1.553574  -0.00118  0.200573  0.559535  0.000106  4.232495  -0.003
C  C117  1  0.90678534  0.56631657  0.86498998  1  1.5591  -0.001147  0.200216  0.560004  9.7e-05  4.232773  -0.003
C  C118  1  0.22291763  0.93384221  0.36510487  1  1.555029  -0.001651  0.199657  0.559223  -0.000193  4.234883  -0.003
C  C119  1  0.52196683  0.06621894  0.63491354  1  1.551482  0.001607  0.200005  0.561426  -0.000114  4.232029  0.003
N  N120  1  0.55073431  0.69260588  0.92250939  1  -1.233311  0.08065  -0.347526  -0.235536  0.05538  3.597173  0.07
N  N121  1  0.16572993  0.30745694  0.07745933  1  -1.23212  0.081588  -0.34592  -0.231317  0.056072  3.597485  0.071
N  N122  1  0.22322292  0.19260868  0.57753390  1  -1.237303  -0.080904  -0.346447  -0.231772  -0.058894  3.598603  -0.07
N  N123  1  0.99336854  0.80741190  0.42249579  1  -1.23953  0.080136  -0.347626  -0.235736  0.055076  3.601765  0.069
N  N124  1  0.16528032  0.82311048  0.60658704  1  -1.225173  0.079893  -0.346151  -0.233966  0.055004  3.600623  0.069
N  N125  1  0.59490389  0.17690880  0.39354798  1  -1.221146  -0.080632  -0.345152  -0.231155  -0.058766  3.596007  -0.07
N  N126  1  0.52182199  0.32314399  0.89340185  1  -1.222148  0.08121  -0.345594  -0.233135  0.05584  3.598271  0.07
N  N127  1  0.73849606  0.67684529  0.10649871  1  -1.214282  0.080268  -0.345546  -0.233506  0.05522  3.595881  0.07
O  O128  1  0.50273240  0.64018943  0.13032464  1  -1.100701  0.112886  -0.317778  -0.530052  0.074401  2.345732  0.102
O  O129  1  0.27322757  0.35970232  0.86950012  1  -1.113743  0.112531  -0.317431  -0.529788  0.074367  2.345691  0.101
O  O130  1  0.38306980  0.14014709  0.36960536  1  -1.097451  -0.110868  -0.317449  -0.529422  -0.077635  2.342546  -0.1
O  O131  1  0.89281582  0.85978286  0.63047161  1  -1.113492  0.111057  -0.317831  -0.529302  0.073359  2.343015  0.1
O  O132  1  0.61919113  0.45060807  0.08547233  1  -1.175169  0.001446  -0.306563  -0.543855  0.000562  2.184474  0.002
O  O133  1  0.15538393  0.54926523  0.91436792  1  -1.16873  0.001488  -0.306443  -0.545307  0.000578  2.186208  0.002
O  O134  1  0.45469434  0.95055656  0.41443538  1  -1.172371  -0.001109  -0.306947  -0.545454  -0.000492  2.185018  -0.001
O  O135  1  0.82002335  0.04936895  0.58566091  1  -1.168481  0.001129  -0.306257  -0.544321  0.000357  2.185258  0.001
O  O136  1  0.28677511  0.52486676  0.08957052  1  -1.171206  0.001347  -0.311096  -0.548474  0.000492  2.169298  0.002
O  O137  1  0.90137508  0.47530677  0.91053408  1  -1.169762  0.001101  -0.310438  -0.548127  0.000335  2.169792  0.001
O  O138  1  0.12647218  0.02487698  0.41055521  1  -1.16726  0.001069  -0.310094  -0.547568  0.000334  2.17064  0.001
O  O139  1  0.56207653  0.97521028  0.58937961  1  -1.167617  -0.000824  -0.310099  -0.548029  -0.000322  2.168775  -0.001
O  O140  1  0.38137628  0.32889664  0.10523962  1  -1.099521  0.121502  -0.319694  -0.5262  0.080262  2.304758  0.109
O  O141  1  0.81559444  0.67126346  0.89461700  1  -1.105889  0.121816  -0.320245  -0.527252  0.080523  2.304881  0.11
O  O142  1  0.23668668  0.82890893  0.39480074  1  -1.100388  0.120012  -0.320244  -0.52675  0.079369  2.304773  0.108
O  O143  1  0.46032729  0.17116140  0.60531684  1  -1.103356  -0.119901  -0.32097  -0.528896  -0.083965  2.305215  -0.108
O  O144  1  0.35347067  0.50020074  0.49992641  1  -1.084636  0.00208  -0.153536  -0.207743  0.001187  2.538513  0.002
O  O145  1  0.60339535  0.99982396  0.00003763  1  -1.09154  0.000366  -0.152512  -0.206545  0.000245  2.541062  0.0
