# generated using pymatgen
data_ZnH26C22(N2O3)2
_symmetry_space_group_name_H-M   'P 1'
_cell_length_a   10.79118322
_cell_length_b   11.48961904
_cell_length_c   12.43540000
_cell_angle_alpha   96.81763538
_cell_angle_beta   114.59032254
_cell_angle_gamma   107.48107949
_symmetry_Int_Tables_number   1
_chemical_formula_structural   ZnH26C22(N2O3)2
_chemical_formula_sum   'Zn2 H52 C44 N8 O12'
_cell_volume   1283.36156484
_cell_formula_units_Z   2
loop_
 _symmetry_equiv_pos_site_id
 _symmetry_equiv_pos_as_xyz
  1  'x, y, z'
loop_
 _atom_site_type_symbol
 _atom_site_label
 _atom_site_symmetry_multiplicity
 _atom_site_fract_x
 _atom_site_fract_y
 _atom_site_fract_z
 _atom_site_occupancy
 _atom_site_hle17_bader_spin_density
 _atom_site_hle17_ddec_charge
 _atom_site_hle17_ddec_spin_density
 _atom_site_hle17_ddec_sum_bond_order
 _atom_site_hle17_magmom
 _atom_site_hse06_10hf_bader_spin_density
 _atom_site_hse06_10hf_ddec_charge
 _atom_site_hse06_10hf_ddec_spin_density
 _atom_site_hse06_10hf_ddec_sum_bond_order
 _atom_site_hse06_10hf_magmom
 _atom_site_hse06_bader_spin_density
 _atom_site_hse06_ddec_charge
 _atom_site_hse06_ddec_spin_density
 _atom_site_hse06_ddec_sum_bond_order
 _atom_site_hse06_magmom
 _atom_site_pbe_bader_charge
 _atom_site_pbe_bader_spin_density
 _atom_site_pbe_cm5_charge
 _atom_site_pbe_ddec_charge
 _atom_site_pbe_ddec_spin_density
 _atom_site_pbe_ddec_sum_bond_order
 _atom_site_pbe_magmom
Zn  Zn0  1  0.55271359  0.97536018  0.71498337  1  0  1.017374  0  1.893765  0  0  0.832477  0  2.375295  0  0  0.877227  0  2.320619  0  1.25154  0  0.702093  0.801425  0  2.412877  0
Zn  Zn1  1  0.44728737  0.02464003  0.28501724  1  0  1.017408  0  1.893752  0  0  0.832508  0  2.375276  0  0  0.877261  0  2.320604  0  1.251541  0  0.702109  0.801454  0  2.412859  0
H  H2  1  0.18624287  0.27723863  0.21709218  1  0  0.059507  0  0.917149  0  0  0.074927  0  0.978325  0  0  0.07543  0  0.977652  0  0.039589  0  0.101607  0.074423  0  0.978954  0
H  H3  1  0.81375708  0.72276159  0.78290807  1  0  0.059531  0  0.917141  0  0  0.07495  0  0.978336  0  0  0.075453  0  0.977665  0  0.039576  0  0.101617  0.074446  0  0.978965  0
H  H4  1  0.22743113  0.42532698  0.31479132  1  0  0.049128  0  0.949341  0  0  0.062219  0  1.018356  0  0  0.06063  0  1.021767  0  0.070951  0  0.096685  0.063269  0  1.016027  0
H  H5  1  0.77257069  0.57467514  0.68520900  1  0  0.049159  0  0.949335  0  0  0.062245  0  1.018369  0  0  0.060655  0  1.021779  0  0.070895  0  0.096708  0.063294  0  1.016041  0
H  H6  1  0.86651685  0.38484849  0.65721359  1  0  0.116494  0  0.94537  0  0  0.129961  0  0.999199  0  0  0.132704  0  0.998185  0  0.101956  0  0.125482  0.127983  0  1.000023  0
H  H7  1  0.13348395  0.61515363  0.34278717  1  0  0.116485  0  0.945395  0  0  0.129933  0  0.999245  0  0  0.132677  0  0.998229  0  0.101954  0  0.125465  0.127954  0  1.000069  0
H  H8  1  0.58526373  0.21507710  0.59621318  1  0  0.114983  0  0.970998  0  0  0.122096  0  1.033357  0  0  0.124162  0  1.032871  0  0.146527  0  0.12073  0.120454  0  1.034055  0
H  H9  1  0.41473375  0.78492216  0.40378687  1  0  0.115034  0  0.971047  0  0  0.122178  0  1.033359  0  0  0.124246  0  1.032867  0  0.146584  0  0.120759  0.120536  0  1.034057  0
H  H10  1  0.82913711  0.96357309  0.80941816  1  0  0.137422  0  0.956442  0  0  0.155908  0  1.018494  0  0  0.158383  0  1.016987  0  0.095205  0  0.102642  0.15408  0  1.019582  0
H  H11  1  0.17086284  0.03642712  0.19058128  1  0  0.137434  0  0.956417  0  0  0.155919  0  1.018472  0  0  0.158394  0  1.016966  0  0.095211  0  0.102647  0.154091  0  1.01956  0
H  H12  1  0.98732613  0.09917434  0.92369362  1  0  0.142278  0  0.932243  0  0  0.158987  0  0.992536  0  0  0.162006  0  0.99095  0  0.05427  0  0.102292  0.156759  0  0.993773  0
H  H13  1  0.01267338  0.90082492  0.07630637  1  0  0.142287  0  0.932203  0  0  0.158995  0  0.992501  0  0  0.162013  0  0.990915  0  0.054284  0  0.102305  0.156767  0  0.993737  0
H  H14  1  0.98723571  0.02656065  0.78937659  1  0  0.118808  0  0.949878  0  0  0.134981  0  1.018617  0  0  0.13694  0  1.018216  0  0.033974  0  0.095145  0.13357  0  1.018972  0
H  H15  1  0.01276483  0.97343861  0.21062376  1  0  0.118813  0  0.949872  0  0  0.134987  0  1.018609  0  0  0.136945  0  1.01821  0  0.033977  0  0.095148  0.133576  0  1.018965  0
H  H16  1  0.12070371  0.35618751  0.74525586  1  0  0.084474  0  0.901781  0  0  0.106145  0  0.952974  0  0  0.106052  0  0.953142  0  0.07473  0  0.121485  0.106085  0  0.953025  0
H  H17  1  0.87929682  0.64381175  0.25474369  1  0  0.084466  0  0.901785  0  0  0.106127  0  0.952972  0  0  0.106033  0  0.953144  0  0.074728  0  0.12149  0.106067  0  0.953024  0
H  H18  1  0.13632882  0.23590156  0.82114351  1  0  0.086585  0  0.915651  0  0  0.105062  0  0.974375  0  0  0.105274  0  0.975083  0  0.097245  0  0.120189  0.104673  0  0.974218  0
H  H19  1  0.86367069  0.76409770  0.17885648  1  0  0.086537  0  0.915669  0  0  0.104985  0  0.974412  0  0  0.105219  0  0.975098  0  0.097249  0  0.120167  0.104599  0  0.974257  0
H  H20  1  0.27339160  0.45684131  0.96533324  1  0  0.049274  0  0.907953  0  0  0.067796  0  0.963241  0  0  0.068429  0  0.962292  0  0.014923  0  0.101406  0.067124  0  0.964184  0
H  H21  1  0.72660690  0.54315796  0.03466557  1  0  0.049298  0  0.90791  0  0  0.067794  0  0.963232  0  0  0.068425  0  0.962284  0  0.014926  0  0.101404  0.067123  0  0.964175  0
H  H22  1  0.10298961  0.47889706  0.91563653  1  0  0.051793  0  0.933453  0  0  0.062786  0  1.006281  0  0  0.06392  0  1.004954  0  0.049201  0  0.09866  0.061797  0  1.007447  0
H  H23  1  0.89700991  0.52110220  0.08436346  1  0  0.051779  0  0.933478  0  0  0.062776  0  1.006309  0  0  0.06391  0  1.004981  0  0.0492  0  0.098666  0.061788  0  1.007474  0
H  H24  1  0.14622665  0.50758465  0.12659749  1  0  0.045822  0  0.937897  0  0  0.057407  0  1.009417  0  0  0.05773  0  1.009471  0  0.034815  0  0.095524  0.057036  0  1.009634  0
H  H25  1  0.85377431  0.49241556  0.87340232  1  0  0.045825  0  0.93793  0  0  0.057402  0  1.009447  0  0  0.057726  0  1.009503  0  0.034813  0  0.09551  0.057029  0  1.009664  0
H  H26  1  0.31053977  0.47643638  0.17149230  1  0  0.057243  0  0.913629  0  0  0.073749  0  0.972275  0  0  0.073338  0  0.972912  0  0.087051  0  0.102628  0.073955  0  0.971971  0
H  H27  1  0.68946119  0.52356383  0.82850832  1  0  0.057251  0  0.913555  0  0  0.073751  0  0.972196  0  0  0.07334  0  0.972832  0  0.087068  0  0.102614  0.073955  0  0.971892  0
H  H28  1  0.57775220  0.81380752  0.91001206  1  0  0.116875  0  0.962436  0  0  0.126236  0  1.02123  0  0  0.129331  0  1.019022  0  0.154887  0  0.116758  0.123924  0  1.022982  0
H  H29  1  0.42224732  0.18619174  0.08998953  1  0  0.116906  0  0.962399  0  0  0.126273  0  1.021186  0  0  0.129369  0  1.018976  0  0.15484  0  0.116753  0.123958  0  1.022939  0
H  H30  1  0.70646759  0.93524965  0.16210813  1  0  0.114428  0  0.964954  0  0  0.124383  0  1.02668  0  0  0.126429  0  1.026527  0  0.127509  0  0.120409  0.122783  0  1.027108  0
H  H31  1  0.29353380  0.06475151  0.83789355  1  0  0.11444  0  0.964978  0  0  0.124393  0  1.026699  0  0  0.126439  0  1.026546  0  0.127232  0  0.120411  0.122797  0  1.027129  0
H  H32  1  0.81038735  0.28768319  0.95844827  1  0  0.134958  0  0.944882  0  0  0.148485  0  1.015239  0  0  0.151741  0  1.013176  0  0.075898  0  0.097129  0.146148  0  1.016896  0
H  H33  1  0.18961217  0.71231608  0.04155011  1  0  0.134936  0  0.94494  0  0  0.148475  0  1.015282  0  0  0.15173  0  1.01322  0  0.075831  0  0.097126  0.146139  0  1.016936  0
H  H34  1  0.69171788  0.30762911  0.01697224  1  0  0.117082  0  0.952282  0  0  0.136342  0  1.015014  0  0  0.138251  0  1.014193  0  0.028297  0  0.09623  0.135022  0  1.015535  0
H  H35  1  0.30828061  0.69237015  0.98302577  1  0  0.117079  0  0.952285  0  0  0.136345  0  1.015012  0  0  0.13825  0  1.014197  0  0.028277  0  0.096231  0.135024  0  1.015534  0
H  H36  1  0.61446162  0.22733198  0.85805181  1  0  0.145129  0  0.97694  0  0  0.162649  0  1.039307  0  0  0.165731  0  1.037199  0  0.149707  0  0.09894  0.160433  0  1.040798  0
H  H37  1  0.38553704  0.77266537  0.14194686  1  0  0.145139  0  0.976963  0  0  0.162634  0  1.039349  0  0  0.165717  0  1.037244  0  0.149723  0  0.098937  0.160419  0  1.040842  0
H  H38  1  0.76855814  0.15933348  0.27637499  1  0  0.100927  0  0.941388  0  0  0.112932  0  1.008072  0  0  0.113876  0  1.007881  0  0.105469  0  0.117907  0.112186  0  1.008291  0
H  H39  1  0.23144223  0.84066768  0.72362551  1  0  0.100948  0  0.941337  0  0  0.112923  0  1.008062  0  0  0.113868  0  1.00787  0  0.105503  0  0.11791  0.112179  0  1.008278  0
H  H40  1  0.75591401  0.27566695  0.19722208  1  0  0.096009  0  0.913503  0  0  0.114053  0  0.967685  0  0  0.115068  0  0.966758  0  0.101481  0  0.119018  0.11324  0  0.968469  0
H  H41  1  0.24408594  0.72433326  0.80277736  1  0  0.095987  0  0.9135  0  0  0.114041  0  0.96767  0  0  0.115057  0  0.966744  0  0.101491  0  0.11902  0.113227  0  0.968455  0
H  H42  1  0.01802758  0.31786924  0.35917813  1  0  0.048298  0  0.909727  0  0  0.065399  0  0.967637  0  0  0.065822  0  0.967153  0  0.042168  0  0.098244  0.065004  0  0.968075  0
H  H43  1  0.98197118  0.68213287  0.64082190  1  0  0.048298  0  0.90974  0  0  0.065393  0  0.967663  0  0  0.065817  0  0.967178  0  0.042183  0  0.09825  0.064999  0  0.9681  0
H  H44  1  0.00780132  0.17764878  0.27141966  1  0  0.045125  0  0.930908  0  0  0.059524  0  0.997917  0  0  0.059719  0  0.99809  0  0.059852  0  0.096961  0.059313  0  0.99786  0
H  H45  1  0.99220195  0.82235428  0.72858290  1  0  0.045103  0  0.930933  0  0  0.059513  0  0.997931  0  0  0.059709  0  0.998103  0  0.059844  0  0.096941  0.059302  0  0.997874  0
H  H46  1  0.60291110  0.71795718  0.48353549  1  0  0.107457  0  0.963248  0  0  0.11423  0  1.0282  0  0  0.117841  0  1.025988  0  0.089102  0  0.101426  0.111577  0  1.030001  0
H  H47  1  0.39709190  0.28204303  0.51646666  1  0  0.107429  0  0.963286  0  0  0.114213  0  1.02822  0  0  0.11782  0  1.026011  0  0.089038  0  0.101424  0.11156  0  1.030021  0
H  H48  1  0.61074778  0.53347499  0.36060822  1  0  0.093578  0  0.951875  0  0  0.101076  0  1.015824  0  0  0.105879  0  1.011363  0  0.066509  0  0.096357  0.097584  0  1.019135  0
H  H49  1  0.38925319  0.46652522  0.63939239  1  0  0.093581  0  0.951856  0  0  0.101062  0  1.015826  0  0  0.105869  0  1.011361  0  0.066515  0  0.096351  0.09757  0  1.019139  0
H  H50  1  0.18554376  0.22212064  0.60500923  1  0  0.094227  0  0.95776  0  0  0.103504  0  1.020596  0  0  0.107302  0  1.017876  0  0.07062  0  0.100385  0.100712  0  1.022691  0
H  H51  1  0.81445533  0.77787767  0.39498889  1  0  0.09422  0  0.957748  0  0  0.103484  0  1.020606  0  0  0.107284  0  1.017882  0  0.070605  0  0.100365  0.10068  0  1.022711  0
H  H52  1  0.08897689  0.82378904  0.50089986  1  0  0.097809  0  0.955836  0  0  0.106168  0  1.019828  0  0  0.110058  0  1.017346  0  0.066455  0  0.101716  0.103347  0  1.021747  0
H  H53  1  0.91102262  0.17621022  0.49909932  1  0  0.097894  0  0.955837  0  0  0.10617  0  1.019912  0  0  0.110063  0  1.017416  0  0.066456  0  0.101721  0.103348  0  1.021832  0
C  C54  1  0.15697184  0.36149109  0.21989889  1  0  0.055933  0  3.673893  0  0  -0.005028  0  3.950737  0  0  0.001322  0  3.957276  0  0.428122  0  -0.07476  -0.00925  0  3.946106  0
C  C55  1  0.84302998  0.63851103  0.78010224  1  0  0.055928  0  3.673912  0  0  -0.005069  0  3.950781  0  0  0.001281  0  3.957319  0  0.428237  0  -0.074779  -0.009291  0  3.946148  0
C  C56  1  0.85151717  0.13492164  0.75833552  1  0  0.383955  0  3.662039  0  0  0.36057  0  3.924643  0  0  0.37672  0  3.939764  0  0.978746  0  0.225105  0.349992  0  3.914045  0
C  C57  1  0.14848133  0.86507762  0.24166330  1  0  0.383917  0  3.662029  0  0  0.360563  0  3.924591  0  0  0.376711  0  3.939716  0  0.979042  0  0.225141  0.349988  0  3.91399  0
C  C58  1  0.83023976  0.29643056  0.67903692  1  0  -0.079987  0  3.690334  0  0  -0.12384  0  3.958508  0  0  -0.124147  0  3.978263  0  0.315025  0  -0.004758  -0.123719  0  3.945382  0
C  C59  1  0.16975542  0.70356585  0.32096118  1  0  -0.079927  0  3.689953  0  0  -0.123753  0  3.958133  0  0  -0.124058  0  3.97788  0  0.315026  0  -0.00473  -0.12363  0  3.945003  0
C  C60  1  0.69264784  0.21234069  0.64943838  1  0  0.039191  0  3.732857  0  0  0.002009  0  4.003828  0  0  0.005553  0  4.023121  0  0.399883  0  0.005537  -0.000426  0  3.991148  0
C  C61  1  0.30735704  0.78766142  0.35056305  1  0  0.039081  0  3.732658  0  0  0.001864  0  4.003638  0  0  0.005409  0  4.02293  0  0.399837  0  0.005503  -0.000571  0  3.990958  0
C  C62  1  0.91767858  0.05179969  0.82445368  1  0  -0.395501  0  3.710189  0  0  -0.475292  0  3.950416  0  0  -0.479649  0  3.955306  0  -0.029014  0  -0.230897  -0.472137  0  3.946994  0
C  C63  1  0.08232094  0.94819957  0.17554631  1  0  -0.395508  0  3.710138  0  0  -0.475301  0  3.950357  0  0  -0.47966  0  3.955251  0  -0.029023  0  -0.230908  -0.472148  0  3.946935  0
C  C64  1  0.08984250  0.30909810  0.80742523  1  0  -0.016012  0  3.651416  0  0  -0.085024  0  3.917166  0  0  -0.080777  0  3.928052  0  0.277793  0  -0.045647  -0.087716  0  3.909645  0
C  C65  1  0.91015701  0.69090116  0.19257475  1  0  -0.015971  0  3.651406  0  0  -0.084908  0  3.917092  0  0  -0.080676  0  3.927975  0  0.277768  0  -0.045609  -0.087606  0  3.909578  0
C  C66  1  0.15288755  0.40702784  0.92963065  1  0  0.064124  0  3.679353  0  0  0.004768  0  3.956906  0  0  0.010929  0  3.963155  0  0.476433  0  -0.066946  0.000758  0  3.952464  0
C  C67  1  0.84711240  0.59297237  0.07036960  1  0  0.064141  0  3.679368  0  0  0.004781  0  3.956907  0  0  0.010944  0  3.963161  0  0.476451  0  -0.066934  0.00077  0  3.952467  0
C  C68  1  0.18925035  0.43116015  0.13312166  1  0  0.061872  0  3.670873  0  0  0.003106  0  3.945257  0  0  0.009245  0  3.951802  0  0.399093  0  -0.071319  -0.001085  0  3.940784  0
C  C69  1  0.81075104  0.56884102  0.86687841  1  0  0.061803  0  3.670934  0  0  0.003084  0  3.945273  0  0  0.009219  0  3.951824  0  0.399061  0  -0.071293  -0.0011  0  3.940791  0
C  C70  1  0.68381456  0.11876467  0.98041874  1  0  0.386751  0  3.668795  0  0  0.361672  0  3.934389  0  0  0.378112  0  3.949308  0  0.982549  0  0.223897  0.350914  0  3.923916  0
C  C71  1  0.31618538  0.88123554  0.01958151  1  0  0.386763  0  3.668824  0  0  0.361659  0  3.934402  0  0  0.378101  0  3.949325  0  0.982496  0  0.22387  0.350902  0  3.923928  0
C  C72  1  0.62546262  0.91366930  0.96012610  1  0  0.002647  0  3.763407  0  0  -0.034262  0  4.033148  0  0  -0.031604  0  4.052378  0  0.388263  0  -0.009712  -0.035951  0  4.020309  0
C  C73  1  0.37453835  0.08633091  0.03987531  1  0  0.002578  0  3.763449  0  0  -0.034348  0  4.033189  0  0  -0.03169  0  4.052422  0  0.388314  0  -0.009716  -0.036034  0  4.020349  0
C  C74  1  0.68890902  0.97258099  0.08329847  1  0  -0.072883  0  3.697785  0  0  -0.114026  0  3.961453  0  0  -0.113475  0  3.982107  0  0.252594  0  -0.007033  -0.114393  0  3.947851  0
C  C75  1  0.31109237  0.02742018  0.91670320  1  0  -0.072845  0  3.697877  0  0  -0.114003  0  3.96154  0  0  -0.113452  0  3.982193  0  0.252843  0  -0.00703  -0.114379  0  3.947944  0
C  C76  1  0.70098440  0.24227479  0.95157448  1  0  -0.40958  0  3.725651  0  0  -0.493471  0  3.973086  0  0  -0.498458  0  3.978841  0  -0.07213  0  -0.240012  -0.489849  0  3.968991  0
C  C77  1  0.29901614  0.75772447  0.04842507  1  0  -0.409554  0  3.7257  0  0  -0.493455  0  3.973144  0  0  -0.49843  0  3.978881  0  -0.07201  0  -0.240023  -0.489833  0  3.96905  0
C  C78  1  0.79937300  0.20067720  0.21153222  1  0  -0.032802  0  3.625301  0  0  -0.096425  0  3.883565  0  0  -0.092983  0  3.893935  0  0.276547  0  -0.052511  -0.098586  0  3.87639  0
C  C79  1  0.20062737  0.79932396  0.78846748  1  0  -0.032752  0  3.625278  0  0  -0.096379  0  3.883546  0  0  -0.092939  0  3.893918  0  0.27651  0  -0.052524  -0.09854  0  3.876369  0
C  C80  1  0.96635823  0.25509635  0.26454473  1  0  0.07464  0  3.674324  0  0  0.014677  0  3.951735  0  0  0.020823  0  3.958863  0  0.434334  0  -0.067611  0.010583  0  3.946731  0
C  C81  1  0.03364129  0.74490291  0.73545606  1  0  0.074628  0  3.674368  0  0  0.014654  0  3.951803  0  0  0.020798  0  3.958931  0  0.434348  0  -0.06762  0.010558  0  3.946799  0
C  C82  1  0.49505876  0.60273901  0.56885476  1  0  -0.069219  0  3.772209  0  0  -0.04598  0  4.001227  0  0  -0.052453  0  4.024351  0  -0.03556  0  -0.022155  -0.041717  0  3.985488  0
C  C83  1  0.50494322  0.39726120  0.43114783  1  0  -0.069151  0  3.772185  0  0  -0.04593  0  4.001232  0  0  -0.052403  0  4.024354  0  -0.037097  0  -0.022156  -0.041667  0  3.985493  0
C  C84  1  0.55788707  0.62236261  0.49041385  1  0  -0.087522  0  3.748967  0  0  -0.110283  0  4.00102  0  0  -0.110865  0  4.020696  0  -0.003334  0  -0.090918  -0.109726  0  3.987683  0
C  C85  1  0.44211245  0.37763665  0.50958694  1  0  -0.087524  0  3.749053  0  0  -0.110282  0  4.001105  0  0  -0.110863  0  4.020783  0  -0.003273  0  -0.090934  -0.109726  0  3.987768  0
C  C86  1  0.56280859  0.52022937  0.42230569  1  0  -0.090299  0  3.778586  0  0  -0.111817  0  4.028578  0  0  -0.112898  0  4.047781  0  -0.09665  0  -0.092145  -0.110962  0  4.015444  0
C  C87  1  0.43718888  0.47976989  0.57769356  1  0  -0.090225  0  3.778593  0  0  -0.111737  0  4.028587  0  0  -0.112819  0  4.047791  0  -0.096665  0  -0.092098  -0.110881  0  4.015452  0
C  C88  1  0.49291723  0.71267548  0.64587109  1  0  0.632732  0  3.948531  0  0  0.587669  0  4.238983  0  0  0.620731  0  4.232199  0  1.555324  0  0.194297  0.565276  0  4.242844  0
C  C89  1  0.50708331  0.28732378  0.35412927  1  0  0.632689  0  3.948563  0  0  0.587626  0  4.239023  0  0  0.62069  0  4.23224  0  1.556829  0  0.194292  0.565233  0  4.242884  0
C  C90  1  0.15142883  0.02538451  0.55923771  1  0  -0.059087  0  3.762701  0  0  -0.035311  0  3.991513  0  0  -0.041732  0  4.014393  0  -0.008401  0  -0.020687  -0.0311  0  3.976092  0
C  C91  1  0.84857068  0.97461475  0.44076067  1  0  -0.059055  0  3.762735  0  0  -0.035283  0  3.99152  0  0  -0.041706  0  4.014399  0  -0.008372  0  -0.020676  -0.031076  0  3.976102  0
C  C92  1  0.10250788  0.12541267  0.55865722  1  0  -0.092088  0  3.770982  0  0  -0.113427  0  4.019845  0  0  -0.114986  0  4.040898  0  -0.023112  0  -0.090992  -0.112124  0  4.005558  0
C  C93  1  0.89749105  0.87458754  0.44134024  1  0  -0.092093  0  3.770999  0  0  -0.113428  0  4.019882  0  0  -0.114985  0  4.040934  0  -0.023096  0  -0.091009  -0.112112  0  4.0056  0
C  C94  1  0.04801433  0.89976667  0.49992807  1  0  -0.081675  0  3.756833  0  0  -0.105854  0  4.009708  0  0  -0.106678  0  4.030392  0  -0.064581  0  -0.090714  -0.105312  0  3.995759  0
C  C95  1  0.95198561  0.10023354  0.50007137  1  0  -0.081728  0  3.756873  0  0  -0.105836  0  4.009748  0  0  -0.106655  0  4.030427  0  -0.064576  0  -0.090716  -0.105294  0  3.995803  0
C  C96  1  0.31412084  0.05360621  0.62655292  1  0  0.623106  0  3.954495  0  0  0.574736  0  4.249129  0  0  0.608342  0  4.241427  0  1.550298  0  0.197121  0.551966  0  4.253576  0
C  C97  1  0.68587911  0.94639400  0.37344732  1  0  0.622933  0  3.954617  0  0  0.574578  0  4.249239  0  0  0.608184  0  4.241539  0  1.550285  0  0.197053  0.551811  0  4.253685  0
N  N98  1  0.70730602  0.11304940  0.69943648  1  0  -0.435907  0  3.239559  0  0  -0.357782  0  3.527666  0  0  -0.378851  0  3.538412  0  -1.205737  0  -0.356688  -0.343586  0  3.520297  0
N  N99  1  0.29269189  0.88695081  0.30056222  1  0  -0.435931  0  3.239623  0  0  -0.357808  0  3.527731  0  0  -0.37888  0  3.538484  0  -1.205713  0  -0.35672  -0.343612  0  3.520361  0
N  N100  1  0.92948484  0.24657336  0.74764822  1  0  -0.117998  0  3.540415  0  0  -0.029071  0  3.762967  0  0  -0.04476  0  3.789272  0  -1.21682  0  -0.24339  -0.018604  0  3.745014  0
N  N101  1  0.07051306  0.75342685  0.25235049  1  0  -0.117964  0  3.540406  0  0  -0.029079  0  3.762959  0  0  -0.044767  0  3.789269  0  -1.217124  0  -0.24344  -0.018612  0  3.745004  0
N  N102  1  0.62272352  0.00536442  0.89732375  1  0  -0.451149  0  3.265079  0  0  -0.37363  0  3.56251  0  0  -0.395163  0  3.573955  0  -1.233565  0  -0.362654  -0.359048  0  3.554495  0
N  N103  1  0.37727701  0.99463484  0.10267660  1  0  -0.451114  0  3.265087  0  0  -0.37357  0  3.562497  0  0  -0.395112  0  3.573956  0  -1.233562  0  -0.362622  -0.358987  0  3.554477  0
N  N104  1  0.72515400  0.10160840  0.09492129  1  0  -0.104438  0  3.512176  0  0  -0.013944  0  3.728181  0  0  -0.029524  0  3.753927  0  -1.20768  0  -0.237823  -0.003651  0  3.71065  0
N  N105  1  0.27484697  0.89839181  0.90507852  1  0  -0.104557  0  3.512259  0  0  -0.013998  0  3.728191  0  0  -0.029578  0  3.753937  0  -1.20766  0  -0.237826  -0.003705  0  3.710661  0
O  O106  1  0.12454148  0.34447839  0.01382166  1  0  -0.306118  0  2.237969  0  0  -0.238042  0  2.488297  0  0  -0.252711  0  2.488904  0  -1.044876  0  -0.233312  -0.227588  0  2.487582  0
O  O107  1  0.87545948  0.65552182  0.98617895  1  0  -0.306117  0  2.238008  0  0  -0.238046  0  2.488322  0  0  -0.252717  0  2.488934  0  -1.044903  0  -0.233334  -0.227593  0  2.487605  0
O  O108  1  0.00410498  0.32400857  0.18716951  1  0  -0.316818  0  2.249205  0  0  -0.247665  0  2.505366  0  0  -0.262618  0  2.506124  0  -1.054788  0  -0.23592  -0.237039  0  2.504366  0
O  O109  1  0.99589540  0.67599259  0.81283179  1  0  -0.316784  0  2.249237  0  0  -0.247618  0  2.505413  0  0  -0.262567  0  2.506167  0  -1.054824  0  -0.235885  -0.236993  0  2.504413  0
O  O110  1  0.57081818  0.82322427  0.64480519  1  0  -0.665218  0  2.069338  0  0  -0.592058  0  2.344471  0  0  -0.620223  0  2.328761  0  -1.172548  0  -0.343895  -0.572304  0  2.354504  0
O  O111  1  0.42918380  0.17677594  0.35519579  1  0  -0.66521  0  2.069384  0  0  -0.592059  0  2.344534  0  0  -0.620211  0  2.328799  0  -1.172548  0  -0.343878  -0.572303  0  2.354562  0
O  O112  1  0.42245464  0.69412628  0.70477692  1  0  -0.625956  0  1.877243  0  0  -0.587653  0  2.088031  0  0  -0.608078  0  2.077612  0  -1.180816  0  -0.344134  -0.573382  0  2.094767  0
O  O113  1  0.57754675  0.30587488  0.29522395  1  0  -0.625933  0  1.877236  0  0  -0.587628  0  2.088024  0  0  -0.608056  0  2.077604  0  -1.180813  0  -0.344131  -0.573358  0  2.094761  0
O  O114  1  0.34657986  0.95380360  0.62125851  1  0  -0.644613  0  2.078925  0  0  -0.571456  0  2.358107  0  0  -0.599262  0  2.342019  0  -1.168679  0  -0.332712  -0.551979  0  2.368524  0
O  O115  1  0.65342067  0.04619566  0.37874104  1  0  -0.644566  0  2.078985  0  0  -0.571413  0  2.358154  0  0  -0.599221  0  2.342065  0  -1.16868  0  -0.332704  -0.551932  0  2.368556  0
O  O116  1  0.40477297  0.16553081  0.68393434  1  0  -0.613228  0  1.914789  0  0  -0.567389  0  2.131997  0  0  -0.589206  0  2.122598  0  -1.186644  0  -0.324659  -0.552202  0  2.138022  0
O  O117  1  0.59522451  0.83446845  0.31606571  1  0  -0.613157  0  1.914797  0  0  -0.567306  0  2.131984  0  0  -0.589128  0  2.122592  0  -1.186655  0  -0.324614  -0.552119  0  2.138007  0
