# generated using pymatgen
data_CdH8C14S2N2O9
_symmetry_space_group_name_H-M   'P 1'
_cell_length_a   7.49430970
_cell_length_b   10.72749711
_cell_length_c   21.86288452
_cell_angle_alpha   94.61041385
_cell_angle_beta   89.99960080
_cell_angle_gamma   90.00010446
_symmetry_Int_Tables_number   1
_chemical_formula_structural   CdH8C14S2N2O9
_chemical_formula_sum   'Cd4 H32 C56 S8 N8 O36'
_cell_volume   1751.98333926
_cell_formula_units_Z   4
loop_
 _symmetry_equiv_pos_site_id
 _symmetry_equiv_pos_as_xyz
  1  'x, y, z'
loop_
 _atom_site_type_symbol
 _atom_site_label
 _atom_site_symmetry_multiplicity
 _atom_site_fract_x
 _atom_site_fract_y
 _atom_site_fract_z
 _atom_site_occupancy
 _atom_site_hle17_bader_spin_density
 _atom_site_hle17_ddec_charge
 _atom_site_hle17_ddec_spin_density
 _atom_site_hle17_ddec_sum_bond_order
 _atom_site_hle17_magmom
 _atom_site_hse06_10hf_bader_spin_density
 _atom_site_hse06_10hf_ddec_charge
 _atom_site_hse06_10hf_ddec_spin_density
 _atom_site_hse06_10hf_ddec_sum_bond_order
 _atom_site_hse06_10hf_magmom
 _atom_site_hse06_bader_spin_density
 _atom_site_hse06_ddec_charge
 _atom_site_hse06_ddec_spin_density
 _atom_site_hse06_ddec_sum_bond_order
 _atom_site_hse06_magmom
 _atom_site_pbe_bader_spin_density
 _atom_site_pbe_cm5_charge
 _atom_site_pbe_ddec_charge
 _atom_site_pbe_ddec_spin_density
 _atom_site_pbe_ddec_sum_bond_order
 _atom_site_pbe_magmom
Cd  Cd0  1  0.70678197  0.05354624  0.23129517  1  0  1.288771  0  1.567087  0  0  1.119587  0  2.013539  0  0  1.176111  0  1.952313  0  0  0.794162  1.078282  0  2.056133  0
Cd  Cd1  1  0.20677939  0.94645186  0.26870337  1  0  1.288751  0  1.567035  0  0  1.119551  0  2.013486  0  0  1.176076  0  1.952262  0  0  0.794148  1.078249  0  2.056091  0
Cd  Cd2  1  0.29322124  0.94644966  0.76870478  1  0  1.288815  0  1.567091  0  0  1.119632  0  2.013552  0  0  1.176157  0  1.952321  0  0  0.794172  1.078328  0  2.05617  0
Cd  Cd3  1  0.79322115  0.05354872  0.73129724  1  0  1.288758  0  1.567019  0  0  1.119559  0  2.013469  0  0  1.176086  0  1.952241  0  0  0.794152  1.078256  0  2.056074  0
H  H4  1  0.08366019  0.63179475  0.79995722  1  0  0.123407  0  0.976108  0  0  0.129598  0  1.040123  0  0  0.133458  0  1.036804  0  0  0.110901  0.126521  0  1.042893  0
H  H5  1  0.58366555  0.36820346  0.70004347  1  0  0.123455  0  0.975997  0  0  0.129641  0  1.040016  0  0  0.133501  0  1.036697  0  0  0.11092  0.126566  0  1.042784  0
H  H6  1  0.91634435  0.36820488  0.20004335  1  0  0.123415  0  0.976138  0  0  0.129626  0  1.040133  0  0  0.133487  0  1.03681  0  0  0.110904  0.126548  0  1.042904  0
H  H7  1  0.41633899  0.63179525  0.29995660  1  0  0.123412  0  0.976094  0  0  0.129597  0  1.040113  0  0  0.133456  0  1.036796  0  0  0.110908  0.126518  0  1.042885  0
H  H8  1  0.08581100  0.66900547  0.68865343  1  0  0.126164  0  0.944831  0  0  0.13293  0  1.007955  0  0  0.137281  0  1.005431  0  0  0.105672  0.129955  0  1.009664  0
H  H9  1  0.58582201  0.33099275  0.81134725  1  0  0.126255  0  0.944839  0  0  0.132992  0  1.007961  0  0  0.137344  0  1.005433  0  0  0.105688  0.130016  0  1.009668  0
H  H10  1  0.91419755  0.33099604  0.31134676  1  0  0.126197  0  0.944852  0  0  0.132996  0  1.007931  0  0  0.137347  0  1.005404  0  0  0.105678  0.130018  0  1.009643  0
H  H11  1  0.41418387  0.66900783  0.18865290  1  0  0.126259  0  0.944809  0  0  0.133004  0  1.007934  0  0  0.137356  0  1.005407  0  0  0.105694  0.130027  0  1.00964  0
H  H12  1  0.16077314  0.27163385  0.64391297  1  0  0.11779  0  0.955438  0  0  0.122694  0  1.023159  0  0  0.126499  0  1.021696  0  0  0.104623  0.120139  0  1.02394  0
H  H13  1  0.66076960  0.72836348  0.85608842  1  0  0.11779  0  0.955499  0  0  0.12269  0  1.023223  0  0  0.126494  0  1.021758  0  0  0.10462  0.120132  0  1.024008  0
H  H14  1  0.83923407  0.72836579  0.35608715  1  0  0.117784  0  0.955447  0  0  0.122674  0  1.023215  0  0  0.126478  0  1.021752  0  0  0.104636  0.120125  0  1.023981  0
H  H15  1  0.33923094  0.27163710  0.14391128  1  0  0.117783  0  0.95546  0  0  0.122699  0  1.023144  0  0  0.126503  0  1.021681  0  0  0.104626  0.120142  0  1.023927  0
H  H16  1  0.17511141  0.18669561  0.43039959  1  0  0.133896  0  0.961248  0  0  0.140787  0  1.024585  0  0  0.144607  0  1.021711  0  0  0.109863  0.138032  0  1.026874  0
H  H17  1  0.67510856  0.81329962  0.06960119  1  0  0.133889  0  0.961156  0  0  0.140776  0  1.024508  0  0  0.144597  0  1.02163  0  0  0.109862  0.138024  0  1.02679  0
H  H18  1  0.82488913  0.81330588  0.56960151  1  0  0.133925  0  0.961166  0  0  0.14089  0  1.024433  0  0  0.144696  0  1.021572  0  0  0.10988  0.138137  0  1.026716  0
H  H19  1  0.32488664  0.18669814  0.93039976  1  0  0.133887  0  0.961183  0  0  0.140755  0  1.02456  0  0  0.144575  0  1.021684  0  0  0.10987  0.138002  0  1.026843  0
H  H20  1  0.83899916  0.34696643  0.57721912  1  0  0.105659  0  0.967798  0  0  0.112118  0  1.033752  0  0  0.11499  0  1.03323  0  0  0.099872  0.110042  0  1.034321  0
H  H21  1  0.33900203  0.65303296  0.92278055  1  0  0.105656  0  0.967799  0  0  0.112123  0  1.033743  0  0  0.114994  0  1.033221  0  0  0.099868  0.110043  0  1.034309  0
H  H22  1  0.16099605  0.65303416  0.42278057  1  0  0.105635  0  0.967804  0  0  0.112098  0  1.033751  0  0  0.114969  0  1.03323  0  0  0.099866  0.110024  0  1.034317  0
H  H23  1  0.66099183  0.34697231  0.07721889  1  0  0.105694  0  0.967697  0  0  0.112147  0  1.033662  0  0  0.115017  0  1.03314  0  0  0.099846  0.110069  0  1.034228  0
H  H24  1  0.58487863  0.21986255  0.53400129  1  0  0.114894  0  0.9512  0  0  0.118264  0  1.021302  0  0  0.121637  0  1.018719  0  0  0.110804  0.115817  0  1.023235  0
H  H25  1  0.08488363  0.78014039  0.96599640  1  0  0.114946  0  0.951103  0  0  0.118274  0  1.021263  0  0  0.121644  0  1.018681  0  0  0.110831  0.115828  0  1.023195  0
H  H26  1  0.41511791  0.78013713  0.46599654  1  0  0.114919  0  0.951142  0  0  0.118252  0  1.021295  0  0  0.121624  0  1.018712  0  0  0.110815  0.115808  0  1.023227  0
H  H27  1  0.91511291  0.21986768  0.03400316  1  0  0.114936  0  0.951177  0  0  0.118253  0  1.021358  0  0  0.12164  0  1.018761  0  0  0.110826  0.115807  0  1.02329  0
H  H28  1  0.93991052  0.11443990  0.13954872  1  0  0.422572  0  0.869073  0  0  0.388532  0  0.941059  0  0  0.400278  0  0.923815  0  0  0.297785  0.380251  0  0.953244  0
H  H29  1  0.43990459  0.88556028  0.36044980  1  0  0.422652  0  0.868992  0  0  0.388589  0  0.940979  0  0  0.400334  0  0.923736  0  0  0.297811  0.380307  0  0.953167  0
H  H30  1  0.06009002  0.88556068  0.86045143  1  0  0.422564  0  0.869076  0  0  0.388518  0  0.941076  0  0  0.400264  0  0.923831  0  0  0.297774  0.380238  0  0.95326  0
H  H31  1  0.56009328  0.11444123  0.63955085  1  0  0.422668  0  0.868981  0  0  0.388593  0  0.94098  0  0  0.400339  0  0.923735  0  0  0.297821  0.380313  0  0.953164  0
H  H32  1  0.00636166  0.17324662  0.20268934  1  0  0.426312  0  0.881075  0  0  0.394082  0  0.946802  0  0  0.405447  0  0.930575  0  0  0.29266  0.386025  0  0.958296  0
H  H33  1  0.50635957  0.82675317  0.29730975  1  0  0.426335  0  0.881044  0  0  0.394104  0  0.946775  0  0  0.405469  0  0.930546  0  0  0.292667  0.386051  0  0.958264  0
H  H34  1  0.99363754  0.82675302  0.79731123  1  0  0.426327  0  0.881054  0  0  0.394096  0  0.946784  0  0  0.405462  0  0.930555  0  0  0.292664  0.38604  0  0.958276  0
H  H35  1  0.49363830  0.17324552  0.70269169  1  0  0.426345  0  0.881019  0  0  0.394136  0  0.94673  0  0  0.405502  0  0.930498  0  0  0.292694  0.386077  0  0.958229  0
C  C36  1  0.16923432  0.19924905  0.75761407  1  0  0.697068  0  3.897698  0  0  0.634429  0  4.202679  0  0  0.671103  0  4.19186  0  0  0.219146  0.609367  0  4.209023  0
C  C37  1  0.66923727  0.80075016  0.74238737  1  0  0.697194  0  3.897384  0  0  0.634595  0  4.202325  0  0  0.671254  0  4.191524  0  0  0.21923  0.609548  0  4.20865  0
C  C38  1  0.83076622  0.80074967  0.24238554  1  0  0.697085  0  3.897517  0  0  0.634499  0  4.202455  0  0  0.671172  0  4.191636  0  0  0.219217  0.609433  0  4.208807  0
C  C39  1  0.33076060  0.19924949  0.25761183  1  0  0.697207  0  3.897323  0  0  0.634584  0  4.202274  0  0  0.671246  0  4.19147  0  0  0.219232  0.609517  0  4.208627  0
C  C40  1  0.14323494  0.33063726  0.74025913  1  0  -0.058337  0  3.721817  0  0  -0.042091  0  3.961789  0  0  -0.04411  0  3.979964  0  0  0.000921  -0.040651  0  3.949537  0
C  C41  1  0.64323186  0.66936287  0.75974196  1  0  -0.058355  0  3.721905  0  0  -0.042157  0  3.961897  0  0  -0.044175  0  3.980081  0  0  0.000945  -0.040726  0  3.949646  0
C  C42  1  0.85677228  0.66936239  0.25974053  1  0  -0.058262  0  3.721797  0  0  -0.042091  0  3.961787  0  0  -0.044111  0  3.979973  0  0  0.000977  -0.040655  0  3.949545  0
C  C43  1  0.35677001  0.33063679  0.24025724  1  0  -0.058424  0  3.721968  0  0  -0.042202  0  3.961904  0  0  -0.044226  0  3.980096  0  0  0.000921  -0.040765  0  3.949652  0
C  C44  1  0.11969411  0.43379800  0.78318230  1  0  0.037908  0  3.706552  0  0  0.023958  0  3.957311  0  0  0.019942  0  3.980749  0  0  0.072775  0.02627  0  3.941959  0
C  C45  1  0.61969297  0.56620118  0.71681880  1  0  0.037958  0  3.706659  0  0  0.024037  0  3.957385  0  0  0.020023  0  3.980822  0  0  0.072782  0.026354  0  3.942032  0
C  C46  1  0.88031310  0.56620165  0.21681781  1  0  0.037944  0  3.706642  0  0  0.024075  0  3.957315  0  0  0.020049  0  3.980769  0  0  0.072774  0.02639  0  3.941957  0
C  C47  1  0.38030757  0.43379753  0.28318082  1  0  0.037852  0  3.706734  0  0  0.023973  0  3.957394  0  0  0.01996  0  3.98083  0  0  0.072762  0.026289  0  3.942033  0
C  C48  1  0.09583101  0.55432976  0.76490348  1  0  -0.077671  0  3.725252  0  0  -0.101736  0  3.981943  0  0  -0.100753  0  4.001555  0  0  -0.078701  -0.101884  0  3.968739  0
C  C49  1  0.59583453  0.44566846  0.73509764  1  0  -0.077698  0  3.725266  0  0  -0.101748  0  3.981927  0  0  -0.100768  0  4.001543  0  0  -0.078679  -0.101889  0  3.968701  0
C  C50  1  0.90417620  0.44566895  0.23509660  1  0  -0.077657  0  3.7253  0  0  -0.101755  0  3.981954  0  0  -0.100768  0  4.001566  0  0  -0.078665  -0.101902  0  3.968747  0
C  C51  1  0.40417001  0.55433117  0.26490293  1  0  -0.077591  0  3.725206  0  0  -0.101656  0  3.981862  0  0  -0.100672  0  4.001473  0  0  -0.078676  -0.1018  0  3.968651  0
C  C52  1  0.09784519  0.57425815  0.70306613  1  0  -0.097547  0  3.684072  0  0  -0.120002  0  3.940999  0  0  -0.124644  0  3.959858  0  0  -0.089984  -0.117095  0  3.92824  0
C  C53  1  0.59785141  0.42573820  0.79693444  1  0  -0.097725  0  3.684222  0  0  -0.120128  0  3.941146  0  0  -0.12477  0  3.960006  0  0  -0.090074  -0.117221  0  3.928387  0
C  C54  1  0.90216202  0.42574148  0.29693444  1  0  -0.097648  0  3.684163  0  0  -0.12014  0  3.941098  0  0  -0.124783  0  3.95996  0  0  -0.090015  -0.117232  0  3.928335  0
C  C55  1  0.40215047  0.57426051  0.20306517  1  0  -0.097747  0  3.684098  0  0  -0.120188  0  3.941055  0  0  -0.124828  0  3.959914  0  0  -0.09007  -0.117282  0  3.928292  0
C  C56  1  0.12143273  0.47176818  0.65938592  1  0  0.067831  0  3.766394  0  0  0.081747  0  4.031603  0  0  0.086363  0  4.053361  0  0  -0.000712  0.078592  0  4.016893  0
C  C57  1  0.62143566  0.52822913  0.84061510  1  0  0.067899  0  3.766262  0  0  0.08178  0  4.031501  0  0  0.086397  0  4.053259  0  0  -0.000676  0.078633  0  4.016781  0
C  C58  1  0.87857448  0.52823146  0.34061465  1  0  0.067837  0  3.76635  0  0  0.081752  0  4.03155  0  0  0.086369  0  4.05331  0  0  -0.000712  0.078596  0  4.016843  0
C  C59  1  0.37856488  0.47177146  0.15938414  1  0  0.067836  0  3.766274  0  0  0.081733  0  4.031498  0  0  0.086341  0  4.053269  0  0  -0.000715  0.078581  0  4.01678  0
C  C60  1  0.14234825  0.35062407  0.67800942  1  0  -0.126371  0  3.700363  0  0  -0.154352  0  3.946608  0  0  -0.159186  0  3.966905  0  0  -0.087678  -0.151153  0  3.932839  0
C  C61  1  0.64234653  0.64937512  0.82199163  1  0  -0.126401  0  3.700437  0  0  -0.154348  0  3.946682  0  0  -0.159178  0  3.966976  0  0  -0.087688  -0.151152  0  3.932915  0
C  C62  1  0.85766029  0.64937745  0.32199032  1  0  -0.126384  0  3.700414  0  0  -0.154341  0  3.946639  0  0  -0.159174  0  3.966936  0  0  -0.087722  -0.15114  0  3.93288  0
C  C63  1  0.35765267  0.35062546  0.17800807  1  0  -0.126291  0  3.700344  0  0  -0.154253  0  3.946587  0  0  -0.159081  0  3.966888  0  0  -0.087642  -0.151054  0  3.932815  0
C  C64  1  0.92696503  0.06487231  0.36307130  1  0  0.696711  0  3.906564  0  0  0.636279  0  4.217333  0  0  0.673154  0  4.206476  0  0  0.21481  0.611084  0  4.223759  0
C  C65  1  0.42696377  0.93512316  0.13692797  1  0  0.696747  0  3.906608  0  0  0.636315  0  4.217419  0  0  0.673189  0  4.206562  0  0  0.214845  0.611112  0  4.223848  0
C  C66  1  0.07303417  0.93512639  0.63692877  1  0  0.696673  0  3.906577  0  0  0.636266  0  4.217356  0  0  0.673142  0  4.206496  0  0  0.214806  0.61107  0  4.223781  0
C  C67  1  0.57303411  0.06487835  0.86307268  1  0  0.69671  0  3.906669  0  0  0.636235  0  4.217513  0  0  0.673113  0  4.206655  0  0  0.21482  0.611044  0  4.22393  0
C  C68  1  0.90282748  0.12555187  0.42749831  1  0  -0.040938  0  3.666582  0  0  -0.025834  0  3.909521  0  0  -0.027406  0  3.927626  0  0  0.005811  -0.024802  0  3.897845  0
C  C69  1  0.40282603  0.87444545  0.07250109  1  0  -0.040897  0  3.666658  0  0  -0.025881  0  3.909727  0  0  -0.02746  0  3.927845  0  0  0.005708  -0.024846  0  3.898056  0
C  C70  1  0.09717439  0.87444778  0.57250134  1  0  -0.040888  0  3.666594  0  0  -0.025865  0  3.909697  0  0  -0.027442  0  3.92781  0  0  0.005756  -0.024835  0  3.898025  0
C  C71  1  0.59717184  0.12555512  0.92749997  1  0  -0.040968  0  3.666646  0  0  -0.025873  0  3.909657  0  0  -0.027451  0  3.927771  0  0  0.005709  -0.024847  0  3.89799  0
C  C72  1  0.04686855  0.19180155  0.45367456  1  0  -0.108305  0  3.662874  0  0  -0.140608  0  3.912255  0  0  -0.145102  0  3.93151  0  0  -0.08422  -0.137642  0  3.899739  0
C  C73  1  0.54686616  0.80819544  0.04632615  1  0  -0.108253  0  3.662742  0  0  -0.140525  0  3.912194  0  0  -0.145016  0  3.931451  0  0  -0.08416  -0.137558  0  3.899678  0
C  C74  1  0.95313333  0.80819901  0.54632651  1  0  -0.108299  0  3.662747  0  0  -0.140638  0  3.912128  0  0  -0.145114  0  3.931394  0  0  -0.084197  -0.137668  0  3.899607  0
C  C75  1  0.45313171  0.19180232  0.95367434  1  0  -0.108112  0  3.662778  0  0  -0.140392  0  3.912165  0  0  -0.144882  0  3.931423  0  0  -0.084151  -0.137426  0  3.899646  0
C  C76  1  0.02514362  0.27131085  0.50749843  1  0  0.062069  0  3.764847  0  0  0.076686  0  4.030763  0  0  0.081272  0  4.052083  0  0  0.001682  0.0733  0  4.016511  0
C  C77  1  0.52514399  0.72868544  0.99250186  1  0  0.061995  0  3.764818  0  0  0.076563  0  4.030808  0  0  0.081149  0  4.052128  0  0  0.001649  0.073177  0  4.01656  0
C  C78  1  0.97485558  0.72868785  0.49250210  1  0  0.06194  0  3.764739  0  0  0.076552  0  4.030684  0  0  0.081138  0  4.052002  0  0  0.001633  0.073167  0  4.016437  0
C  C79  1  0.47485122  0.27131699  0.00749929  1  0  0.061831  0  3.764985  0  0  0.076451  0  4.030921  0  0  0.081035  0  4.052243  0  0  0.001652  0.073073  0  4.016666  0
C  C80  1  0.85816870  0.28369220  0.53627292  1  0  -0.100303  0  3.734117  0  0  -0.121334  0  3.984767  0  0  -0.126075  0  4.004705  0  0  -0.089651  -0.118289  0  3.971564  0
C  C81  1  0.35817091  0.71630720  0.96372671  1  0  -0.100319  0  3.734101  0  0  -0.121321  0  3.984739  0  0  -0.126062  0  4.004673  0  0  -0.089671  -0.11827  0  3.971532  0
C  C82  1  0.14182917  0.71630932  0.46372682  1  0  -0.100223  0  3.734043  0  0  -0.121233  0  3.984669  0  0  -0.125975  0  4.004608  0  0  -0.089624  -0.118189  0  3.971471  0
C  C83  1  0.64182429  0.28369619  0.03627311  1  0  -0.100414  0  3.73414  0  0  -0.121424  0  3.98478  0  0  -0.126166  0  4.004722  0  0  -0.089698  -0.118376  0  3.971574  0
C  C84  1  0.71484812  0.21477219  0.51171179  1  0  -0.05325  0  3.692044  0  0  -0.079572  0  3.952778  0  0  -0.076493  0  3.969493  0  0  -0.067983  -0.081546  0  3.941578  0
C  C85  1  0.21485001  0.78522990  0.98828784  1  0  -0.053296  0  3.691996  0  0  -0.079613  0  3.952771  0  0  -0.076538  0  3.969505  0  0  -0.068013  -0.081587  0  3.941575  0
C  C86  1  0.28515108  0.78522933  0.48828795  1  0  -0.053292  0  3.691922  0  0  -0.079589  0  3.952714  0  0  -0.076516  0  3.969444  0  0  -0.068003  -0.081562  0  3.941517  0
C  C87  1  0.78514652  0.21477536  0.01171252  1  0  -0.053013  0  3.691802  0  0  -0.079321  0  3.95259  0  0  -0.076258  0  3.969302  0  0  -0.067852  -0.08129  0  3.941389  0
C  C88  1  0.73776862  0.13573584  0.45824670  1  0  0.058585  0  3.688423  0  0  0.030687  0  3.942795  0  0  0.026039  0  3.964888  0  0  0.082402  0.033398  0  3.928258  0
C  C89  1  0.23776909  0.86426321  0.04175272  1  0  0.058599  0  3.68849  0  0  0.030756  0  3.942872  0  0  0.026109  0  3.964964  0  0  0.082474  0.033462  0  3.928341  0
C  C90  1  0.26223059  0.86426382  0.54175250  1  0  0.058675  0  3.688327  0  0  0.030745  0  3.942782  0  0  0.0261  0  3.964874  0  0  0.082483  0.033458  0  3.928246  0
C  C91  1  0.76222611  0.13574015  0.95824892  1  0  0.058364  0  3.688206  0  0  0.030461  0  3.942655  0  0  0.025816  0  3.964748  0  0  0.082334  0.033174  0  3.928122  0
S  S92  1  0.12495089  0.50861958  0.58236223  1  0  0.04774  0  2.507958  0  0  0.038827  0  2.877981  0  0  0.032623  0  2.881918  0  0  0.070213  0.043415  0  2.875196  0
S  S93  1  0.62495617  0.49137679  0.91763874  1  0  0.047695  0  2.507906  0  0  0.038784  0  2.87794  0  0  0.032578  0  2.881878  0  0  0.070177  0.043369  0  2.875162  0
S  S94  1  0.87504965  0.49138006  0.41763789  1  0  0.047725  0  2.507956  0  0  0.038812  0  2.877978  0  0  0.032606  0  2.881916  0  0  0.070195  0.043401  0  2.875193  0
S  S95  1  0.37504170  0.50862472  0.08236145  1  0  0.047724  0  2.50784  0  0  0.038813  0  2.877872  0  0  0.032612  0  2.881813  0  0  0.070178  0.0434  0  2.875091  0
S  S96  1  0.21882108  0.35431352  0.53281539  1  0  0.066685  0  2.442631  0  0  0.055813  0  2.806394  0  0  0.052317  0  2.804326  0  0  0.078441  0.059097  0  2.80745  0
S  S97  1  0.71882308  0.64568388  0.96718494  1  0  0.066692  0  2.442671  0  0  0.055843  0  2.80645  0  0  0.052348  0  2.804382  0  0  0.078466  0.059124  0  2.807516  0
S  S98  1  0.78117679  0.64568612  0.46718472  1  0  0.06668  0  2.442602  0  0  0.055817  0  2.806365  0  0  0.052321  0  2.804297  0  0  0.078436  0.059097  0  2.807423  0
S  S99  1  0.28117079  0.35431858  0.03281438  1  0  0.066729  0  2.44271  0  0  0.055855  0  2.806473  0  0  0.052357  0  2.80441  0  0  0.078471  0.059137  0  2.807535  0
N  N100  1  0.13332777  0.41914110  0.84859459  1  0  0.498268  0  3.913789  0  0  0.527013  0  4.213103  0  0  0.548864  0  4.219313  0  0  0.052214  0.512262  0  4.209118  0
N  N101  1  0.63332266  0.58085808  0.65140693  1  0  0.498455  0  3.913931  0  0  0.527194  0  4.213238  0  0  0.549044  0  4.21945  0  0  0.052331  0.512439  0  4.209257  0
N  N102  1  0.86667677  0.58085667  0.15140590  1  0  0.498381  0  3.913902  0  0  0.527102  0  4.213209  0  0  0.548953  0  4.219422  0  0  0.052258  0.512355  0  4.209222  0
N  N103  1  0.36668055  0.41913970  0.34859264  1  0  0.498429  0  3.914078  0  0  0.527161  0  4.213375  0  0  0.549013  0  4.219588  0  0  0.052363  0.512412  0  4.209386  0
N  N104  1  0.58892114  0.05969492  0.43642442  1  0  0.48783  0  3.934281  0  0  0.540342  0  4.191717  0  0  0.563348  0  4.19841  0  0  0.053549  0.524993  0  4.187079  0
N  N105  1  0.08892271  0.94030587  0.06357497  1  0  0.487945  0  3.934081  0  0  0.5404  0  4.191594  0  0  0.563407  0  4.198283  0  0  0.053573  0.525053  0  4.186949  0
N  N106  1  0.41108073  0.94030380  0.56357519  1  0  0.487793  0  3.934299  0  0  0.540346  0  4.191683  0  0  0.563352  0  4.198371  0  0  0.053545  0.524995  0  4.187044  0
N  N107  1  0.91107783  0.05969750  0.93642576  1  0  0.487966  0  3.934142  0  0  0.540436  0  4.191628  0  0  0.563439  0  4.198316  0  0  0.053534  0.52508  0  4.186996  0
O  O108  1  0.04194811  0.13893531  0.77908491  1  0  -0.668447  0  2.052321  0  0  -0.606182  0  2.319019  0  0  -0.635801  0  2.303566  0  0  -0.325891  -0.585131  0  2.329164  0
O  O109  1  0.54194899  0.86106845  0.72091840  1  0  -0.668515  0  2.052131  0  0  -0.606264  0  2.318828  0  0  -0.635878  0  2.303378  0  0  -0.325901  -0.585215  0  2.328965  0
O  O110  1  0.95805109  0.86106621  0.22091528  1  0  -0.668482  0  2.052275  0  0  -0.606226  0  2.318945  0  0  -0.635845  0  2.303494  0  0  -0.32591  -0.58517  0  2.329085  0
O  O111  1  0.45804888  0.13892843  0.27907885  1  0  -0.668451  0  2.051999  0  0  -0.606222  0  2.318764  0  0  -0.635838  0  2.303313  0  0  -0.325917  -0.58517  0  2.32891  0
O  O112  1  0.32260139  0.15061728  0.74642945  1  0  -0.6479  0  2.082806  0  0  -0.570767  0  2.329937  0  0  -0.60241  0  2.318169  0  0  -0.303515  -0.548181  0  2.337128  0
O  O113  1  0.82260558  0.84937647  0.75357048  1  0  -0.647913  0  2.082688  0  0  -0.570774  0  2.329779  0  0  -0.602411  0  2.31802  0  0  -0.30357  -0.548197  0  2.336962  0
O  O114  1  0.67739514  0.84937583  0.25356947  1  0  -0.647848  0  2.082648  0  0  -0.570729  0  2.329758  0  0  -0.602371  0  2.317991  0  0  -0.303545  -0.548147  0  2.336949  0
O  O115  1  0.17739095  0.15062503  0.24643063  1  0  -0.647941  0  2.082727  0  0  -0.570797  0  2.329833  0  0  -0.602436  0  2.31807  0  0  -0.303588  -0.548216  0  2.337026  0
O  O116  1  0.20613606  0.32226105  0.86423666  1  0  -0.358536  0  1.785946  0  0  -0.34029  0  2.002444  0  0  -0.352249  0  1.998612  0  0  -0.124493  -0.332405  0  2.005324  0
O  O117  1  0.70612885  0.67774101  0.63576435  1  0  -0.358645  0  1.785898  0  0  -0.340423  0  2.002441  0  0  -0.352382  0  1.998603  0  0  -0.12456  -0.332537  0  2.005323  0
O  O118  1  0.79386982  0.67773953  0.13576349  1  0  -0.358648  0  1.785949  0  0  -0.340402  0  2.002463  0  0  -0.352361  0  1.998629  0  0  -0.124553  -0.332519  0  2.005346  0
O  O119  1  0.29387836  0.32225583  0.36423564  1  0  -0.35861  0  1.78597  0  0  -0.340388  0  2.002515  0  0  -0.352352  0  1.998685  0  0  -0.12457  -0.332503  0  2.005395  0
O  O120  1  0.07570512  0.50434242  0.88523102  1  0  -0.367393  0  1.751864  0  0  -0.354399  0  1.965196  0  0  -0.363762  0  1.960142  0  0  -0.135551  -0.348335  0  1.968892  0
O  O121  1  0.57570187  0.49565858  0.61477072  1  0  -0.367502  0  1.752081  0  0  -0.354495  0  1.965414  0  0  -0.363859  0  1.960362  0  0  -0.135618  -0.348434  0  1.969109  0
O  O122  1  0.92429275  0.49565628  0.11476905  1  0  -0.367461  0  1.751965  0  0  -0.354469  0  1.965323  0  0  -0.363829  0  1.960266  0  0  -0.135582  -0.348409  0  1.969019  0
O  O123  1  0.42429600  0.50434013  0.38522981  1  0  -0.367454  0  1.752068  0  0  -0.354456  0  1.965403  0  0  -0.363817  0  1.96035  0  0  -0.135603  -0.348397  0  1.969098  0
O  O124  1  0.83740556  0.11552405  0.32241030  1  0  -0.664382  0  2.033018  0  0  -0.603289  0  2.299754  0  0  -0.633753  0  2.286497  0  0  -0.330167  -0.581414  0  2.307673  0
O  O125  1  0.33740467  0.88447602  0.17758938  1  0  -0.664376  0  2.033111  0  0  -0.603281  0  2.299858  0  0  -0.633756  0  2.286631  0  0  -0.330169  -0.581411  0  2.307791  0
O  O126  1  0.16259364  0.88447651  0.67759077  1  0  -0.664396  0  2.033006  0  0  -0.603301  0  2.299723  0  0  -0.633776  0  2.286493  0  0  -0.330178  -0.581436  0  2.307665  0
O  O127  1  0.66259186  0.11552549  0.82241127  1  0  -0.664338  0  2.033169  0  0  -0.60324  0  2.299937  0  0  -0.633703  0  2.286684  0  0  -0.330136  -0.581377  0  2.307874  0
O  O128  1  0.04216432  0.97846461  0.35555762  1  0  -0.642345  0  1.97994  0  0  -0.576873  0  2.2284  0  0  -0.607578  0  2.216512  0  0  -0.326343  -0.555048  0  2.235694  0
O  O129  1  0.54216991  0.02153148  0.14444031  1  0  -0.642404  0  1.979876  0  0  -0.576916  0  2.228319  0  0  -0.607619  0  2.216435  0  0  -0.326362  -0.555087  0  2.23561  0
O  O130  1  0.95783088  0.02153224  0.64444146  1  0  -0.642347  0  1.980025  0  0  -0.576857  0  2.228453  0  0  -0.60756  0  2.216565  0  0  -0.326329  -0.555024  0  2.235741  0
O  O131  1  0.45782662  0.97846909  0.85556030  1  0  -0.642406  0  1.979883  0  0  -0.57692  0  2.228368  0  0  -0.607625  0  2.216483  0  0  -0.326381  -0.555088  0  2.235654  0
O  O132  1  0.62257219  0.96286979  0.40206730  1  0  -0.394274  0  1.818621  0  0  -0.369554  0  2.016742  0  0  -0.383946  0  2.01124  0  0  -0.131588  -0.360364  0  2.020883  0
O  O133  1  0.12257606  0.03713103  0.09793201  1  0  -0.394335  0  1.818585  0  0  -0.369604  0  2.016713  0  0  -0.383993  0  2.011208  0  0  -0.131593  -0.360408  0  2.020849  0
O  O134  1  0.37742968  0.03712797  0.59793319  1  0  -0.394284  0  1.818626  0  0  -0.369559  0  2.016724  0  0  -0.383961  0  2.011247  0  0  -0.131576  -0.360366  0  2.020864  0
O  O135  1  0.87742448  0.96287235  0.90206826  1  0  -0.394338  0  1.818571  0  0  -0.369602  0  2.016695  0  0  -0.384019  0  2.011248  0  0  -0.131591  -0.360402  0  2.020829  0
O  O136  1  0.43561002  0.08937145  0.45327595  1  0  -0.35073  0  1.787264  0  0  -0.343738  0  1.991349  0  0  -0.353758  0  1.986688  0  0  -0.125318  -0.33706  0  1.994714  0
O  O137  1  0.93561056  0.91063151  0.04672362  1  0  -0.35076  0  1.787183  0  0  -0.34374  0  1.991291  0  0  -0.353754  0  1.986624  0  0  -0.125328  -0.337062  0  1.99465  0
O  O138  1  0.56439051  0.91062820  0.54672416  1  0  -0.350697  0  1.787308  0  0  -0.343736  0  1.99141  0  0  -0.353756  0  1.98675  0  0  -0.125327  -0.337055  0  1.99477  0
O  O139  1  0.06438597  0.08937280  0.95327715  1  0  -0.350738  0  1.787322  0  0  -0.34369  0  1.991384  0  0  -0.353704  0  1.986723  0  0  -0.125286  -0.337012  0  1.994751  0
O  O140  1  0.89642388  0.16505122  0.17651673  1  0  -0.823441  0  1.875221  0  0  -0.753746  0  2.070185  0  0  -0.778286  0  2.03416  0  0  -0.57651  -0.73584  0  2.095227  0
O  O141  1  0.39641990  0.83494797  0.32348232  1  0  -0.82356  0  1.875149  0  0  -0.753827  0  2.070105  0  0  -0.778363  0  2.034078  0  0  -0.576535  -0.73592  0  2.095148  0
O  O142  1  0.10357666  0.83494936  0.82348342  1  0  -0.82345  0  1.875224  0  0  -0.753751  0  2.070199  0  0  -0.778287  0  2.034172  0  0  -0.576498  -0.735845  0  2.095241  0
O  O143  1  0.60357930  0.16505166  0.67651871  1  0  -0.823551  0  1.875062  0  0  -0.753855  0  2.069988  0  0  -0.778393  0  2.033961  0  0  -0.576568  -0.73595  0  2.095031  0
