# generated using pymatgen
data_Sm3H43(C3N2)13
_symmetry_space_group_name_H-M   'P 1'
_cell_length_a   13.01323081
_cell_length_b   13.51570284
_cell_length_c   16.20625428
_cell_angle_alpha   81.88087967
_cell_angle_beta   72.94037796
_cell_angle_gamma   61.22185482
_symmetry_Int_Tables_number   1
_chemical_formula_structural   Sm3H43(C3N2)13
_chemical_formula_sum   'Sm6 H86 C78 N52'
_cell_volume   2388.42417570
_cell_formula_units_Z   2
loop_
 _symmetry_equiv_pos_site_id
 _symmetry_equiv_pos_as_xyz
  1  'x, y, z'
loop_
 _atom_site_type_symbol
 _atom_site_label
 _atom_site_symmetry_multiplicity
 _atom_site_fract_x
 _atom_site_fract_y
 _atom_site_fract_z
 _atom_site_occupancy
 _atom_site_pbe_bader_charge
 _atom_site_pbe_bader_spin_density
 _atom_site_pbe_cm5_charge
 _atom_site_pbe_ddec_charge
 _atom_site_pbe_ddec_spin_density
 _atom_site_pbe_ddec_sum_bond_order
 _atom_site_pbe_magmom
Sm  Sm0  1  0.57460537  0.34522774  0.67871924  1  2.129528  0  1.531073  1.718733  0  2.272189  0
Sm  Sm1  1  0.91983688  0.65477100  0.17871698  1  2.128272  0  1.531262  1.718904  0  2.273635  0
Sm  Sm2  1  0.01271023  0.34879021  0.82634911  1  2.139616  0  1.532303  1.731666  0  2.273744  0
Sm  Sm3  1  0.36150248  0.65120724  0.32635050  1  2.139774  0  1.532368  1.731658  0  2.272852  0
Sm  Sm4  1  0.05203981  0.84399141  0.75305079  1  2.156134  0  1.578278  1.798776  0  2.251727  0
Sm  Sm5  1  0.89602914  0.15601082  0.25305359  1  2.15571  0  1.578053  1.797863  0  2.252916  0
H  H6  1  0.70047607  0.69478875  0.54156650  1  0.51125  0  0.302889  0.248741  0  1.018419  0
H  H7  1  0.39526421  0.30521254  0.04156704  1  0.515913  0  0.302617  0.24858  0  1.019262  0
H  H8  1  0.20668688  0.29525627  0.46350168  1  0.539829  0  0.297818  0.24799  0  1.041646  0
H  H9  1  0.50193802  0.70474572  0.96350332  1  0.53607  0  0.297536  0.247424  0  1.041972  0
H  H10  1  0.79928530  0.41796328  0.70471265  1  0.106718  0  0.123544  0.06911  0  1.054829  0
H  H11  1  0.21724267  0.58203622  0.20470580  1  0.109044  0  0.123459  0.069258  0  1.054693  0
H  H12  1  0.58216049  0.31096550  0.90199107  1  0.071124  0  0.108134  0.088838  0  1.045454  0
H  H13  1  0.89312777  0.68903347  0.40199046  1  0.078079  0  0.108042  0.088432  0  1.045849  0
H  H14  1  0.74206658  0.33538290  0.96868756  1  0.086142  0  0.105334  0.084227  0  1.06551  0
H  H15  1  0.07744926  0.66461679  0.46867805  1  0.084792  0  0.105562  0.08454  0  1.065476  0
H  H16  1  0.47097958  0.56846063  0.52221339  1  0.094059  0  0.125142  0.073301  0  1.019169  0
H  H17  1  0.03943750  0.43154129  0.02221364  1  0.099178  0  0.125546  0.073956  0  1.018773  0
H  H18  1  0.40331155  0.28824703  0.56524026  1  0.058266  0  0.106478  0.085221  0  1.038116  0
H  H19  1  0.69155048  0.71176009  0.06524100  1  0.046858  0  0.106656  0.085489  0  1.038637  0
H  H20  1  0.32762334  0.40549579  0.42229933  1  0.11636  0  0.105746  0.091828  0  1.064259  0
H  H21  1  0.73313148  0.59450193  0.92230424  1  0.10213  0  0.105553  0.091237  0  1.06543  0
H  H22  1  0.26244089  0.39940271  0.70131967  1  0.095673  0  0.120002  0.059698  0  1.058418  0
H  H23  1  0.66184779  0.60058800  0.20131830  1  0.094503  0  0.12026  0.060298  0  1.057835  0
H  H24  1  0.48582052  0.19676105  0.86367312  1  0.079803  0  0.104016  0.088593  0  1.06384  0
H  H25  1  0.68257892  0.80323375  0.36366964  1  0.073537  0  0.104382  0.089567  0  1.063653  0
H  H26  1  0.25425941  0.22040983  0.93539690  1  0.090696  0  0.105235  0.087009  0  1.055229  0
H  H27  1  0.47466360  0.77959130  0.43539956  1  0.080427  0  0.105092  0.086772  0  1.055178  0
H  H28  1  0.82393393  0.15030062  0.77674491  1  0.105649  0  0.118913  0.057813  0  1.073828  0
H  H29  1  0.97423437  0.84970294  0.27674348  1  0.10528  0  0.118945  0.057899  0  1.074287  0
H  H30  1  0.58453023  0.07611754  0.70391267  1  0.059699  0  0.110437  0.090697  0  1.033857  0
H  H31  1  0.66064440  0.92388159  0.20391183  1  0.089604  0  0.110068  0.090128  0  1.034049  0
H  H32  1  0.77820316  0.87577190  0.73309021  1  0.092588  0  0.104469  0.086165  0  1.072377  0
H  H33  1  0.65397170  0.12423290  0.23309113  1  0.097593  0  0.104421  0.085687  0  1.072928  0
H  H34  1  0.63266226  0.28747784  0.44660326  1  0.111908  0  0.123212  0.072707  0  1.052043  0
H  H35  1  0.92014237  0.71251888  0.94659760  1  0.096762  0  0.123064  0.073011  0  1.053264  0
H  H36  1  0.86840436  0.10970610  0.60648881  1  0.070192  0  0.110158  0.090733  0  1.061501  0
H  H37  1  0.97810879  0.89029016  0.10648670  1  0.085379  0  0.110201  0.091029  0  1.060249  0
H  H38  1  0.99062297  0.03563014  0.44000989  1  0.091881  0  0.104729  0.087539  0  1.078797  0
H  H39  1  0.02625337  0.96436775  0.94001295  1  0.088077  0  0.104939  0.087945  0  1.078614  0
H  H40  1  0.56652078  0.62656610  0.65742840  1  0.166602  0  0.129128  0.086556  0  1.041838  0
H  H41  1  0.19308362  0.37342816  0.15743651  1  0.151692  0  0.129491  0.086978  0  1.042247  0
H  H42  1  0.81419114  0.35481449  0.48605733  1  0.124075  0  0.117157  0.109634  0  1.038031  0
H  H43  1  0.16900496  0.64517584  0.98606237  1  0.129709  0  0.117149  0.109678  0  1.038467  0
H  H44  1  0.85786242  0.53657229  0.43066745  1  0.135095  0  0.119906  0.113007  0  1.047536  0
H  H45  1  0.39443865  0.46342776  0.93066486  1  0.153669  0  0.119826  0.112726  0  1.047294  0
H  H46  1  0.96417037  0.11115882  0.84119874  1  0.093749  0  0.125652  0.066746  0  1.026081  0
H  H47  1  0.07533227  0.88884518  0.34119764  1  0.094873  0  0.126083  0.067434  0  1.025839  0
H  H48  1  0.28913445  0.11513007  0.70144762  1  0.063193  0  0.110321  0.093396  0  1.019837  0
H  H49  1  0.40427263  0.88486440  0.20144712  1  0.05942  0  0.110392  0.094456  0  1.018803  0
H  H50  1  0.30537101  0.90749042  0.67754764  1  0.069585  0  0.110568  0.092989  0  1.02634  0
H  H51  1  0.21287049  0.09251096  0.17754175  1  0.08816  0  0.110522  0.093022  0  1.025686  0
H  H52  1  0.06970941  0.57729616  0.83083440  1  0.097827  0  0.1317  0.073741  0  1.018547  0
H  H53  1  0.64701172  0.42270790  0.33085335  1  0.103946  0  0.132184  0.074773  0  1.017557  0
H  H54  1  0.91323606  0.55290824  0.64640988  1  0.071895  0  0.108653  0.097017  0  1.029539  0
H  H55  1  0.46616256  0.44708361  0.14642549  1  0.055817  0  0.108299  0.096664  0  1.02886  0
H  H56  1  0.93809803  0.74803217  0.61689756  1  0.054178  0  0.107898  0.085848  0  1.048737  0
H  H57  1  0.68612447  0.25197536  0.11690232  1  0.047129  0  0.107772  0.085746  0  1.049346  0
H  H58  1  0.16127442  0.40096506  0.60126025  1  0.111156  0  0.128887  0.079788  0  1.041468  0
H  H59  1  0.56224452  0.59903041  0.10126059  1  0.111977  0  0.128716  0.079834  0  1.04132  0
H  H60  1  0.95543908  0.22423893  0.66280540  1  0.075777  0  0.114816  0.09085  0  1.043486  0
H  H61  1  0.17968258  0.77575585  0.16280759  1  0.083367  0  0.114919  0.09107  0  1.044468  0
H  H62  1  0.07703810  0.19368778  0.48996257  1  0.097201  0  0.119523  0.110177  0  1.03065  0
H  H63  1  0.27072230  0.80631434  0.98996561  1  0.102656  0  0.119447  0.110101  0  1.029853  0
H  H64  1  0.27973262  0.57085619  0.69146436  1  0.086276  0  0.12306  0.062388  0  1.052372  0
H  H65  1  0.85057359  0.42915034  0.19145473  1  0.095332  0  0.123364  0.062943  0  1.053736  0
H  H66  1  0.30371315  0.77883857  0.84704643  1  0.069122  0  0.106026  0.088355  0  1.046444  0
H  H67  1  0.08254628  0.22116887  0.34704560  1  0.060891  0  0.106015  0.08813  0  1.046315  0
H  H68  1  0.51487223  0.57525101  0.81990650  1  0.093461  0  0.106463  0.094811  0  1.050318  0
H  H69  1  0.09012294  0.42474777  0.31990779  1  0.077559  0  0.106545  0.095125  0  1.051501  0
H  H70  1  0.18964051  0.67524712  0.55722201  1  0.065268  0  0.122715  0.070746  0  1.031378  0
H  H71  1  0.86490189  0.32473745  0.05721674  1  0.11251  0  0.122775  0.071085  0  1.031478  0
H  H72  1  0.12850578  0.00732128  0.57785052  1  0.074723  0  0.104708  0.085993  0  1.065177  0
H  H73  1  0.13584017  0.99266150  0.07785446  1  0.076727  0  0.104671  0.08558  0  1.06522  0
H  H74  1  0.26819215  0.92623848  0.41393875  1  0.06119  0  0.109079  0.095901  0  1.041389  0
H  H75  1  0.19443978  0.07375568  0.91393594  1  0.076571  0  0.109019  0.096042  0  1.042177  0
H  H76  1  0.52011990  0.08971228  0.44543511  1  0.114054  0  0.123875  0.120636  0  1.021888  0
H  H77  1  0.60982563  0.91029091  0.94543679  1  0.146116  0  0.123818  0.12059  0  1.02218  0
H  H78  1  0.48295843  0.91798400  0.54362642  1  0.083277  0  0.11697  0.11241  0  1.000011  0
H  H79  1  0.40092109  0.08202853  0.04363070  1  0.108964  0  0.117066  0.112507  0  1.000056  0
H  H80  1  0.84283873  0.85480185  0.51409456  1  0.100888  0  0.134237  0.091689  0  1.007726  0
H  H81  1  0.69764558  0.14519717  0.01409603  1  0.11306  0  0.134199  0.092145  0  1.007581  0
H  H82  1  0.74002908  0.03765909  0.43580011  1  0.521072  0  0.324191  0.277959  0  0.960053  0
H  H83  1  0.77767821  0.96234207  0.93580341  1  0.523414  0  0.324142  0.277606  0  0.95998  0
H  H84  1  0.70839117  0.64304610  0.76846275  1  0.121011  0  0.129018  0.084187  0  1.033165  0
H  H85  1  0.35143832  0.35696393  0.26846307  1  0.105133  0  0.128931  0.083623  0  1.033824  0
H  H86  1  0.64144745  0.81322132  0.66458650  1  0.511422  0  0.302525  0.24786  0  1.025025  0
H  H87  1  0.45466768  0.18677957  0.16458915  1  0.507619  0  0.302586  0.248018  0  1.025864  0
H  H88  1  0.45981340  0.98624581  0.74424784  1  0.100734  0  0.120037  0.111247  0  1.030357  0
H  H89  1  0.44605451  0.01376343  0.24425049  1  0.094606  0  0.119937  0.110872  0  1.029998  0
H  H90  1  0.40640973  0.91794414  0.91374760  1  0.099801  0  0.113315  0.104562  0  1.01183  0
H  H91  1  0.32435148  0.08205620  0.41374824  1  0.095606  0  0.113712  0.10535  0  1.011559  0
C  C92  1  0.76164829  0.39238011  0.76786735  1  0.904042  0  0.11393  0.149629  0  4.077072  0
C  C93  1  0.15399717  0.60762141  0.26785201  1  0.904949  0  0.114129  0.150182  0  4.077455  0
C  C94  1  0.65004373  0.33851445  0.87060803  1  0.347755  0  -0.022548  -0.054025  0  4.063085  0
C  C95  1  0.98856158  0.66147531  0.37060321  1  0.346166  0  -0.022323  -0.053114  0  4.063197  0
C  C96  1  0.73102479  0.34865375  0.90354289  1  0.298788  0  -0.023805  -0.049672  0  4.057883  0
C  C97  1  0.07967732  0.65135296  0.40352663  1  0.294664  0  -0.023664  -0.049379  0  4.05793  0
C  C98  1  0.44191632  0.50801382  0.51457512  1  0.958016  0  0.119034  0.165769  0  4.050016  0
C  C99  1  0.94992964  0.49199443  0.01457597  1  0.920979  0  0.118893  0.166548  0  4.049495  0
C  C100  1  0.40571593  0.36474785  0.53581229  1  0.328474  0  -0.029654  -0.064509  0  4.078822  0
C  C101  1  0.77045526  0.63525810  0.03581456  1  0.280747  0  -0.029941  -0.065102  0  4.0809  0
C  C102  1  0.36817368  0.42311097  0.46427592  1  0.286851  0  -0.025759  -0.05107  0  4.054543  0
C  C103  1  0.79130162  0.57689707  0.96427360  1  0.355888  0  -0.024832  -0.048808  0  4.055177  0
C  C104  1  0.29202843  0.34671986  0.75526041  1  0.919241  0  0.115148  0.162296  0  4.077767  0
C  C105  1  0.63877261  0.65323941  0.25527153  1  0.925072  0  0.114557  0.161373  0  4.075782  0
C  C106  1  0.40490104  0.24366516  0.84044948  1  0.310937  0  -0.025478  -0.048826  0  4.057499  0
C  C107  1  0.64855115  0.75634552  0.34043906  1  0.307492  0  -0.026289  -0.050946  0  4.059751  0
C  C108  1  0.28988991  0.25479567  0.87596819  1  0.337659  0  -0.02538  -0.043501  0  4.052742  0
C  C109  1  0.54467169  0.74521606  0.37596663  1  0.341366  0  -0.025377  -0.043249  0  4.052251  0
C  C110  1  0.78571719  0.10222301  0.76037763  1  0.957178  0  0.110487  0.154049  0  4.087862  0
C  C111  1  0.88794299  0.89779477  0.26037070  1  0.945432  0  0.110296  0.153711  0  4.091354  0
C  C112  1  0.66367966  0.06196597  0.72307560  1  0.368739  0  -0.015509  -0.030411  0  4.045458  0
C  C113  1  0.72563390  0.93804162  0.22308066  1  0.335786  0  -0.015372  -0.030359  0  4.04495  0
C  C114  1  0.76044964  0.96233066  0.73690080  1  0.310138  0  -0.028455  -0.058736  0  4.065253  0
C  C115  1  0.72277452  0.03767554  0.23690405  1  0.319919  0  -0.027942  -0.05691  0  4.062601  0
C  C116  1  0.71381459  0.22934249  0.46733982  1  0.904018  0  0.115897  0.16092  0  4.062322  0
C  C117  1  0.94317878  0.77064179  0.96732608  1  0.916998  0  0.116179  0.160659  0  4.062326  0
C  C118  1  0.83667480  0.13727419  0.54844374  1  0.327493  0  -0.017508  -0.029579  0  4.036666  0
C  C119  1  0.97392523  0.86272328  0.04845042  1  0.360585  0  -0.017447  -0.028767  0  4.033678  0
C  C120  1  0.89749771  0.09909705  0.46513426  1  0.317742  0  -0.031  -0.065462  0  4.06883  0
C  C121  1  0.99661360  0.90088767  0.96514264  1  0.277284  0  -0.030872  -0.065864  0  4.066512  0
C  C122  1  0.63927197  0.57604334  0.60389474  1  0.91076  0  0.135835  0.143314  0  3.9607  0
C  C123  1  0.21531741  0.42395227  0.10390942  1  0.937202  0  0.135632  0.143486  0  3.961406  0
C  C124  1  0.76842792  0.43823402  0.51412934  1  0.414414  0  -0.001841  -0.025879  0  4.003345  0
C  C125  1  0.20665674  0.56175956  0.01413476  1  0.343181  0  -0.002014  -0.026497  0  4.004568  0
C  C126  1  0.79167845  0.52791593  0.48587602  1  0.27853  0  -0.000729  -0.044552  0  3.922302  0
C  C127  1  0.31960638  0.47208554  0.98587938  1  0.329423  0  -0.000263  -0.043345  0  3.921642  0
C  C128  1  0.05488854  0.08389807  0.79846160  1  0.950252  0  0.116169  0.153322  0  4.081281  0
C  C129  1  0.13878995  0.91612152  0.29847838  1  0.925237  0  0.115691  0.152733  0  4.081983  0
C  C130  1  0.22390145  0.08300419  0.72733400  1  0.338191  0  -0.016723  -0.042907  0  4.050884  0
C  C131  1  0.30691155  0.91698936  0.22733411  1  0.33918  0  -0.016952  -0.044706  0  4.054409  0
C  C132  1  0.23132119  0.98081251  0.71440546  1  0.359304  0  -0.017975  -0.043447  0  4.073273  0
C  C133  1  0.21215876  0.01917733  0.21439598  1  0.335202  0  -0.018265  -0.043503  0  4.072915  0
C  C134  1  0.02905024  0.59800062  0.77690104  1  0.957117  0  0.124226  0.173412  0  4.056532  0
C  C135  1  0.62706275  0.40199549  0.27692453  1  0.933324  0  0.123896  0.172809  0  4.052927  0
C  C136  1  0.94821922  0.58723990  0.68158186  1  0.328634  0  -0.021134  -0.043955  0  4.062577  0
C  C137  1  0.53546932  0.41276057  0.18160949  1  0.379824  0  -0.020875  -0.04373  0  4.060227  0
C  C138  1  0.96119193  0.68400162  0.66637123  1  0.339345  0  -0.025571  -0.052742  0  4.074639  0
C  C139  1  0.64520852  0.31601175  0.16637223  1  0.314169  0  -0.02543  -0.052181  0  4.075437  0
C  C140  1  0.12132417  0.34829196  0.59680123  1  0.985716  0  0.138651  0.151277  0  3.970154  0
C  C141  1  0.46962441  0.65170423  0.09680006  1  0.976121  0  0.138412  0.150411  0  3.970924  0
C  C142  1  0.01582679  0.25735272  0.62495871  1  0.474878  0  -0.006016  -0.027708  0  4.047943  0
C  C143  1  0.27319151  0.74262978  0.12496622  1  0.412234  0  -0.005988  -0.027941  0  4.049446  0
C  C144  1  0.07733428  0.23969403  0.53933607  1  0.297285  0  -0.004623  -0.061429  0  3.958101  0
C  C145  1  0.31702118  0.76031521  0.03934431  1  0.348019  0  -0.004283  -0.060458  0  3.957054  0
C  C146  1  0.31488404  0.59932532  0.73092605  1  0.952451  0  0.117693  0.166939  0  4.075244  0
C  C147  1  0.91417967  0.40068648  0.23092663  1  0.945157  0  0.117019  0.165604  0  4.074975  0
C  C148  1  0.32884538  0.70472156  0.81165613  1  0.333954  0  -0.021868  -0.036141  0  4.045488  0
C  C149  1  0.03354122  0.29529795  0.31166539  1  0.355557  0  -0.021565  -0.034543  0  4.04752  0
C  C150  1  0.43463216  0.60391246  0.79703665  1  0.304129  0  -0.025734  -0.050155  0  4.048544  0
C  C151  1  0.03853280  0.39609215  0.29704184  1  0.324709  0  -0.0259  -0.051894  0  4.051193  0
C  C152  1  0.19104354  0.75528317  0.53993546  1  0.99253  0  0.11564  0.16774  0  4.07081  0
C  C153  1  0.94633607  0.24468836  0.03992431  1  0.932882  0  0.115381  0.166992  0  4.07252  0
C  C154  1  0.16042704  0.92629286  0.54930748  1  0.311922  0  -0.02779  -0.050191  0  4.072522  0
C  C155  1  0.08674225  0.07369349  0.04930641  1  0.298851  0  -0.027434  -0.049235  0  4.071914  0
C  C156  1  0.23144869  0.88527430  0.46805550  1  0.364329  0  -0.02522  -0.047704  0  4.056705  0
C  C157  1  0.11674817  0.11471608  0.96806228  1  0.355493  0  -0.025582  -0.048716  0  4.058668  0
C  C158  1  0.57971111  0.01599341  0.47562193  1  0.325999  0  0.005927  -0.04761  0  3.934313  0
C  C159  1  0.59568106  0.98401029  0.97563240  1  0.316457  0  0.006192  -0.047496  0  3.935261  0
C  C160  1  0.56353236  0.92987328  0.52387207  1  0.397894  0  -0.011685  -0.052325  0  4.016929  0
C  C161  1  0.49337725  0.07015190  0.02387467  1  0.350801  0  -0.011989  -0.052769  0  4.018606  0
C  C162  1  0.74954824  0.89273450  0.51036672  1  1.021492  0  0.141962  0.14711  0  3.957976  0
C  C163  1  0.64228918  0.10725097  0.01039354  1  0.99833  0  0.140804  0.144274  0  3.959747  0
C  C164  1  0.63251756  0.72606822  0.78662629  1  0.969087  0  0.132937  0.133915  0  3.975272  0
C  C165  1  0.35861041  0.27393453  0.28663001  1  0.981758  0  0.133073  0.134406  0  3.973792  0
C  C166  1  0.50267649  0.90557809  0.77473682  1  0.322395  0  -2e-06  -0.053078  0  3.974941  0
C  C167  1  0.40824678  0.09443609  0.27473400  1  0.293983  0  0.000215  -0.050709  0  3.973381  0
C  C168  1  0.47750533  0.87004075  0.85850347  1  0.390155  0  -0.014302  -0.060221  0  4.045036  0
C  C169  1  0.34753367  0.12996602  0.35850135  1  0.445544  0  -0.014797  -0.062724  0  4.046844  0
N  N170  1  0.66983574  0.36639465  0.78387431  1  -1.273974  0  -0.464696  -0.43299  0  3.534486  0
N  N171  1  0.03620443  0.63360877  0.28386983  1  -1.260256  0  -0.464796  -0.433157  0  3.536029  0
N  N172  1  0.80336878  0.38221215  0.83747394  1  -1.26719  0  -0.474226  -0.450118  0  3.491617  0
N  N173  1  0.18557412  0.61778538  0.33744961  1  -1.283491  0  -0.474651  -0.451837  0  3.493205  0
N  N174  1  0.45282900  0.41915979  0.56818334  1  -1.272845  0  -0.463027  -0.449135  0  3.505853  0
N  N175  1  0.87198233  0.58084611  0.06818764  1  -1.266068  0  -0.463666  -0.450804  0  3.509343  0
N  N176  1  0.39118176  0.51474112  0.45090814  1  -1.289674  0  -0.459614  -0.448862  0  3.530626  0
N  N177  1  0.90592898  0.48526116  0.95091037  1  -1.259627  0  -0.459995  -0.450679  0  3.53152  0
N  N178  1  0.40648414  0.30231171  0.76289612  1  -1.267562  0  -0.468834  -0.45018  0  3.506632  0
N  N179  1  0.70879782  0.69768032  0.26289565  1  -1.269977  0  -0.468315  -0.449414  0  3.506104  0
N  N180  1  0.21747619  0.32064982  0.82138556  1  -1.290474  0  -0.476876  -0.457063  0  3.503821  0
N  N181  1  0.53813178  0.67933972  0.32138636  1  -1.277627  0  -0.476577  -0.456352  0  3.50222  0
N  N182  1  0.67958024  0.15105611  0.73834417  1  -1.269431  0  -0.46061  -0.43  0  3.521358  0
N  N183  1  0.83063718  0.84895670  0.23834141  1  -1.259526  0  -0.460621  -0.430287  0  3.524364  0
N  N184  1  0.83945867  0.98801477  0.76025745  1  -1.347885  0  -0.487782  -0.499857  0  3.558716  0
N  N185  1  0.82746493  0.01200052  0.26025659  1  -1.355782  0  -0.487975  -0.500249  0  3.55679  0
N  N186  1  0.71970325  0.22035986  0.54997024  1  -1.255704  0  -0.45474  -0.440125  0  3.504157  0
N  N187  1  0.94005826  0.77963166  0.04996336  1  -1.254464  0  -0.454901  -0.440476  0  3.504107  0
N  N188  1  0.81863369  0.15765198  0.41287163  1  -1.304721  0  -0.485363  -0.503608  0  3.559455  0
N  N189  1  0.97630155  0.84234441  0.91286826  1  -1.307933  0  -0.485956  -0.504362  0  3.557145  0
N  N190  1  0.67285171  0.46869679  0.58816575  1  -1.232815  0  -0.413718  -0.413421  0  3.481114  0
N  N191  1  0.14154674  0.53130162  0.08817351  1  -1.240208  0  -0.413816  -0.413537  0  3.482596  0
N  N192  1  0.70937915  0.61424534  0.54370475  1  -1.290569  0  -0.382038  -0.200599  0  3.711632  0
N  N193  1  0.32362393  0.38575459  0.04371155  1  -1.303599  0  -0.381966  -0.201353  0  3.712086  0
N  N194  1  0.11165097  0.14790451  0.78137890  1  -1.288378  0  -0.465958  -0.427621  0  3.581319  0
N  N195  1  0.25955814  0.85209816  0.28138184  1  -1.277379  0  -0.46561  -0.427251  0  3.583186  0
N  N196  1  0.12260041  0.98150099  0.75942179  1  -1.297292  0  -0.488353  -0.471115  0  3.506724  0
N  N197  1  0.10411629  0.01850759  0.25941991  1  -1.276176  0  -0.487984  -0.470514  0  3.505968  0
N  N198  1  0.99216658  0.53205071  0.75209533  1  -1.255484  0  -0.4557  -0.44251  0  3.508078  0
N  N199  1  0.52422239  0.46795105  0.25211779  1  -1.276603  0  -0.456024  -0.442562  0  3.50566  0
N  N200  1  0.01311859  0.69104834  0.72735651  1  -1.311151  0  -0.486193  -0.467569  0  3.498294  0
N  N201  1  0.70417551  0.30895267  0.22736670  1  -1.276477  0  -0.486009  -0.468161  0  3.500243  0
N  N202  1  0.04314498  0.32604335  0.66093374  1  -1.245693  0  -0.414791  -0.418849  0  3.493186  0
N  N203  1  0.36919826  0.67394599  0.16093606  1  -1.240085  0  -0.414812  -0.418751  0  3.492385  0
N  N204  1  0.14400065  0.29773151  0.52263497  1  -1.329006  0  -0.377907  -0.19264  0  3.680386  0
N  N205  1  0.44172889  0.70227254  0.02263556  1  -1.324185  0  -0.377463  -0.19226  0  3.680509  0
N  N206  1  0.25190431  0.70162489  0.76965229  1  -1.303928  0  -0.494319  -0.481294  0  3.542191  0
N  N207  1  0.95351893  0.29838184  0.26965391  1  -1.302882  0  -0.494373  -0.48115  0  3.54425  0
N  N208  1  0.42561546  0.53667537  0.74508646  1  -1.254315  0  -0.45991  -0.447826  0  3.522501  0
N  N209  1  0.96228181  0.46332625  0.24508702  1  -1.271451  0  -0.4596  -0.446942  0  3.52064  0
N  N210  1  0.13379679  0.84324839  0.59552193  1  -1.330052  0  -0.492504  -0.489208  0  3.526403  0
N  N211  1  0.97705861  0.15673407  0.09551477  1  -1.326132  0  -0.492219  -0.488678  0  3.528428  0
N  N212  1  0.25118459  0.77574993  0.46189344  1  -1.264109  0  -0.443784  -0.440257  0  3.482383  0
N  N213  1  0.02695280  0.22423324  0.96188780  1  -1.251786  0  -0.443799  -0.439872  0  3.482771  0
N  N214  1  0.67047962  0.85248302  0.54529144  1  -1.236827  0  -0.346915  -0.346557  0  3.381213  0
N  N215  1  0.52296020  0.14752280  0.04529756  1  -1.237549  0  -0.346057  -0.344521  0  3.382649  0
N  N216  1  0.69804726  0.99061762  0.46798634  1  -1.288225  0  -0.369565  -0.177403  0  3.678804  0
N  N217  1  0.68865276  0.00937992  0.96799621  1  -1.279373  0  -0.369165  -0.176286  0  3.678537  0
N  N218  1  0.55912882  0.75772785  0.86538915  1  -1.217862  0  -0.343221  -0.31918  0  3.382579  0
N  N219  1  0.31686326  0.24227610  0.36539268  1  -1.230499  0  -0.343589  -0.318712  0  3.381434  0
N  N220  1  0.60115256  0.81334045  0.73001287  1  -1.281956  0  -0.384955  -0.203326  0  3.711485  0
N  N221  1  0.41449936  0.18666488  0.23001634  1  -1.280801  0  -0.384606  -0.204273  0  3.711872  0
