# generated using pymatgen
data_CuH16C16(NO2)2
_symmetry_space_group_name_H-M   'P 1'
_cell_length_a   8.71251477
_cell_length_b   8.75845927
_cell_length_c   10.66740527
_cell_angle_alpha   88.56764170
_cell_angle_beta   69.23487350
_cell_angle_gamma   77.15622341
_symmetry_Int_Tables_number   1
_chemical_formula_structural   CuH16C16(NO2)2
_chemical_formula_sum   'Cu2 H32 C32 N4 O8'
_cell_volume   740.79598589
_cell_formula_units_Z   2
loop_
 _symmetry_equiv_pos_site_id
 _symmetry_equiv_pos_as_xyz
  1  'x, y, z'
loop_
 _atom_site_type_symbol
 _atom_site_label
 _atom_site_symmetry_multiplicity
 _atom_site_fract_x
 _atom_site_fract_y
 _atom_site_fract_z
 _atom_site_occupancy
 _atom_site_pbe_cm5_charge
 _atom_site_pbe_ddec_charge
 _atom_site_pbe_ddec_spin_density
 _atom_site_pbe_ddec_sum_bond_order
 _atom_site_pbe_magmom
Cu  Cu0  1  0.49150923  0.34084874  0.36678364  1  0.736645  0.785299  0.734099  2.260117  0.573
Cu  Cu1  1  0.50849114  0.65915498  0.63321645  1  0.736641  0.785322  0.7341  2.260114  0.573
H  H2  1  0.14444465  0.51999510  0.50451816  1  0.121374  0.092265  0.000973  1.011663  0.001
H  H3  1  0.85554961  0.48000849  0.49548372  1  0.121368  0.092286  0.000973  1.011679  0.001
H  H4  1  0.91605255  0.52891391  0.72364462  1  0.108505  0.126853  0.000882  1.043803  0.001
H  H5  1  0.08394296  0.47108499  0.27635695  1  0.108502  0.126885  0.000882  1.04373  0.001
H  H6  1  0.23540265  0.11396136  0.81101346  1  0.110158  0.119413  0.000549  1.024407  0.001
H  H7  1  0.76459925  0.88603654  0.18898251  1  0.110166  0.119397  0.000549  1.024394  0.001
H  H8  1  0.44431154  0.12443420  0.59092945  1  0.127837  0.111543  0.000963  0.998831  0.001
H  H9  1  0.55568847  0.87557074  0.40906697  1  0.127831  0.111546  0.000963  0.99879  0.001
H  H10  1  0.73421480  0.51929388  0.89556125  1  0.108501  0.121578  0.000776  1.051843  0.001
H  H11  1  0.26578254  0.48070273  0.10443701  1  0.108486  0.121555  0.000776  1.051853  0.001
H  H12  1  0.52840963  0.52409862  0.12828214  1  0.122076  0.101779  0.000883  1.01037  0.001
H  H13  1  0.47159016  0.47589804  0.87171634  1  0.122076  0.101782  0.000883  1.010352  0.001
H  H14  1  0.84147895  0.15516571  0.22859384  1  0.121546  0.09598  0.000738  1.019747  0.002
H  H15  1  0.15852234  0.84483451  0.77140415  1  0.121548  0.095972  0.000739  1.019717  0.002
H  H16  1  0.06545222  0.13404840  0.00238234  1  0.106754  0.110052  0.000483  1.037606  0.0
H  H17  1  0.93454817  0.86595061  0.99761686  1  0.106771  0.110089  0.000483  1.03758  0.0
H  H18  1  0.86497286  0.23028297  0.64447812  1  0.088618  0.100654  0.000438  1.016986  0.0
H  H19  1  0.13502815  0.76971371  0.35552000  1  0.088594  0.100604  0.000438  1.016991  0.0
H  H20  1  0.73135392  0.09859754  0.67079560  1  0.100199  0.123114  0.000372  1.019834  0.0
H  H21  1  0.26863851  0.90140368  0.32920497  1  0.100191  0.123093  0.000372  1.019907  0.0
H  H22  1  0.00206719  0.12829282  0.39906968  1  0.082863  0.0741  3.6e-05  1.00054  0.0
H  H23  1  0.99792896  0.87169906  0.60092899  1  0.082903  0.074141  3.6e-05  1.000508  0.0
H  H24  1  0.87154611  0.99343031  0.43305653  1  0.083735  0.078753  4.1e-05  1.004412  0.0
H  H25  1  0.12844546  0.00656497  0.56694626  1  0.083775  0.078802  4.1e-05  1.004414  0.0
H  H26  1  0.17804916  0.08913349  0.19848522  1  0.096497  0.10635  -7e-05  1.009275  0.0
H  H27  1  0.82195467  0.91086666  0.80152234  1  0.09648  0.106324  -7e-05  1.009327  0.0
H  H28  1  0.26585092  0.21922495  0.07947039  1  0.090071  0.100127  -1.7e-05  1.010535  0.0
H  H29  1  0.73414922  0.78077049  0.92053175  1  0.090098  0.100163  -1.7e-05  1.010495  0.0
H  H30  1  0.35587286  0.93940964  0.98274925  1  0.082106  0.07536  0.000469  1.013103  0.001
H  H31  1  0.64413556  0.06058708  0.01725607  1  0.082107  0.075382  0.000469  1.01317  0.001
H  H32  1  0.44569465  0.88235863  0.10680539  1  0.089604  0.088778  -3.6e-05  0.989799  0.0
H  H33  1  0.55431163  0.11764156  0.89320239  1  0.089633  0.088813  -3.6e-05  0.989759  0.0
C  C34  1  0.15882849  0.43379408  0.57713093  1  0.051532  0.105046  -0.001478  3.925926  -0.001
C  C35  1  0.84117065  0.56620961  0.42286952  1  0.051592  0.105073  -0.001478  3.926108  -0.001
C  C36  1  0.03155173  0.43750626  0.70101462  1  -0.080607  -0.168002  0.003704  3.905183  0.004
C  C37  1  0.96844164  0.56249144  0.29898573  1  -0.080635  -0.168084  0.003704  3.905282  0.004
C  C38  1  0.05372363  0.32375690  0.79243846  1  0.011747  0.097589  -0.003662  3.967074  -0.002
C  C39  1  0.94627616  0.67623976  0.20756002  1  0.011773  0.097634  -0.003662  3.967132  -0.002
C  C40  1  0.20542516  0.20878774  0.74962435  1  -0.075463  -0.160891  0.003414  3.901558  0.004
C  C41  1  0.79457340  0.79120891  0.25037261  1  -0.075452  -0.160825  0.003414  3.901552  0.004
C  C42  1  0.32673975  0.21332786  0.62386463  1  0.059377  0.118846  -0.001944  3.899511  -0.001
C  C43  1  0.67326213  0.78667475  0.37613222  1  0.059375  0.118837  -0.001944  3.899513  -0.001
C  C44  1  0.92254527  0.32675825  0.92699882  1  0.012551  0.106992  -0.003467  3.962501  -0.002
C  C45  1  0.07745422  0.67323956  0.07300161  1  0.012596  0.106956  -0.003467  3.962357  -0.002
C  C46  1  0.76662388  0.43625712  0.96524928  1  -0.079457  -0.171357  0.003386  3.903999  0.004
C  C47  1  0.23337802  0.56374077  0.03474762  1  -0.079421  -0.171274  0.003386  3.903933  0.004
C  C48  1  0.64900369  0.43904046  0.09405770  1  0.051648  0.104944  -0.001284  3.90664  0.0
C  C49  1  0.35099579  0.56095737  0.90594085  1  0.051637  0.104954  -0.001284  3.906657  0.0
C  C50  1  0.82442593  0.23221057  0.15041728  1  0.04751  0.08795  -0.001142  3.945187  0.0
C  C51  1  0.17557629  0.76779083  0.84958230  1  0.047511  0.088017  -0.001142  3.945214  0.0
C  C52  1  0.94846561  0.22250983  0.02371943  1  -0.08436  -0.181305  0.003362  3.951389  0.004
C  C53  1  0.05153599  0.77748922  0.97627848  1  -0.084415  -0.181405  0.003362  3.951304  0.004
C  C54  1  0.67469137  0.28661037  0.55785820  1  0.203241  0.6275  -0.001372  4.181443  -0.003
C  C55  1  0.32530863  0.71339457  0.44213729  1  0.203213  0.62744  -0.001372  4.181278  -0.003
C  C56  1  0.80524354  0.16674908  0.59419610  1  -0.172926  -0.301037  0.008717  3.923872  0.01
C  C57  1  0.19475561  0.83324993  0.40580160  1  -0.172881  -0.300909  0.008716  3.923933  0.01
C  C58  1  0.93603838  0.05770656  0.47829655  1  -0.172149  -0.114542  9.2e-05  3.952743  0.0
C  C59  1  0.06395870  0.94228649  0.52170371  1  -0.172199  -0.114687  9.2e-05  3.952856  0.0
C  C60  1  0.37169577  0.17246938  0.23452144  1  0.191261  0.605589  -0.002084  4.176174  -0.003
C  C61  1  0.62830428  0.82754018  0.76548335  1  0.191262  0.605773  -0.002084  4.175816  -0.003
C  C62  1  0.29762597  0.11972465  0.13767810  1  -0.170238  -0.297522  0.006862  3.944286  0.008
C  C63  1  0.70237538  0.88027550  0.86232644  1  -0.170255  -0.2976  0.006862  3.944374  0.008
C  C64  1  0.41778111  0.97987466  0.04526022  1  -0.170774  -0.126304  0.001271  3.943709  0.001
C  C65  1  0.58222394  0.02012552  0.95474698  1  -0.170736  -0.126283  0.001271  3.943652  0.001
N  N66  1  0.30554877  0.32569651  0.53937861  1  -0.34011  -0.220893  0.056034  3.611295  0.073
N  N67  1  0.69445037  0.67430720  0.46062090  1  -0.340156  -0.220928  0.056035  3.611307  0.073
N  N68  1  0.67700235  0.33913178  0.18567064  1  -0.335944  -0.204105  0.053252  3.568523  0.069
N  N69  1  0.32299741  0.66086958  0.81432872  1  -0.335967  -0.204171  0.053251  3.5686  0.069
O  O70  1  0.67084881  0.26380708  0.44028264  1  -0.330542  -0.575423  0.064485  2.426635  0.093
O  O71  1  0.32915343  0.73618495  0.55971144  1  -0.330557  -0.575409  0.064476  2.426575  0.093
O  O72  1  0.57953813  0.39517728  0.64335476  1  -0.337633  -0.609421  0.001321  2.325739  0.005
O  O73  1  0.42047219  0.60483030  0.35663298  1  -0.337622  -0.609388  0.001322  2.325442  0.005
O  O74  1  0.33728404  0.32236923  0.26250534  1  -0.331012  -0.565188  0.069082  2.288775  0.098
O  O75  1  0.66270864  0.67764022  0.73749693  1  -0.331048  -0.565356  0.069088  2.28856  0.098
O  O76  1  0.46248300  0.07328464  0.28051409  1  -0.324796  -0.570515  -0.00013  2.162482  0.002
O  O77  1  0.53752433  0.92672981  0.71948662  1  -0.324728  -0.570472  -0.00013  2.162237  0.002
