# generated using pymatgen
data_AlH9C13SNO5
_symmetry_space_group_name_H-M   'P 1'
_cell_length_a   6.63985468
_cell_length_b   12.79032672
_cell_length_c   17.65220798
_cell_angle_alpha   81.41043133
_cell_angle_beta   79.19780360
_cell_angle_gamma   73.56899248
_symmetry_Int_Tables_number   1
_chemical_formula_structural   AlH9C13SNO5
_chemical_formula_sum   'Al2 H18 C26 S2 N2 O10'
_cell_volume   1405.02355050
_cell_formula_units_Z   2
loop_
 _symmetry_equiv_pos_site_id
 _symmetry_equiv_pos_as_xyz
  1  'x, y, z'
loop_
 _atom_site_type_symbol
 _atom_site_label
 _atom_site_symmetry_multiplicity
 _atom_site_fract_x
 _atom_site_fract_y
 _atom_site_fract_z
 _atom_site_occupancy
 _atom_site_pbe_bader_charge
 _atom_site_pbe_bader_spin_density
 _atom_site_pbe_cm5_charge
 _atom_site_pbe_ddec_charge
 _atom_site_pbe_ddec_spin_density
 _atom_site_pbe_ddec_sum_bond_order
 _atom_site_pbe_magmom
Al  Al0  1  0.49791418  0.51698239  0.49850571  1  2.503217  0  0.394509  1.638158  0  2.587323  0
Al  Al1  1  0.99792858  0.51656608  0.50008724  1  2.501881  0  0.395309  1.639801  0  2.572812  0
H  H2  1  0.29179341  0.38903881  0.55474241  1  0.627163  0  0.346492  0.422259  0  0.874671  0
H  H3  1  0.76826321  0.57527949  0.40353775  1  0.593285  0  0.349572  0.423816  0  0.864931  0
H  H4  1  0.71537449  0.41044215  0.27705978  1  0.104421  0  0.105389  0.116745  0  1.004524  0
H  H5  1  0.78858029  0.38698259  0.13555963  1  0.095016  0  0.100852  0.106149  0  1.006634  0
H  H6  1  0.04913800  0.53960025  0.26336612  1  0.08317  0  0.106108  0.118766  0  1.006913  0
H  H7  1  0.90995525  0.54354511  0.73443254  1  0.104601  0  0.111779  0.128841  0  0.995098  0
H  H8  1  0.33374721  0.45784923  0.72601136  1  0.098434  0  0.106876  0.117548  0  1.006071  0
H  H9  1  0.27921210  0.41811872  0.87086568  1  0.062382  0  0.098527  0.101874  0  1.028817  0
H  H10  1  0.12529668  0.53244986  0.05368560  1  0.463842  0  0.297969  0.291883  0  0.972362  0
H  H11  1  0.94289819  0.56978950  0.13446526  1  0.449235  0  0.311482  0.306585  0  0.937384  0
H  H12  1  0.82697681  0.52112172  0.94708404  1  0.463228  0  0.297517  0.291103  0  0.974975  0
H  H13  1  0.97759612  0.56338958  0.86390809  1  0.450807  0  0.311017  0.30619  0  0.942792  0
H  H14  1  0.54441722  0.80851501  0.46372348  1  0.084847  0  0.100695  0.152844  0  1.003638  0
H  H15  1  0.50091158  0.93880113  0.40750849  1  0.009811  0  0.085125  0.120593  0  1.012599  0
H  H16  1  0.44637413  0.82495720  0.37570471  1  0.052017  0  0.098664  0.1431  0  0.976994  0
H  H17  1  0.54365640  0.22086818  0.61910913  1  0.064268  0  0.100167  0.145021  0  0.98349  0
H  H18  1  0.51198894  0.08981518  0.60897199  1  0.057944  0  0.090768  0.129479  0  0.995022  0
H  H19  1  0.44542326  0.20101655  0.53714830  1  0.052391  0  0.090913  0.127722  0  1.035558  0
C  C20  1  0.85899137  0.31837580  0.50579973  1  1.57146  0  0.25333  0.648363  0  4.148421  0
C  C21  1  0.66425488  0.51986798  0.63666609  1  1.579163  0  0.269227  0.639692  0  4.099398  0
C  C22  1  0.13673093  0.71144286  0.49560704  1  1.572719  0  0.259762  0.650892  0  4.143436  0
C  C23  1  0.33369369  0.49768960  0.36120607  1  1.567022  0  0.264168  0.640183  0  4.082289  0
C  C24  1  0.37763843  0.47829484  0.27768817  1  -0.006471  0  -0.019268  -0.026063  0  4.016471  0
C  C25  1  0.58723240  0.43408091  0.24232521  1  -0.021587  0  -0.104557  -0.139373  0  4.03442  0
C  C26  1  0.62702796  0.42079876  0.16386741  1  -0.078696  0  -0.091719  -0.119433  0  4.010048  0
C  C27  1  0.46124321  0.45220427  0.11872518  1  0.162946  0  -0.015925  0.025802  0  4.094923  0
C  C28  1  0.24785095  0.49446298  0.15506504  1  0.388371  0  0.103673  0.267692  0  4.070001  0
C  C29  1  0.21041377  0.50613326  0.23458614  1  -0.013146  0  -0.098663  -0.218163  0  3.949601  0
C  C30  1  0.50130721  0.44801196  0.03764754  1  -0.279673  0  -0.052119  -0.112855  0  4.152399  0
C  C31  1  0.51918075  0.45247147  0.96690330  1  -0.170191  0  -0.050422  -0.109486  0  4.15326  0
C  C32  1  0.55560822  0.46558031  0.88504012  1  0.068453  0  -0.018817  0.020747  0  4.098514  0
C  C33  1  0.73704764  0.50182710  0.84663754  1  0.483848  0  0.105873  0.272031  0  4.063368  0
C  C34  1  0.77029066  0.51813633  0.76536620  1  -0.058254  0  -0.095392  -0.218879  0  3.934664  0
C  C35  1  0.62427123  0.50384853  0.72298459  1  -0.025717  0  -0.014143  -0.016416  0  4.016793  0
C  C36  1  0.44408498  0.46946166  0.76057584  1  -0.0183  0  -0.104322  -0.143169  0  4.032176  0
C  C37  1  0.41398607  0.44831525  0.84072345  1  -0.060337  0  -0.093888  -0.123127  0  4.018455  0
C  C38  1  0.21564003  0.89952759  0.46808962  1  0.127327  0  -0.002918  0.14677  0  3.964894  0
C  C39  1  0.78120208  0.12987401  0.53512821  1  0.024092  0  -0.004776  0.144655  0  3.967095  0
C  C40  1  0.08437417  0.83017000  0.49767095  1  -0.15981  0  -0.024041  -0.198782  0  3.92572  0
C  C41  1  0.91148258  0.19941817  0.50484445  1  -0.156318  0  -0.026848  -0.199213  0  3.932308  0
C  C42  1  0.89353407  0.02078988  0.52111692  1  -0.163168  0  -0.026146  -0.081406  0  4.081066  0
C  C43  1  0.10269456  0.00859120  0.48183496  1  -0.19539  0  -0.026158  -0.080476  0  4.076626  0
C  C44  1  0.43884624  0.86667590  0.42665938  1  -0.034845  0  -0.236721  -0.404891  0  3.968305  0
C  C45  1  0.55898063  0.16215644  0.57760698  1  -0.034417  0  -0.235384  -0.398641  0  3.96348  0
S  S46  1  0.83092753  0.89672485  0.54086108  1  0.240646  0  0.086326  0.125928  0  2.820506  0
S  S47  1  0.16449344  0.13288935  0.46133184  1  0.234527  0  0.083309  0.122902  0  2.828246  0
N  N48  1  0.08402268  0.52123999  0.11206777  1  -1.288884  0  -0.589934  -0.614001  0  3.354176  0
N  N49  1  0.87801180  0.51687292  0.88944358  1  -1.269346  0  -0.590407  -0.613591  0  3.362724  0
O  O50  1  0.66201885  0.36810272  0.52046788  1  -1.265546  0  -0.237875  -0.597158  0  2.363435  0
O  O51  1  0.85720523  0.50477535  0.60433625  1  -1.263978  0  -0.233346  -0.587267  0  2.351812  0
O  O52  1  0.98412628  0.66540836  0.51120039  1  -1.252355  0  -0.238286  -0.582481  0  2.315621  0
O  O53  1  0.49449414  0.48639770  0.39458753  1  -1.258858  0  -0.239847  -0.600353  0  2.336257  0
O  O54  1  0.33253238  0.66226616  0.47770228  1  -1.269741  0  -0.230408  -0.581526  0  2.359035  0
O  O55  1  0.13947490  0.52587984  0.39305758  1  -1.264137  0  -0.242231  -0.608508  0  2.341383  0
O  O56  1  0.01311116  0.36357316  0.49213633  1  -1.251875  0  -0.247824  -0.604513  0  2.32495  0
O  O57  1  0.50394003  0.54420751  0.60138755  1  -1.248939  0  -0.236748  -0.583787  0  2.327803  0
O  O58  1  0.25738811  0.46616812  0.53586823  1  -1.433083  0  -0.44946  -0.987887  0  2.204464  0
O  O59  1  0.74355200  0.56291210  0.45964275  1  -1.399472  0  -0.446804  -0.98269  0  2.191115  0
