# generated using pymatgen
data_PrH8C6NO7
_symmetry_space_group_name_H-M   'P 1'
_cell_length_a   6.99853832
_cell_length_b   10.17746823
_cell_length_c   12.11162176
_cell_angle_alpha   90.00003586
_cell_angle_beta   90.00000037
_cell_angle_gamma   90.00001559
_symmetry_Int_Tables_number   1
_chemical_formula_structural   PrH8C6NO7
_chemical_formula_sum   'Pr4 H32 C24 N4 O28'
_cell_volume   862.67934491
_cell_formula_units_Z   4
loop_
 _symmetry_equiv_pos_site_id
 _symmetry_equiv_pos_as_xyz
  1  'x, y, z'
loop_
 _atom_site_type_symbol
 _atom_site_label
 _atom_site_symmetry_multiplicity
 _atom_site_fract_x
 _atom_site_fract_y
 _atom_site_fract_z
 _atom_site_occupancy
 _atom_site_hle17_bader_spin_density
 _atom_site_hle17_ddec_charge
 _atom_site_hle17_ddec_spin_density
 _atom_site_hle17_ddec_sum_bond_order
 _atom_site_hle17_magmom
 _atom_site_hse06_10hf_bader_spin_density
 _atom_site_hse06_10hf_ddec_charge
 _atom_site_hse06_10hf_ddec_spin_density
 _atom_site_hse06_10hf_ddec_sum_bond_order
 _atom_site_hse06_10hf_magmom
 _atom_site_hse06_bader_spin_density
 _atom_site_hse06_ddec_charge
 _atom_site_hse06_ddec_spin_density
 _atom_site_hse06_ddec_sum_bond_order
 _atom_site_hse06_magmom
 _atom_site_pbe_bader_spin_density
 _atom_site_pbe_cm5_charge
 _atom_site_pbe_ddec_charge
 _atom_site_pbe_ddec_spin_density
 _atom_site_pbe_ddec_sum_bond_order
 _atom_site_pbe_magmom
Pr  Pr0  1  0.13514682  0.14873263  0.39792528  1  0  2.331597  0  1.56595  0  0  2.209022  0  1.929119  0  0  2.247813  0  1.88867  0  0  1.480267  2.125584  0  2.05944  0
Pr  Pr1  1  0.36485350  0.85126709  0.89792457  1  0  2.331598  0  1.565918  0  0  2.209048  0  1.92908  0  0  2.247837  0  1.888632  0  0  1.480289  2.125605  0  2.059399  0
Pr  Pr2  1  0.86485358  0.64873219  0.10207486  1  0  2.3316  0  1.565938  0  0  2.209027  0  1.929103  0  0  2.247818  0  1.888653  0  0  1.480268  2.125588  0  2.059422  0
Pr  Pr3  1  0.63514841  0.35126643  0.60207388  1  0  2.3316  0  1.565934  0  0  2.209028  0  1.929103  0  0  2.247823  0  1.888651  0  0  1.480266  2.125592  0  2.059421  0
H  H4  1  0.26966503  0.72569737  0.42829544  1  0  0.098454  0  0.924735  0  0  0.112866  0  0.986126  0  0  0.114962  0  0.9847  0  0  0.113643  0.111111  0  0.98781  0
H  H5  1  0.23033530  0.27430140  0.92829607  1  0  0.098488  0  0.924649  0  0  0.112865  0  0.986082  0  0  0.114964  0  0.984654  0  0  0.113636  0.11111  0  0.987767  0
H  H6  1  0.73033540  0.22569768  0.07170392  1  0  0.098477  0  0.924648  0  0  0.112849  0  0.986088  0  0  0.114946  0  0.98466  0  0  0.113627  0.111094  0  0.987772  0
H  H7  1  0.76966516  0.77430189  0.57170399  1  0  0.098479  0  0.92463  0  0  0.112857  0  0.986065  0  0  0.114955  0  0.984637  0  0  0.113625  0.111101  0  0.98775  0
H  H8  1  0.40417598  0.77766409  0.31492087  1  0  0.127773  0  0.905792  0  0  0.143759  0  0.958888  0  0  0.146361  0  0.957611  0  0  0.128047  0.14163  0  0.960405  0
H  H9  1  0.09582435  0.22233459  0.81492148  1  0  0.127799  0  0.90579  0  0  0.143782  0  0.958873  0  0  0.146385  0  0.957598  0  0  0.128061  0.141653  0  0.960389  0
H  H10  1  0.59582304  0.27766446  0.18507768  1  0  0.127793  0  0.905807  0  0  0.143776  0  0.958888  0  0  0.146381  0  0.957607  0  0  0.128059  0.141647  0  0.960404  0
H  H11  1  0.90417752  0.72233617  0.68507773  1  0  0.127772  0  0.905808  0  0  0.143756  0  0.958897  0  0  0.14636  0  0.957617  0  0  0.128041  0.141628  0  0.960413  0
H  H12  1  0.48545156  0.95054512  0.59610291  1  0  0.119523  0  0.926908  0  0  0.133963  0  0.986866  0  0  0.136461  0  0.985122  0  0  0.129279  0.131892  0  0.988647  0
H  H13  1  0.01454733  0.04945438  0.09610358  1  0  0.11956  0  0.926867  0  0  0.133963  0  0.986876  0  0  0.136452  0  0.985155  0  0  0.129276  0.131892  0  0.988656  0
H  H14  1  0.51454611  0.45054564  0.90389806  1  0  0.119552  0  0.926885  0  0  0.133953  0  0.986891  0  0  0.13645  0  0.985144  0  0  0.129275  0.131883  0  0.988673  0
H  H15  1  0.98545303  0.54945516  0.40389734  1  0  0.119552  0  0.926879  0  0  0.133957  0  0.986893  0  0  0.136455  0  0.985147  0  0  0.129276  0.131886  0  0.988675  0
H  H16  1  0.38527918  0.79418303  0.57472011  1  0  0.091733  0  0.953827  0  0  0.10544  0  1.016977  0  0  0.107148  0  1.01597  0  0  0.111629  0.104028  0  1.017902  0
H  H17  1  0.11471971  0.20581645  0.07471920  1  0  0.091673  0  0.953923  0  0  0.105425  0  1.017001  0  0  0.107132  0  1.015994  0  0  0.111625  0.104014  0  1.017928  0
H  H18  1  0.61471843  0.29418260  0.92528079  1  0  0.091683  0  0.953884  0  0  0.105427  0  1.016964  0  0  0.107133  0  1.015958  0  0  0.111638  0.104017  0  1.01789  0
H  H19  1  0.88528071  0.70581723  0.42528097  1  0  0.091715  0  0.95383  0  0  0.10543  0  1.016965  0  0  0.107136  0  1.01596  0  0  0.111643  0.104018  0  1.01789  0
H  H20  1  0.55598200  0.96218445  0.30996948  1  0  0.118095  0  0.954249  0  0  0.131878  0  1.014199  0  0  0.134976  0  1.011587  0  0  0.126716  0.129274  0  1.016645  0
H  H21  1  0.94401571  0.03781628  0.80996999  1  0  0.118086  0  0.954254  0  0  0.131872  0  1.0142  0  0  0.13497  0  1.011588  0  0  0.126721  0.12927  0  1.016642  0
H  H22  1  0.44401709  0.46218578  0.19003000  1  0  0.118091  0  0.954283  0  0  0.131877  0  1.014214  0  0  0.134974  0  1.011603  0  0  0.126737  0.129274  0  1.016658  0
H  H23  1  0.05598180  0.53781575  0.69003077  1  0  0.118085  0  0.954256  0  0  0.131874  0  1.014199  0  0  0.134972  0  1.011587  0  0  0.126719  0.129272  0  1.016642  0
H  H24  1  0.66721093  0.89144393  0.42718745  1  0  0.094338  0  0.92177  0  0  0.106961  0  0.986096  0  0  0.109243  0  0.984492  0  0  0.108496  0.105104  0  0.98762  0
H  H25  1  0.83278821  0.10855493  0.92718717  1  0  0.094338  0  0.921777  0  0  0.106959  0  0.986109  0  0  0.109241  0  0.984505  0  0  0.108506  0.105102  0  0.987635  0
H  H26  1  0.33278957  0.39144417  0.07281364  1  0  0.09434  0  0.921795  0  0  0.106953  0  0.986124  0  0  0.109236  0  0.984517  0  0  0.108502  0.105096  0  0.98765  0
H  H27  1  0.16721076  0.60855531  0.57281362  1  0  0.094352  0  0.92176  0  0  0.106965  0  0.986106  0  0  0.109248  0  0.984498  0  0  0.108504  0.105109  0  0.98763  0
H  H28  1  0.36573646  0.42004766  0.36224805  1  0  0.448967  0  0.843589  0  0  0.418089  0  0.90611  0  0  0.429593  0  0.889172  0  0  0.301654  0.409647  0  0.918442  0
H  H29  1  0.13426244  0.57995203  0.86224719  1  0  0.448956  0  0.8436  0  0  0.418079  0  0.906121  0  0  0.429584  0  0.889183  0  0  0.301644  0.409635  0  0.918456  0
H  H30  1  0.63426263  0.92004818  0.13775223  1  0  0.448967  0  0.843591  0  0  0.41809  0  0.906111  0  0  0.429595  0  0.889172  0  0  0.301646  0.409647  0  0.918446  0
H  H31  1  0.86573651  0.07995242  0.63775194  1  0  0.448969  0  0.843588  0  0  0.418086  0  0.906118  0  0  0.42959  0  0.88918  0  0  0.301635  0.409643  0  0.918452  0
H  H32  1  0.17700133  0.41626082  0.27895284  1  0  0.43931  0  0.855842  0  0  0.410348  0  0.916703  0  0  0.421145  0  0.90068  0  0  0.303866  0.402303  0  0.928567  0
H  H33  1  0.32299757  0.58373882  0.77895281  1  0  0.439305  0  0.855849  0  0  0.410345  0  0.916706  0  0  0.421141  0  0.900684  0  0  0.303864  0.402298  0  0.928572  0
H  H34  1  0.82299775  0.91626143  0.22104744  1  0  0.439314  0  0.855836  0  0  0.410355  0  0.916693  0  0  0.42115  0  0.90067  0  0  0.303865  0.402307  0  0.928559  0
H  H35  1  0.67699996  0.08373923  0.72104714  1  0  0.439309  0  0.855843  0  0  0.410358  0  0.91669  0  0  0.421153  0  0.900667  0  0  0.30386  0.402311  0  0.928554  0
C  C36  1  0.11317380  0.83114495  0.30789705  1  0  0.72451  0  3.842135  0  0  0.676446  0  4.147616  0  0  0.710323  0  4.137209  0  0  0.230471  0.65328  0  4.150384  0
C  C37  1  0.38682653  0.16885373  0.80789681  1  0  0.724573  0  3.84223  0  0  0.676558  0  4.147651  0  0  0.710438  0  4.137243  0  0  0.230531  0.653401  0  4.150409  0
C  C38  1  0.88682525  0.33114538  0.19210401  1  0  0.724699  0  3.842055  0  0  0.676649  0  4.147503  0  0  0.710527  0  4.137094  0  0  0.230562  0.653484  0  4.150272  0
C  C39  1  0.61317532  0.66885330  0.69210237  1  0  0.72463  0  3.842134  0  0  0.676594  0  4.147577  0  0  0.710472  0  4.137167  0  0  0.230532  0.653428  0  4.150346  0
C  C40  1  0.29502320  0.81094841  0.37408472  1  0  -0.170737  0  3.626198  0  0  -0.221901  0  3.875034  0  0  -0.223754  0  3.881331  0  0  -0.062213  -0.220627  0  3.869961  0
C  C41  1  0.20497713  0.18905031  0.87408448  1  0  -0.170883  0  3.626314  0  0  -0.221999  0  3.875089  0  0  -0.223865  0  3.881405  0  0  -0.062255  -0.220727  0  3.870014  0
C  C42  1  0.70497584  0.31094876  0.12591551  1  0  -0.170863  0  3.62626  0  0  -0.221979  0  3.875056  0  0  -0.223837  0  3.881363  0  0  -0.062235  -0.220703  0  3.86998  0
C  C43  1  0.79502329  0.68905085  0.62591471  1  0  -0.170803  0  3.626234  0  0  -0.221929  0  3.87503  0  0  -0.223786  0  3.881333  0  0  -0.062189  -0.220654  0  3.869955  0
C  C44  1  0.36425053  0.89926318  0.55770094  1  0  -0.19099  0  3.659034  0  0  -0.244676  0  3.910601  0  0  -0.246471  0  3.917685  0  0  -0.06663  -0.242775  0  3.903599  0
C  C45  1  0.13574980  0.10073629  0.05770080  1  0  -0.191002  0  3.659014  0  0  -0.244687  0  3.910568  0  0  -0.246476  0  3.917641  0  0  -0.066632  -0.242787  0  3.90357  0
C  C46  1  0.63574998  0.39926375  0.94229918  1  0  -0.190973  0  3.659008  0  0  -0.244645  0  3.910532  0  0  -0.246429  0  3.917603  0  0  -0.066628  -0.24275  0  3.903538  0
C  C47  1  0.86425059  0.60073806  0.44229931  1  0  -0.191014  0  3.658978  0  0  -0.244681  0  3.91053  0  0  -0.246472  0  3.917611  0  0  -0.066653  -0.242781  0  3.903528  0
C  C48  1  0.18911397  0.94418104  0.62261051  1  0  0.729353  0  3.819409  0  0  0.682525  0  4.126305  0  0  0.716105  0  4.116055  0  0  0.23017  0.659488  0  4.129396  0
C  C49  1  0.31088493  0.05581848  0.12261118  1  0  0.729377  0  3.819398  0  0  0.682528  0  4.126323  0  0  0.716099  0  4.116084  0  0  0.230162  0.659491  0  4.129415  0
C  C50  1  0.81088227  0.44418160  0.87738881  1  0  0.729304  0  3.819509  0  0  0.6825  0  4.126348  0  0  0.716073  0  4.116106  0  0  0.230156  0.659464  0  4.129439  0
C  C51  1  0.68911544  0.55582115  0.37738891  1  0  0.729461  0  3.819306  0  0  0.682627  0  4.126205  0  0  0.716202  0  4.115959  0  0  0.23019  0.65959  0  4.129299  0
C  C52  1  0.55611489  0.96145936  0.40038842  1  0  -0.1856  0  3.67562  0  0  -0.241818  0  3.9329  0  0  -0.243427  0  3.938217  0  0  -0.068175  -0.240307  0  3.927772  0
C  C53  1  0.94388425  0.03853948  0.90038893  1  0  -0.185664  0  3.675706  0  0  -0.241883  0  3.933004  0  0  -0.243493  0  3.938316  0  0  -0.068258  -0.240374  0  3.927875  0
C  C54  1  0.44388421  0.46145964  0.09961189  1  0  -0.185691  0  3.675749  0  0  -0.241867  0  3.93301  0  0  -0.243475  0  3.938325  0  0  -0.068251  -0.240358  0  3.927883  0
C  C55  1  0.05611611  0.53853986  0.59961183  1  0  -0.185636  0  3.675706  0  0  -0.241879  0  3.932983  0  0  -0.243488  0  3.938299  0  0  -0.068255  -0.240369  0  3.927853  0
C  C56  1  0.61303946  0.09834491  0.43564441  1  0  0.737438  0  3.851803  0  0  0.689808  0  4.156707  0  0  0.723818  0  4.144457  0  0  0.231541  0.666982  0  4.157237  0
C  C57  1  0.88695968  0.90165493  0.93564372  1  0  0.737514  0  3.85174  0  0  0.689849  0  4.15669  0  0  0.723859  0  4.144439  0  0  0.231602  0.667021  0  4.15722  0
C  C58  1  0.38696092  0.59834435  0.06435570  1  0  0.737512  0  3.85157  0  0  0.689814  0  4.156578  0  0  0.723822  0  4.144331  0  0  0.231544  0.666988  0  4.157109  0
C  C59  1  0.11304083  0.40165512  0.56435640  1  0  0.737355  0  3.851941  0  0  0.689763  0  4.156785  0  0  0.723772  0  4.144536  0  0  0.231541  0.666937  0  4.157314  0
N  N60  1  0.36359182  0.92487658  0.43780866  1  0  -0.218402  0  3.315541  0  0  -0.147539  0  3.569515  0  0  -0.159446  0  3.589059  0  0  -0.370517  -0.135429  0  3.552638  0
N  N61  1  0.13640708  0.07512219  0.93780837  1  0  -0.218369  0  3.315513  0  0  -0.147511  0  3.569464  0  0  -0.159415  0  3.589006  0  0  -0.370506  -0.135405  0  3.552592  0
N  N62  1  0.63640726  0.42487687  0.06219162  1  0  -0.218339  0  3.315514  0  0  -0.14751  0  3.569472  0  0  -0.159419  0  3.589015  0  0  -0.370506  -0.135401  0  3.552599  0
N  N63  1  0.86359330  0.57512269  0.56219159  1  0  -0.218397  0  3.315567  0  0  -0.147529  0  3.569522  0  0  -0.159437  0  3.589066  0  0  -0.370505  -0.135421  0  3.552645  0
O  O64  1  0.02248203  0.93996866  0.31306485  1  0  -0.730889  0  2.058178  0  0  -0.680173  0  2.308153  0  0  -0.704407  0  2.29629  0  0  -0.375351  -0.656573  0  2.316584  0
O  O65  1  0.47751687  0.06002903  0.81306372  1  0  -0.730834  0  2.058169  0  0  -0.680192  0  2.308173  0  0  -0.704427  0  2.296306  0  0  -0.37537  -0.656599  0  2.316613  0
O  O66  1  0.97751563  0.43996911  0.18693545  1  0  -0.73095  0  2.058163  0  0  -0.680246  0  2.308149  0  0  -0.704482  0  2.296282  0  0  -0.375385  -0.656649  0  2.316588  0
O  O67  1  0.52248493  0.56003055  0.68693458  1  0  -0.73092  0  2.058282  0  0  -0.680218  0  2.308259  0  0  -0.704455  0  2.296393  0  0  -0.375365  -0.656621  0  2.316695  0
O  O68  1  0.06228744  0.73309205  0.25172618  1  0  -0.704108  0  2.057734  0  0  -0.65852  0  2.316866  0  0  -0.682482  0  2.306025  0  0  -0.396068  -0.635311  0  2.326083  0
O  O69  1  0.43771289  0.26690658  0.75172599  1  0  -0.704106  0  2.057755  0  0  -0.65854  0  2.316864  0  0  -0.6825  0  2.306019  0  0  -0.396051  -0.635331  0  2.326076  0
O  O70  1  0.93771157  0.23309155  0.24827482  1  0  -0.704161  0  2.057688  0  0  -0.658581  0  2.316812  0  0  -0.682541  0  2.305967  0  0  -0.396082  -0.635368  0  2.326027  0
O  O71  1  0.56228900  0.76690717  0.74827324  1  0  -0.704143  0  2.05759  0  0  -0.658589  0  2.316732  0  0  -0.682549  0  2.305889  0  0  -0.396087  -0.635376  0  2.325947  0
O  O72  1  0.07372540  0.02399145  0.57538290  1  0  -0.720164  0  2.014021  0  0  -0.666424  0  2.256231  0  0  -0.690375  0  2.243615  0  0  -0.365577  -0.64355  0  2.266068  0
O  O73  1  0.42627349  0.97600901  0.07538323  1  0  -0.720139  0  2.014015  0  0  -0.666396  0  2.256236  0  0  -0.690344  0  2.243623  0  0  -0.365568  -0.64352  0  2.266072  0
O  O74  1  0.92627353  0.52399126  0.92461703  1  0  -0.720122  0  2.014049  0  0  -0.666396  0  2.256241  0  0  -0.690344  0  2.243627  0  0  -0.365572  -0.643522  0  2.266078  0
O  O75  1  0.57372704  0.47600858  0.42461626  1  0  -0.720208  0  2.013999  0  0  -0.666473  0  2.256209  0  0  -0.690423  0  2.243594  0  0  -0.365598  -0.643601  0  2.266057  0
O  O76  1  0.17081157  0.90240448  0.72024152  1  0  -0.700309  0  1.976728  0  0  -0.657195  0  2.226863  0  0  -0.681546  0  2.217274  0  0  -0.362782  -0.634258  0  2.235102  0
O  O77  1  0.32918733  0.09759609  0.22024138  1  0  -0.70033  0  1.976706  0  0  -0.657212  0  2.226848  0  0  -0.681561  0  2.217265  0  0  -0.362788  -0.634277  0  2.235088  0
O  O78  1  0.82918323  0.40240693  0.77975778  1  0  -0.700291  0  1.976738  0  0  -0.657197  0  2.226872  0  0  -0.681547  0  2.217288  0  0  -0.362784  -0.63426  0  2.235109  0
O  O79  1  0.67081162  0.59759967  0.27975955  1  0  -0.700369  0  1.976664  0  0  -0.657247  0  2.226793  0  0  -0.681597  0  2.217206  0  0  -0.36278  -0.634311  0  2.235035  0
O  O80  1  0.47934442  0.17670134  0.46761703  1  0  -0.805929  0  2.069662  0  0  -0.758299  0  2.331128  0  0  -0.781401  0  2.317845  0  0  -0.412274  -0.730113  0  2.338686  0
O  O81  1  0.02065591  0.82329844  0.96761547  1  0  -0.805968  0  2.069625  0  0  -0.758318  0  2.331103  0  0  -0.781419  0  2.317819  0  0  -0.412275  -0.730133  0  2.338661  0
O  O82  1  0.52065885  0.67670077  0.03238147  1  0  -0.805966  0  2.069629  0  0  -0.758285  0  2.33107  0  0  -0.781388  0  2.317789  0  0  -0.412221  -0.730099  0  2.338627  0
O  O83  1  0.97934457  0.32329877  0.53238296  1  0  -0.805935  0  2.069699  0  0  -0.758325  0  2.331167  0  0  -0.781426  0  2.317883  0  0  -0.412287  -0.730138  0  2.338725  0
O  O84  1  0.78479247  0.13138360  0.43228566  1  0  -0.69619  0  2.104878  0  0  -0.653127  0  2.367687  0  0  -0.675342  0  2.355363  0  0  -0.368294  -0.629091  0  2.374224  0
O  O85  1  0.71520809  0.86861526  0.93228661  1  0  -0.696167  0  2.104865  0  0  -0.653097  0  2.367698  0  0  -0.675312  0  2.355373  0  0  -0.368324  -0.629061  0  2.374233  0
O  O86  1  0.21520935  0.63138497  0.06771364  1  0  -0.696167  0  2.104726  0  0  -0.653099  0  2.367587  0  0  -0.675313  0  2.355264  0  0  -0.368304  -0.629053  0  2.374102  0
O  O87  1  0.28479383  0.36861647  0.56771515  1  0  -0.696067  0  2.104904  0  0  -0.653004  0  2.367669  0  0  -0.675219  0  2.355347  0  0  -0.368239  -0.628969  0  2.374208  0
O  O88  1  0.25198984  0.36998214  0.33627711  1  0  -0.937788  0  1.892392  0  0  -0.891432  0  2.089077  0  0  -0.909295  0  2.055288  0  0  -0.647901  -0.872285  0  2.116564  0
O  O89  1  0.24801049  0.63001753  0.83627711  1  0  -0.93779  0  1.892421  0  0  -0.891431  0  2.089093  0  0  -0.909294  0  2.055305  0  0  -0.647897  -0.872284  0  2.116581  0
O  O90  1  0.74801208  0.86998369  0.16372232  1  0  -0.937798  0  1.892386  0  0  -0.891449  0  2.08907  0  0  -0.90931  0  2.055279  0  0  -0.647894  -0.872303  0  2.11656  0
O  O91  1  0.75198991  0.13001792  0.66372370  1  0  -0.937803  0  1.892383  0  0  -0.891445  0  2.089055  0  0  -0.909307  0  2.055267  0  0  -0.647883  -0.872298  0  2.116543  0
