# generated using pymatgen
data_CoPH4C5NO3
_symmetry_space_group_name_H-M   'P 1'
_cell_length_a   5.11375322
_cell_length_b   8.44413002
_cell_length_c   14.99810072
_cell_angle_alpha   89.99994473
_cell_angle_beta   90.00017080
_cell_angle_gamma   94.32181247
_symmetry_Int_Tables_number   1
_chemical_formula_structural   CoPH4C5NO3
_chemical_formula_sum   'Co4 P4 H16 C20 N4 O12'
_cell_volume   645.79440035
_cell_formula_units_Z   4
loop_
 _symmetry_equiv_pos_site_id
 _symmetry_equiv_pos_as_xyz
  1  'x, y, z'
loop_
 _atom_site_type_symbol
 _atom_site_label
 _atom_site_symmetry_multiplicity
 _atom_site_fract_x
 _atom_site_fract_y
 _atom_site_fract_z
 _atom_site_occupancy
 _atom_site_hle17_ddec_charge
 _atom_site_hle17_ddec_spin_density
 _atom_site_hle17_ddec_sum_bond_order
 _atom_site_hle17_magmom
 _atom_site_hse06_10hf_ddec_charge
 _atom_site_hse06_10hf_ddec_spin_density
 _atom_site_hse06_10hf_ddec_sum_bond_order
 _atom_site_hse06_10hf_magmom
 _atom_site_hse06_ddec_charge
 _atom_site_hse06_ddec_spin_density
 _atom_site_hse06_ddec_sum_bond_order
 _atom_site_hse06_magmom
 _atom_site_pbe_cm5_charge
 _atom_site_pbe_ddec_charge
 _atom_site_pbe_ddec_spin_density
 _atom_site_pbe_ddec_sum_bond_order
 _atom_site_pbe_magmom
Co  Co0  1  0.78717174  0.51872126  0.70132439  1  1.107545  -2.841603  1.94992  -2.553  1.065961  -2.83001  2.385101  -2.608  1.141912  -2.869975  2.311987  -2.688  0.698137  0.996666  -2.793939  2.452725  -2.533
Co  Co1  1  0.71282937  0.98127946  0.20132492  1  1.107497  -2.841608  1.949947  -2.553  1.065918  -2.83001  2.385134  -2.608  1.141876  -2.869974  2.312014  -2.688  0.698108  0.996627  -2.793939  2.452759  -2.533
Co  Co2  1  0.21282875  0.48127897  0.29867513  1  1.107513  -2.841611  1.94997  -2.553  1.065925  -2.830009  2.385148  -2.608  1.141876  -2.869972  2.312029  -2.688  0.698122  0.996631  -2.793952  2.452766  -2.533
Co  Co3  1  0.28716916  0.01872078  0.79867527  1  1.107531  -2.841611  1.949914  -2.553  1.065956  -2.830011  2.3851  -2.608  1.141907  -2.869977  2.311986  -2.688  0.698122  0.996663  -2.793962  2.452714  -2.533
P  P4  1  0.73678684  0.80332125  0.83627071  1  1.462106  -0.009202  4.940577  -0.005  1.314078  -0.015701  5.451297  -0.012  1.370789  -0.011685  5.416932  -0.01  0.352472  1.273245  -0.0193  5.467829  -0.013
P  P5  1  0.76321509  0.69667692  0.33627078  1  1.462178  -0.009196  4.940439  -0.005  1.314141  -0.015701  5.451144  -0.012  1.370851  -0.011685  5.41678  -0.01  0.352496  1.273313  -0.0193  5.467678  -0.013
P  P6  1  0.26321348  0.19667779  0.16372881  1  1.462155  -0.009192  4.940411  -0.005  1.314116  -0.015701  5.451118  -0.012  1.370823  -0.011684  5.416761  -0.01  0.352492  1.273283  -0.019301  5.467653  -0.013
P  P7  1  0.23678523  0.30332212  0.66372874  1  1.462089  -0.009203  4.940492  -0.005  1.314056  -0.015701  5.451207  -0.012  1.370768  -0.011685  5.416841  -0.01  0.352465  1.273218  -0.019301  5.467741  -0.013
H  H8  1  0.86011490  0.93711964  0.01501275  1  0.081961  -0.000612  0.982989  -0.002  0.089853  -0.000408  1.049404  -0.001  0.092229  -0.000218  1.047163  -0.001  0.115615  0.088019  -0.000602  1.051132  -0.002
H  H9  1  0.63988674  0.56288249  0.51501338  1  0.081991  -0.000612  0.982997  -0.002  0.089884  -0.000408  1.049409  -0.001  0.092261  -0.000218  1.047165  -0.001  0.115626  0.088048  -0.000602  1.051137  -0.002
H  H10  1  0.13988201  0.06288298  0.98498611  1  0.081997  -0.000612  0.983029  -0.002  0.089889  -0.000408  1.049444  -0.001  0.092272  -0.000218  1.04719  -0.001  0.115647  0.088054  -0.000601  1.051171  -0.002
H  H11  1  0.36011407  0.43712011  0.48498681  1  0.081985  -0.000611  0.983036  -0.002  0.089876  -0.000408  1.049445  -0.001  0.092252  -0.000217  1.047204  -0.001  0.115625  0.08804  -0.000601  1.051174  -0.002
H  H12  1  0.26644622  0.60996138  0.89892312  1  0.111822  -0.000128  0.924407  -0.001  0.125228  0.000288  0.979265  0.0  0.128678  0.000299  0.975928  0.0  0.116289  0.122197  0.000287  0.982495  0.0
H  H13  1  0.23355520  0.89003502  0.39892172  1  0.111795  -0.000125  0.924433  -0.001  0.12521  0.000288  0.979287  0.0  0.12866  0.000299  0.97595  0.0  0.116293  0.12218  0.000287  0.982518  0.0
H  H14  1  0.73355020  0.39003768  0.10107840  1  0.11178  -0.000117  0.924427  -0.001  0.125195  0.000288  0.979288  0.0  0.128645  0.000299  0.97595  0.0  0.116284  0.122165  0.000287  0.982518  0.0
H  H15  1  0.76644708  0.10996401  0.60107647  1  0.111782  -0.000127  0.92449  -0.001  0.125259  0.000288  0.979267  0.0  0.128711  0.000299  0.975925  0.0  0.116292  0.122222  0.000287  0.982494  0.0
H  H16  1  0.06500861  0.58326427  0.05286523  1  0.108035  -2.9e-05  0.953695  0.0  0.119786  -0.00023  1.010201  0.0  0.122366  -0.000124  1.010556  0.0  0.110877  0.117844  -0.00036  1.010323  -0.001
H  H17  1  0.43499214  0.91673495  0.55286397  1  0.108053  -3e-05  0.953769  0.0  0.119796  -0.00023  1.010263  0.0  0.122377  -0.000124  1.010616  0.0  0.110898  0.117853  -0.00036  1.01039  -0.001
H  H18  1  0.93499171  0.41673478  0.94713696  1  0.107987  -3.6e-05  0.953729  0.0  0.119746  -0.00023  1.010229  0.0  0.122324  -0.000123  1.010588  0.0  0.11087  0.117803  -0.00036  1.010351  -0.001
H  H19  1  0.56500835  0.08326528  0.44713421  1  0.10797  -2.9e-05  0.953764  0.0  0.11976  -0.00023  1.010224  0.0  0.122342  -0.000124  1.010576  0.0  0.110874  0.117818  -0.00036  1.010346  -0.001
H  H20  1  0.26127134  0.74399576  0.17668097  1  0.099148  -0.001072  0.96633  -0.002  0.102493  -0.00133  1.037308  -0.001  0.106182  -0.000945  1.032384  -0.001  0.121728  0.099617  -0.001737  1.04091  -0.002
H  H21  1  0.23873290  0.75600685  0.67668093  1  0.099148  -0.001073  0.966311  -0.002  0.102518  -0.00133  1.037253  -0.001  0.106209  -0.000945  1.032329  -0.001  0.121739  0.099643  -0.001737  1.040855  -0.002
H  H22  1  0.73873110  0.25600446  0.82332056  1  0.099107  -0.001074  0.966358  -0.002  0.102441  -0.00133  1.03734  -0.001  0.106131  -0.000945  1.032416  -0.001  0.121688  0.099565  -0.001737  1.040942  -0.002
H  H23  1  0.76126986  0.24399574  0.32331793  1  0.099147  -0.001073  0.966305  -0.002  0.102491  -0.00133  1.037283  -0.001  0.106181  -0.000945  1.032357  -0.001  0.121723  0.099616  -0.001737  1.040887  -0.002
C  C24  1  0.68523614  0.85649533  0.01958726  1  0.145762  0.025043  3.708276  0.017  0.108606  0.001623  3.956835  0.001  0.11853  0.000731  3.975852  0.0  0.04841  0.100869  0.003457  3.945372  0.002
C  C25  1  0.81476326  0.64350444  0.51958669  1  0.145752  0.025017  3.708166  0.017  0.108577  0.001624  3.956729  0.001  0.118503  0.000731  3.975742  0.0  0.048431  0.100839  0.003459  3.945268  0.002
C  C26  1  0.31476044  0.14350492  0.98041359  1  0.145699  0.025034  3.708217  0.017  0.108521  0.001624  3.956779  0.001  0.118447  0.000731  3.975792  0.0  0.048365  0.100778  0.00346  3.945326  0.002
C  C27  1  0.18523739  0.35649698  0.48041349  1  0.145743  0.025012  3.70822  0.017  0.108585  0.001624  3.956779  0.001  0.118514  0.00073  3.975791  0.0  0.048432  0.100854  0.003459  3.945296  0.002
C  C28  1  0.58430286  0.77467052  0.94506975  1  -0.289878  -0.015768  3.74874  -0.023  -0.245275  -0.005195  3.989191  -0.007  -0.260936  -0.003517  4.009727  -0.005  -0.020223  -0.235631  -0.007039  3.977794  -0.01
C  C29  1  0.91570407  0.72532867  0.44506862  1  -0.289947  -0.015754  3.74862  -0.023  -0.245329  -0.005195  3.989087  -0.007  -0.26099  -0.003518  4.00962  -0.005  -0.020274  -0.235682  -0.007039  3.977684  -0.01
C  C30  1  0.41569762  0.22532971  0.05493111  1  -0.289923  -0.01576  3.748695  -0.023  -0.24527  -0.005195  3.989116  -0.007  -0.260931  -0.003516  4.00965  -0.005  -0.020231  -0.235622  -0.007039  3.977714  -0.01
C  C31  1  0.08429836  0.27467155  0.55493023  1  -0.28989  -0.015751  3.748588  -0.023  -0.245304  -0.005195  3.989083  -0.007  -0.260969  -0.003518  4.009618  -0.005  -0.020283  -0.235659  -0.007039  3.977676  -0.01
C  C32  1  0.35511160  0.67391152  0.95595437  1  0.024865  0.028113  3.677041  0.018  -0.005224  0.003461  3.923378  0.002  0.004126  0.001165  3.937068  0.0  -0.054655  -0.013354  0.008091  3.917093  0.004
C  C33  1  0.14488818  0.82608363  0.45595358  1  0.024894  0.028077  3.677082  0.018  -0.005217  0.003461  3.923405  0.002  0.004125  0.001166  3.93711  0.0  -0.054657  -0.013346  0.008091  3.917122  0.004
C  C34  1  0.64488481  0.32608754  0.04404715  1  0.02492  0.028027  3.676989  0.018  -0.005213  0.003462  3.923355  0.002  0.004138  0.001167  3.937043  0.0  -0.05466  -0.013344  0.008094  3.917069  0.004
C  C35  1  0.85511197  0.17391422  0.54404528  1  0.024895  0.028079  3.677119  0.018  -0.005246  0.003462  3.923451  0.002  0.004102  0.001167  3.937147  0.0  -0.054649  -0.013365  0.008093  3.917153  0.004
C  C36  1  0.24069891  0.66054301  0.04017169  1  -0.105807  -0.012209  3.699813  -0.018  -0.116055  -0.002332  3.951614  -0.004  -0.124936  -0.00161  3.971933  -0.003  -0.078183  -0.11072  -0.003002  3.940292  -0.005
C  C37  1  0.25930563  0.83945621  0.54017096  1  -0.105835  -0.012199  3.699843  -0.018  -0.116062  -0.002332  3.951642  -0.004  -0.124942  -0.00161  3.97196  -0.003  -0.078219  -0.110728  -0.003002  3.940324  -0.005
C  C38  1  0.75929978  0.33945842  0.95982783  1  -0.105702  -0.012186  3.699739  -0.018  -0.115962  -0.002332  3.951535  -0.004  -0.12484  -0.00161  3.971858  -0.003  -0.078165  -0.110625  -0.003002  3.940208  -0.005
C  C39  1  0.74069892  0.16054519  0.45982789  1  -0.105714  -0.012196  3.699818  -0.018  -0.116003  -0.002332  3.95164  -0.004  -0.124885  -0.00161  3.971958  -0.003  -0.078166  -0.11067  -0.003002  3.940318  -0.005
C  C40  1  0.35186478  0.74842307  0.11088201  1  0.144583  0.02625  3.650343  0.018  0.112797  0.001516  3.910229  0.001  0.124426  0.000857  3.923011  0.001  0.05288  0.103751  0.003288  3.902516  0.002
C  C41  1  0.14813663  0.75157726  0.61088188  1  0.144591  0.026232  3.650198  0.018  0.112777  0.001515  3.910089  0.001  0.124404  0.000856  3.922871  0.001  0.052905  0.103732  0.003288  3.902377  0.002
C  C42  1  0.64813392  0.25157836  0.88911951  1  0.144579  0.026253  3.650403  0.018  0.112838  0.001516  3.910242  0.001  0.124464  0.000858  3.923028  0.001  0.052948  0.103794  0.003289  3.902522  0.002
C  C43  1  0.85186581  0.24842296  0.38911764  1  0.144547  0.026224  3.650325  0.018  0.112767  0.001516  3.910209  0.001  0.124396  0.000855  3.922991  0.001  0.052879  0.103717  0.003289  3.902497  0.002
N  N44  1  0.57196951  0.84535962  0.10084549  1  -0.35873  -0.048923  3.369468  -0.084  -0.306914  -0.031524  3.670308  -0.046  -0.333351  -0.025085  3.680432  -0.036  -0.34329  -0.28672  -0.037162  3.664236  -0.054
N  N45  1  0.92802895  0.65464242  0.60084571  1  -0.358693  -0.048911  3.369364  -0.084  -0.306865  -0.031524  3.670208  -0.046  -0.3333  -0.025084  3.680333  -0.036  -0.343297  -0.286669  -0.037161  3.664135  -0.054
N  N46  1  0.42802918  0.15464181  0.89915403  1  -0.358721  -0.048916  3.369376  -0.084  -0.306921  -0.031525  3.670216  -0.046  -0.333357  -0.025086  3.680342  -0.036  -0.343319  -0.286723  -0.037161  3.664134  -0.054
N  N47  1  0.07196990  0.34536019  0.39915315  1  -0.358684  -0.048909  3.369469  -0.084  -0.306862  -0.031525  3.670283  -0.046  -0.333298  -0.025084  3.680406  -0.036  -0.343294  -0.286668  -0.037162  3.664206  -0.054
O  O48  1  0.82989574  0.64120508  0.80917804  1  -0.837914  -0.052704  2.047717  -0.084  -0.783304  -0.041184  2.356924  -0.058  -0.825857  -0.030761  2.333963  -0.042  -0.374739  -0.746121  -0.052101  2.369641  -0.074
O  O49  1  0.67010417  0.85879431  0.30917859  1  -0.837892  -0.052705  2.047597  -0.084  -0.783292  -0.041183  2.356804  -0.058  -0.825847  -0.030761  2.333844  -0.042  -0.374732  -0.746108  -0.052101  2.369522  -0.074
O  O50  1  0.17010278  0.35879515  0.19082215  1  -0.837888  -0.052707  2.047616  -0.084  -0.78328  -0.041185  2.356819  -0.058  -0.825833  -0.030762  2.333862  -0.042  -0.374716  -0.746092  -0.052103  2.369531  -0.074
O  O51  1  0.32989420  0.14120474  0.69082160  1  -0.837898  -0.052705  2.04764  -0.084  -0.783297  -0.041184  2.35685  -0.058  -0.825851  -0.030761  2.33389  -0.042  -0.374734  -0.746109  -0.052102  2.369559  -0.074
O  O52  1  0.52225104  0.85390895  0.77235716  1  -0.833815  -0.0515  2.038091  -0.084  -0.779738  -0.040092  2.340642  -0.058  -0.820948  -0.029818  2.316908  -0.042  -0.369987  -0.743682  -0.050858  2.353396  -0.074
O  O53  1  0.97774872  0.64609169  0.27235614  1  -0.833846  -0.0515  2.038078  -0.084  -0.779755  -0.040092  2.340622  -0.058  -0.820962  -0.029819  2.316885  -0.042  -0.370002  -0.743702  -0.050858  2.353378  -0.074
O  O54  1  0.47774944  0.14609128  0.22764303  1  -0.833825  -0.051498  2.038081  -0.084  -0.779748  -0.040093  2.340636  -0.058  -0.820956  -0.02982  2.316902  -0.042  -0.369992  -0.743693  -0.05086  2.353394  -0.074
O  O55  1  0.02225177  0.35390854  0.72764338  1  -0.833819  -0.051501  2.038081  -0.084  -0.779729  -0.040092  2.340626  -0.058  -0.82094  -0.029819  2.316892  -0.042  -0.369987  -0.743675  -0.05086  2.353382  -0.074
O  O56  1  0.96125569  0.93257022  0.84993852  1  -0.859659  -0.045617  2.092149  -0.072  -0.802284  -0.038884  2.410694  -0.052  -0.843206  -0.029317  2.385873  -0.038  -0.375311  -0.765973  -0.049016  2.424365  -0.067
O  O57  1  0.53874636  0.56742793  0.34993776  1  -0.859699  -0.045621  2.092186  -0.072  -0.802306  -0.038883  2.410716  -0.052  -0.843228  -0.029316  2.385892  -0.038  -0.375322  -0.766  -0.049016  2.424389  -0.067
O  O58  1  0.03874463  0.06742882  0.15006234  1  -0.859687  -0.045619  2.092179  -0.072  -0.802295  -0.038883  2.410703  -0.052  -0.843224  -0.029317  2.385898  -0.038  -0.375332  -0.76599  -0.049017  2.424379  -0.067
O  O59  1  0.46125575  0.43256992  0.65006243  1  -0.859686  -0.045618  2.092209  -0.072  -0.802292  -0.038883  2.410739  -0.052  -0.843214  -0.029317  2.385918  -0.038  -0.375318  -0.765989  -0.049018  2.424416  -0.067
