# generated using pymatgen
data_CdH9C14S2N7
_symmetry_space_group_name_H-M   'P 1'
_cell_length_a   7.59715057
_cell_length_b   9.74966531
_cell_length_c   14.23489933
_cell_angle_alpha   110.00606722
_cell_angle_beta   105.79922403
_cell_angle_gamma   89.95989804
_symmetry_Int_Tables_number   1
_chemical_formula_structural   CdH9C14S2N7
_chemical_formula_sum   'Cd2 H18 C28 S4 N14'
_cell_volume   948.32438629
_cell_formula_units_Z   2
loop_
 _symmetry_equiv_pos_site_id
 _symmetry_equiv_pos_as_xyz
  1  'x, y, z'
loop_
 _atom_site_type_symbol
 _atom_site_label
 _atom_site_symmetry_multiplicity
 _atom_site_fract_x
 _atom_site_fract_y
 _atom_site_fract_z
 _atom_site_occupancy
 _atom_site_hle17_bader_spin_density
 _atom_site_hle17_ddec_charge
 _atom_site_hle17_ddec_spin_density
 _atom_site_hle17_ddec_sum_bond_order
 _atom_site_hle17_magmom
 _atom_site_hse06_10hf_bader_spin_density
 _atom_site_hse06_10hf_ddec_charge
 _atom_site_hse06_10hf_ddec_spin_density
 _atom_site_hse06_10hf_ddec_sum_bond_order
 _atom_site_hse06_10hf_magmom
 _atom_site_hse06_bader_spin_density
 _atom_site_hse06_ddec_charge
 _atom_site_hse06_ddec_spin_density
 _atom_site_hse06_ddec_sum_bond_order
 _atom_site_hse06_magmom
 _atom_site_pbe_bader_spin_density
 _atom_site_pbe_cm5_charge
 _atom_site_pbe_ddec_charge
 _atom_site_pbe_ddec_spin_density
 _atom_site_pbe_ddec_sum_bond_order
 _atom_site_pbe_magmom
Cd  Cd0  1  0.00000748  0.99999912  0.50000275  1  0  0.956859  0  1.982834  0  0  0.774502  0  2.446166  0  0  0.819733  0  2.410369  0  0  0.728105  0.743095  0  2.470092  0
Cd  Cd1  1  0.50000627  0.50000124  0.49999974  1  0  0.955985  0  1.981526  0  0  0.773485  0  2.444924  0  0  0.818795  0  2.409084  0  0  0.727053  0.742039  0  2.468875  0
H  H2  1  0.75004944  0.25162586  0.99995919  1  0  0.31607  0  0.852491  0  0  0.310782  0  0.891942  0  0  0.317213  0  0.887494  0  0  0.345637  0.306157  0  0.895314  0
H  H3  1  0.24994699  0.74837645  0.00004180  1  0  0.315884  0  0.85256  0  0  0.310715  0  0.891863  0  0  0.317147  0  0.887415  0  0  0.345563  0.30609  0  0.895238  0
H  H4  1  0.94224991  0.32864596  0.62146158  1  0  0.082841  0  0.978136  0  0  0.086596  0  1.050172  0  0  0.088886  0  1.048537  0  0  0.106648  0.084907  0  1.051409  0
H  H5  1  0.55722632  0.70724890  0.37809920  1  0  0.084401  0  0.976531  0  0  0.087547  0  1.048975  0  0  0.089788  0  1.047459  0  0  0.107214  0.085864  0  1.050191  0
H  H6  1  0.05775027  0.67135310  0.37853908  1  0  0.08281  0  0.978152  0  0  0.086566  0  1.050184  0  0  0.088857  0  1.048549  0  0  0.106631  0.084879  0  1.051418  0
H  H7  1  0.44276707  0.29275668  0.62189445  1  0  0.084423  0  0.976471  0  0  0.087568  0  1.048895  0  0  0.08981  0  1.047378  0  0  0.107225  0.085881  0  1.050112  0
H  H8  1  0.85909171  0.48957689  0.78000041  1  0  0.116854  0  0.945822  0  0  0.125447  0  1.009413  0  0  0.129387  0  1.006995  0  0  0.104439  0.122607  0  1.011333  0
H  H9  1  0.64085089  0.70946357  0.21965016  1  0  0.115789  0  0.945825  0  0  0.124802  0  1.009335  0  0  0.128841  0  1.006813  0  0  0.104057  0.121902  0  1.011319  0
H  H10  1  0.14090299  0.51042320  0.21999843  1  0  0.116811  0  0.945874  0  0  0.125416  0  1.009458  0  0  0.129354  0  1.007045  0  0  0.104428  0.122577  0  1.011377  0
H  H11  1  0.35914468  0.29053765  0.78034203  1  0  0.11577  0  0.945739  0  0  0.124754  0  1.009289  0  0  0.128763  0  1.006802  0  0  0.104053  0.121826  0  1.011305  0
H  H12  1  0.79676812  0.09964622  0.85319390  1  0  0.095758  0  0.943551  0  0  0.10959  0  0.997172  0  0  0.112907  0  0.995831  0  0  0.106415  0.107167  0  0.998379  0
H  H13  1  0.70331933  0.24651746  0.14680725  1  0  0.094789  0  0.943299  0  0  0.108546  0  0.997147  0  0  0.111911  0  0.995756  0  0  0.106184  0.106145  0  0.998314  0
H  H14  1  0.20323790  0.90035509  0.14680942  1  0  0.095747  0  0.943506  0  0  0.10954  0  0.997175  0  0  0.112852  0  0.995841  0  0  0.106393  0.107127  0  0.998371  0
H  H15  1  0.29667991  0.75348597  0.85319364  1  0  0.094771  0  0.943278  0  0  0.10856  0  0.997102  0  0  0.111925  0  0.99571  0  0  0.106189  0.106158  0  0.998273  0
H  H16  1  0.87870539  0.95777089  0.69319377  1  0  0.076479  0  0.963716  0  0  0.084185  0  1.028642  0  0  0.085729  0  1.027649  0  0  0.111826  0.083033  0  1.029357  0
H  H17  1  0.62080688  0.26466595  0.30662896  1  0  0.077143  0  0.964733  0  0  0.084717  0  1.029528  0  0  0.086337  0  1.028447  0  0  0.112333  0.083501  0  1.03033  0
H  H18  1  0.12130145  0.04222384  0.30681020  1  0  0.076439  0  0.963778  0  0  0.08416  0  1.028699  0  0  0.085705  0  1.027704  0  0  0.111818  0.083007  0  1.029417  0
H  H19  1  0.37919440  0.73534298  0.69337419  1  0  0.077212  0  0.964612  0  0  0.084751  0  1.029461  0  0  0.086368  0  1.028383  0  0  0.112354  0.083534  0  1.030263  0
C  C20  1  0.40282009  0.85435393  0.56605599  1  0  0.315279  0  4.004755  0  0  0.293686  0  4.309894  0  0  0.316141  0  4.322899  0  0  0.149733  0.278382  0  4.300726  0
C  C21  1  0.09741279  0.28889903  0.43464106  1  0  0.316099  0  4.005177  0  0  0.294368  0  4.310566  0  0  0.316838  0  4.32358  0  0  0.149342  0.279047  0  4.301398  0
C  C22  1  0.59717972  0.14563963  0.43394614  1  0  0.315352  0  4.004561  0  0  0.293757  0  4.309712  0  0  0.316216  0  4.322712  0  0  0.149723  0.278453  0  4.300545  0
C  C23  1  0.90259878  0.71109358  0.56535736  1  0  0.316001  0  4.005196  0  0  0.294275  0  4.310594  0  0  0.316746  0  4.32361  0  0  0.149333  0.278952  0  4.301424  0
C  C24  1  0.90875841  0.28339691  0.67543919  1  0  0.141051  0  3.686326  0  0  0.111457  0  3.937716  0  0  0.118404  0  3.956637  0  0  0.047715  0.106925  0  3.924929  0
C  C25  1  0.59080909  0.60799300  0.32423557  1  0  0.139824  0  3.685971  0  0  0.111077  0  3.937038  0  0  0.11802  0  3.955976  0  0  0.047689  0.106573  0  3.924218  0
C  C26  1  0.09124445  0.71660108  0.32456225  1  0  0.141042  0  3.686389  0  0  0.111454  0  3.937778  0  0  0.1184  0  3.956701  0  0  0.0477  0.106922  0  3.924991  0
C  C27  1  0.40918330  0.39201366  0.67576104  1  0  0.139901  0  3.686114  0  0  0.111201  0  3.937133  0  0  0.118143  0  3.956068  0  0  0.047751  0.1067  0  3.924303  0
C  C28  1  0.86312412  0.37211694  0.76323116  1  0  -0.12711  0  3.668032  0  0  -0.147696  0  3.916554  0  0  -0.154973  0  3.937109  0  0  -0.077133  -0.14306  0  3.902943  0
C  C29  1  0.63683966  0.60884638  0.23651529  1  0  -0.127316  0  3.668407  0  0  -0.149017  0  3.917077  0  0  -0.15638  0  3.937544  0  0  -0.077987  -0.144289  0  3.903407  0
C  C30  1  0.13687171  0.62788098  0.23676730  1  0  -0.127025  0  3.667988  0  0  -0.147638  0  3.916537  0  0  -0.154916  0  3.937093  0  0  -0.077108  -0.143003  0  3.902925  0
C  C31  1  0.36315099  0.39115807  0.76347917  1  0  -0.127255  0  3.66848  0  0  -0.148933  0  3.91709  0  0  -0.156275  0  3.937575  0  0  -0.077963  -0.144181  0  3.903423  0
C  C32  1  0.82476676  0.30927958  0.83144937  1  0  0.044251  0  3.797787  0  0  0.057586  0  4.037549  0  0  0.061022  0  4.058124  0  0  0.010598  0.055237  0  4.023371  0
C  C33  1  0.67537195  0.47781485  0.16839859  1  0  0.046944  0  3.800163  0  0  0.059851  0  4.037798  0  0  0.063665  0  4.058579  0  0  0.011381  0.057487  0  4.023611  0
C  C34  1  0.17523329  0.69071948  0.16854988  1  0  0.044335  0  3.797885  0  0  0.057677  0  4.037627  0  0  0.061116  0  4.058198  0  0  0.010648  0.05533  0  4.023452  0
C  C35  1  0.32462008  0.52218632  0.83159948  1  0  0.046887  0  3.800442  0  0  0.059803  0  4.038053  0  0  0.063617  0  4.058835  0  0  0.01138  0.057437  0  4.023859  0
C  C36  1  0.82920103  0.15722689  0.80554096  1  0  -0.146976  0  3.724599  0  0  -0.171046  0  3.978349  0  0  -0.177676  0  3.997578  0  0  -0.085257  -0.16679  0  3.965447  0
C  C37  1  0.67076999  0.35176157  0.19438208  1  0  -0.145008  0  3.72306  0  0  -0.169363  0  3.976723  0  0  -0.176037  0  3.995878  0  0  -0.084546  -0.165106  0  3.963811  0
C  C38  1  0.17080611  0.84277223  0.19446198  1  0  -0.147077  0  3.724674  0  0  -0.171097  0  3.97844  0  0  -0.177723  0  3.997667  0  0  -0.08528  -0.16685  0  3.965539  0
C  C39  1  0.32922514  0.64824181  0.80561830  1  0  -0.144989  0  3.723103  0  0  -0.169385  0  3.976773  0  0  -0.176057  0  3.995929  0  0  -0.084575  -0.165126  0  3.963855  0
C  C40  1  0.87496461  0.07619294  0.71572077  1  0  0.14083  0  3.712646  0  0  0.112009  0  3.962615  0  0  0.11957  0  3.980987  0  0  0.050114  0.107146  0  3.950011  0
C  C41  1  0.62471511  0.36059934  0.28414433  1  0  0.139482  0  3.713951  0  0  0.11087  0  3.963888  0  0  0.11836  0  3.982292  0  0  0.049214  0.106052  0  3.951293  0
C  C42  1  0.12504254  0.92380619  0.28428217  1  0  0.140888  0  3.712618  0  0  0.112026  0  3.962633  0  0  0.119591  0  3.980997  0  0  0.050088  0.107166  0  3.950025  0
C  C43  1  0.37528312  0.63940737  0.71585722  1  0  0.1395  0  3.713711  0  0  0.110918  0  3.96366  0  0  0.11841  0  3.982063  0  0  0.049235  0.106102  0  3.951063  0
C  C44  1  0.78292064  0.40224202  0.92538212  1  0  0.305046  0  3.749554  0  0  0.271417  0  4.03179  0  0  0.282417  0  4.046006  0  0  0.2245  0.264847  0  4.020951  0
C  C45  1  0.71745475  0.47681681  0.07450485  1  0  0.297331  0  3.761781  0  0  0.268479  0  4.036198  0  0  0.278313  0  4.052094  0  0  0.22314  0.26195  0  4.025302  0
C  C46  1  0.21707972  0.59775923  0.07461839  1  0  0.304938  0  3.749654  0  0  0.271298  0  4.031922  0  0  0.282303  0  4.046138  0  0  0.224472  0.264728  0  4.021085  0
C  C47  1  0.28254008  0.52318439  0.92549427  1  0  0.29721  0  3.761968  0  0  0.268361  0  4.036393  0  0  0.278192  0  4.052291  0  0  0.223089  0.261838  0  4.02549  0
S  S48  1  0.35502355  0.01615228  0.63003947  1  0  -0.361712  0  2.138116  0  0  -0.33489  0  2.458114  0  0  -0.352381  0  2.451618  0  0  -0.161746  -0.322404  0  2.462126  0
S  S49  1  0.14417541  0.38739243  0.37085229  1  0  -0.361404  0  2.139553  0  0  -0.334498  0  2.459959  0  0  -0.352075  0  2.453548  0  0  -0.160784  -0.321959  0  2.463963  0
S  S50  1  0.64496861  0.98383569  0.36997375  1  0  -0.36171  0  2.13817  0  0  -0.334886  0  2.458158  0  0  -0.352399  0  2.451699  0  0  -0.16174  -0.322402  0  2.462174  0
S  S51  1  0.85583473  0.61260127  0.62914410  1  0  -0.361417  0  2.139826  0  0  -0.334501  0  2.460226  0  0  -0.352078  0  2.453814  0  0  -0.160795  -0.321961  0  2.464231  0
N  N52  1  0.43698468  0.73645941  0.51930241  1  0  -0.540587  0  2.903535  0  0  -0.48302  0  3.182413  0  0  -0.504604  0  3.189606  0  0  -0.393353  -0.468258  0  3.177343  0
N  N53  1  0.06377782  0.21720393  0.48116063  1  0  -0.541821  0  2.905214  0  0  -0.484331  0  3.184272  0  0  -0.505925  0  3.191471  0  0  -0.393795  -0.469538  0  3.17916  0
N  N54  1  0.56301649  0.26354297  0.48069073  1  0  -0.540691  0  2.903374  0  0  -0.483117  0  3.18227  0  0  -0.504702  0  3.189461  0  0  -0.393363  -0.468354  0  3.177201  0
N  N55  1  0.93623299  0.78279525  0.51883785  1  0  -0.54171  0  2.905039  0  0  -0.484219  0  3.18409  0  0  -0.505813  0  3.191288  0  0  -0.39377  -0.46943  0  3.178988  0
N  N56  1  0.91604717  0.13790698  0.65214511  1  0  -0.317865  0  3.23715  0  0  -0.239795  0  3.49295  0  0  -0.259708  0  3.513476  0  0  -0.322779  -0.226262  0  3.47871  0
N  N57  1  0.58332738  0.48583570  0.34758813  1  0  -0.317798  0  3.236103  0  0  -0.240096  0  3.491842  0  0  -0.259971  0  3.512281  0  0  -0.322594  -0.226574  0  3.477632  0
N  N58  1  0.08395693  0.86208882  0.34785737  1  0  -0.317852  0  3.237172  0  0  -0.239774  0  3.493003  0  0  -0.259684  0  3.513529  0  0  -0.322739  -0.22624  0  3.478764  0
N  N59  1  0.41666775  0.51417098  0.65240882  1  0  -0.317951  0  3.236151  0  0  -0.240314  0  3.491959  0  0  -0.260189  0  3.512397  0  0  -0.322701  -0.226792  0  3.477748  0
N  N60  1  0.77103193  0.54663108  0.95352415  1  0  -0.267719  0  2.904564  0  0  -0.253688  0  3.200273  0  0  -0.26083  0  3.211685  0  0  -0.225251  -0.249  0  3.192268  0
N  N61  1  0.72955580  0.59306578  0.04637755  1  0  -0.265347  0  2.908077  0  0  -0.252497  0  3.201735  0  0  -0.259315  0  3.213611  0  0  -0.224943  -0.247821  0  3.193707  0
N  N62  1  0.22896663  0.45336687  0.04647465  1  0  -0.267703  0  2.904564  0  0  -0.253673  0  3.200266  0  0  -0.260817  0  3.211676  0  0  -0.225234  -0.248985  0  3.192261  0
N  N63  1  0.27044158  0.40693434  0.95362093  1  0  -0.265289  0  2.908077  0  0  -0.25244  0  3.20172  0  0  -0.259253  0  3.213592  0  0  -0.22492  -0.247765  0  3.193687  0
N  N64  1  0.75013425  0.35549733  0.99994447  1  0  -0.382023  0  3.366043  0  0  -0.327065  0  3.59904  0  0  -0.343126  0  3.609316  0  0  -0.365589  -0.316431  0  3.591758  0
N  N65  1  0.24986562  0.64449843  0.00005608  1  0  -0.381672  0  3.366182  0  0  -0.326823  0  3.599132  0  0  -0.342884  0  3.609413  0  0  -0.365464  -0.316191  0  3.591845  0
