# generated using pymatgen
data_KH3C2SN4
_symmetry_space_group_name_H-M   'P 1'
_cell_length_a   6.51096150
_cell_length_b   6.65314015
_cell_length_c   13.89365778
_cell_angle_alpha   90.00377810
_cell_angle_beta   90.00004152
_cell_angle_gamma   90.00105446
_symmetry_Int_Tables_number   1
_chemical_formula_structural   KH3C2SN4
_chemical_formula_sum   'K4 H12 C8 S4 N16'
_cell_volume   601.85018136
_cell_formula_units_Z   4
loop_
 _symmetry_equiv_pos_site_id
 _symmetry_equiv_pos_as_xyz
  1  'x, y, z'
loop_
 _atom_site_type_symbol
 _atom_site_label
 _atom_site_symmetry_multiplicity
 _atom_site_fract_x
 _atom_site_fract_y
 _atom_site_fract_z
 _atom_site_occupancy
 _atom_site_hle17_bader_spin_density
 _atom_site_hle17_ddec_charge
 _atom_site_hle17_ddec_spin_density
 _atom_site_hle17_ddec_sum_bond_order
 _atom_site_hle17_magmom
 _atom_site_hse06_10hf_bader_spin_density
 _atom_site_hse06_10hf_ddec_charge
 _atom_site_hse06_10hf_ddec_spin_density
 _atom_site_hse06_10hf_ddec_sum_bond_order
 _atom_site_hse06_10hf_magmom
 _atom_site_hse06_bader_spin_density
 _atom_site_hse06_ddec_charge
 _atom_site_hse06_ddec_spin_density
 _atom_site_hse06_ddec_sum_bond_order
 _atom_site_hse06_magmom
 _atom_site_pbe_bader_spin_density
 _atom_site_pbe_cm5_charge
 _atom_site_pbe_ddec_charge
 _atom_site_pbe_ddec_spin_density
 _atom_site_pbe_ddec_sum_bond_order
 _atom_site_pbe_magmom
K  K0  1  0.74996552  0.39341130  0.23686695  1  0  0.827521  0  0.562043  0  0  0.748764  0  0.793224  0  0  0.761183  0  0.776478  0  0  0.648264  0.738066  0  0.806536  0
K  K1  1  0.24996913  0.89341039  0.26314069  1  0  0.827542  0  0.561993  0  0  0.748767  0  0.79323  0  0  0.761283  0  0.776422  0  0  0.648213  0.738063  0  0.806549  0
K  K2  1  0.75001520  0.10658418  0.73686538  1  0  0.827509  0  0.562036  0  0  0.748657  0  0.793381  0  0  0.761165  0  0.776584  0  0  0.648208  0.737955  0  0.806698  0
K  K3  1  0.25003416  0.60661784  0.76314344  1  0  0.827507  0  0.562002  0  0  0.748836  0  0.793039  0  0  0.761357  0  0.776224  0  0  0.648199  0.738134  0  0.806357  0
H  H4  1  0.38769950  0.09646046  0.05081111  1  0  0.10614  0  0.947819  0  0  0.123439  0  1.020839  0  0  0.124366  0  1.018714  0  0  0.115406  0.122492  0  1.021876  0
H  H5  1  0.61229525  0.59649127  0.44916844  1  0  0.106111  0  0.948075  0  0  0.123412  0  1.021023  0  0  0.124381  0  1.018868  0  0  0.115459  0.122466  0  1.022052  0
H  H6  1  0.11229964  0.40354607  0.55080447  1  0  0.106151  0  0.947939  0  0  0.123433  0  1.020994  0  0  0.124614  0  1.018943  0  0  0.115402  0.12248  0  1.022025  0
H  H7  1  0.88773109  0.90349734  0.94918782  1  0  0.1061  0  0.947697  0  0  0.123366  0  1.020823  0  0  0.124309  0  1.018695  0  0  0.115376  0.122412  0  1.021834  0
H  H8  1  0.61228329  0.90348750  0.94918776  1  0  0.106157  0  0.947741  0  0  0.123432  0  1.020833  0  0  0.124367  0  1.018699  0  0  0.115412  0.12245  0  1.02192  0
H  H9  1  0.38773208  0.40355289  0.55080525  1  0  0.106149  0  0.947745  0  0  0.123449  0  1.020804  0  0  0.124636  0  1.018746  0  0  0.115367  0.122509  0  1.021815  0
H  H10  1  0.88773383  0.59649509  0.44916561  1  0  0.106134  0  0.947864  0  0  0.123409  0  1.020845  0  0  0.124378  0  1.018689  0  0  0.115449  0.122452  0  1.021903  0
H  H11  1  0.11222713  0.09646416  0.05081466  1  0  0.106113  0  0.947581  0  0  0.123396  0  1.020673  0  0  0.124323  0  1.01855  0  0  0.115406  0.12247  0  1.021667  0
H  H12  1  0.24997270  0.13221799  0.94077383  1  0  0.124323  0  0.933277  0  0  0.146691  0  0.99645  0  0  0.148026  0  0.994207  0  0  0.121124  0.145385  0  0.99781  0
H  H13  1  0.75000806  0.63221396  0.55921348  1  0  0.124496  0  0.933111  0  0  0.146707  0  0.996363  0  0  0.148058  0  0.994124  0  0  0.121106  0.1454  0  0.997721  0
H  H14  1  0.25000698  0.36779863  0.44076524  1  0  0.124337  0  0.933264  0  0  0.146772  0  0.996365  0  0  0.148373  0  0.994142  0  0  0.121125  0.145466  0  0.997723  0
H  H15  1  0.75000702  0.86774501  0.05924663  1  0  0.124263  0  0.933217  0  0  0.146653  0  0.996353  0  0  0.147972  0  0.994134  0  0  0.121085  0.145345  0  0.997702  0
C  C16  1  0.24999564  0.48266044  0.11686819  1  0  0.287716  0  3.889318  0  0  0.241283  0  4.184692  0  0  0.269789  0  4.197262  0  0  0.201111  0.230191  0  4.175644  0
C  C17  1  0.74999149  0.98268296  0.38313580  1  0  0.288588  0  3.890545  0  0  0.242324  0  4.185884  0  0  0.270615  0  4.198412  0  0  0.201577  0.231239  0  4.176829  0
C  C18  1  0.25000052  0.01736571  0.61686668  1  0  0.287954  0  3.890374  0  0  0.241558  0  4.185589  0  0  0.268364  0  4.199771  0  0  0.201212  0.230471  0  4.176536  0
C  C19  1  0.75001633  0.51730106  0.88314796  1  0  0.288217  0  3.889573  0  0  0.241691  0  4.184975  0  0  0.270252  0  4.197538  0  0  0.201324  0.230613  0  4.175907  0
C  C20  1  0.24998622  0.16213281  0.01818645  1  0  -0.181511  0  3.648672  0  0  -0.308092  0  3.903214  0  0  -0.291534  0  3.915048  0  0  -0.117419  -0.310674  0  3.89963  0
C  C21  1  0.75000063  0.66214939  0.48180310  1  0  -0.181799  0  3.648945  0  0  -0.307894  0  3.903271  0  0  -0.29157  0  3.914971  0  0  -0.117368  -0.31051  0  3.899776  0
C  C22  1  0.25000213  0.33787223  0.51817994  1  0  -0.181628  0  3.649352  0  0  -0.308345  0  3.903906  0  0  -0.293683  0  3.916559  0  0  -0.117299  -0.310888  0  3.900318  0
C  C23  1  0.75000118  0.83783770  0.98181963  1  0  -0.181326  0  3.648625  0  0  -0.307969  0  3.903222  0  0  -0.291372  0  3.914969  0  0  -0.117314  -0.310571  0  3.899804  0
S  S24  1  0.24997783  0.38415838  0.23051057  1  0  -0.671344  0  1.874475  0  0  -0.641626  0  2.204155  0  0  -0.656386  0  2.191786  0  0  -0.338301  -0.630072  0  2.210246  0
S  S25  1  0.74997660  0.88420735  0.26951981  1  0  -0.671706  0  1.875457  0  0  -0.641984  0  2.205144  0  0  -0.656754  0  2.192851  0  0  -0.338378  -0.630421  0  2.211228  0
S  S26  1  0.25001233  0.11584733  0.73047834  1  0  -0.671286  0  1.875648  0  0  -0.641595  0  2.205331  0  0  -0.656062  0  2.19359  0  0  -0.33823  -0.630046  0  2.211419  0
S  S27  1  0.75002646  0.61580912  0.76950054  1  0  -0.671511  0  1.874259  0  0  -0.641758  0  2.203903  0  0  -0.656533  0  2.191511  0  0  -0.33832  -0.630193  0  2.209984  0
N  N28  1  0.24998992  0.37724276  0.03258922  1  0  0.031125  0  3.533892  0  0  0.159835  0  3.714603  0  0  0.111047  0  3.784849  0  0  -0.130874  0.168035  0  3.698061  0
N  N29  1  0.75000277  0.87725584  0.46738768  1  0  0.031282  0  3.534573  0  0  0.159237  0  3.716018  0  0  0.111165  0  3.785494  0  0  -0.131241  0.167433  0  3.699471  0
N  N30  1  0.25000305  0.12279283  0.53260399  1  0  0.031218  0  3.534556  0  0  0.160061  0  3.715023  0  0  0.113978  0  3.785433  0  0  -0.130944  0.168258  0  3.698476  0
N  N31  1  0.75000823  0.62271724  0.96741901  1  0  0.030859  0  3.534594  0  0  0.159701  0  3.715219  0  0  0.110815  0  3.785476  0  0  -0.130769  0.167898  0  3.698646  0
N  N32  1  0.24999797  0.50749611  0.95802288  1  0  -0.178807  0  2.956323  0  0  -0.186554  0  3.246502  0  0  -0.174692  0  3.263566  0  0  -0.182229  -0.186011  0  3.238882  0
N  N33  1  0.75000947  0.00749574  0.54195906  1  0  -0.179277  0  2.956362  0  0  -0.186699  0  3.246528  0  0  -0.175088  0  3.263504  0  0  -0.1823  -0.186148  0  3.238911  0
N  N34  1  0.25000404  0.99252287  0.45804198  1  0  -0.179082  0  2.956874  0  0  -0.186881  0  3.247031  0  0  -0.176597  0  3.264941  0  0  -0.182422  -0.186336  0  3.239414  0
N  N35  1  0.74999404  0.49247140  0.04199183  1  0  -0.178721  0  2.956058  0  0  -0.186412  0  3.246117  0  0  -0.17452  0  3.26318  0  0  -0.18224  -0.185862  0  3.238493  0
N  N36  1  0.25000440  0.68746481  0.99504621  1  0  -0.068588  0  3.040378  0  0  -0.059104  0  3.354879  0  0  -0.055743  0  3.360023  0  0  -0.107342  -0.060605  0  3.348206  0
N  N37  1  0.75000510  0.18749090  0.50495077  1  0  -0.068533  0  3.04002  0  0  -0.059064  0  3.354402  0  0  -0.055674  0  3.359593  0  0  -0.107269  -0.06057  0  3.347734  0
N  N38  1  0.25000379  0.81255326  0.49504955  1  0  -0.068483  0  3.040592  0  0  -0.058989  0  3.355092  0  0  -0.055226  0  3.36052  0  0  -0.107309  -0.060495  0  3.348428  0
N  N39  1  0.74999528  0.31247565  0.00495770  1  0  -0.068839  0  3.039838  0  0  -0.059357  0  3.354295  0  0  -0.056004  0  3.359428  0  0  -0.107547  -0.060859  0  3.347624  0
N  N40  1  0.25000220  0.67947857  0.09206789  1  0  -0.382652  0  2.990668  0  0  -0.34802  0  3.288931  0  0  -0.360318  0  3.295707  0  0  -0.32513  -0.339236  0  3.281485  0
N  N41  1  0.74999575  0.17949552  0.40793372  1  0  -0.382836  0  2.990922  0  0  -0.348176  0  3.289093  0  0  -0.360421  0  3.295819  0  0  -0.325215  -0.339393  0  3.281653  0
N  N42  1  0.25000087  0.82054865  0.59206732  1  0  -0.382819  0  2.990717  0  0  -0.348232  0  3.288964  0  0  -0.360226  0  3.296082  0  0  -0.325114  -0.339451  0  3.281526  0
N  N43  1  0.75000823  0.32049645  0.90793746  1  0  -0.382762  0  2.990941  0  0  -0.348121  0  3.289208  0  0  -0.360415  0  3.295959  0  0  -0.325251  -0.33934  0  3.281763  0
