# generated using pymatgen
data_TbH12C15(NO2)6
_symmetry_space_group_name_H-M   'P 1'
_cell_length_a   7.94039465
_cell_length_b   11.40746174
_cell_length_c   13.00386520
_cell_angle_alpha   83.76310863
_cell_angle_beta   80.40906856
_cell_angle_gamma   78.94070431
_symmetry_Int_Tables_number   1
_chemical_formula_structural   TbH12C15(NO2)6
_chemical_formula_sum   'Tb2 H24 C30 N12 O24'
_cell_volume   1136.27029666
_cell_formula_units_Z   2
loop_
 _symmetry_equiv_pos_site_id
 _symmetry_equiv_pos_as_xyz
  1  'x, y, z'
loop_
 _atom_site_type_symbol
 _atom_site_label
 _atom_site_symmetry_multiplicity
 _atom_site_fract_x
 _atom_site_fract_y
 _atom_site_fract_z
 _atom_site_occupancy
 _atom_site_hle17_bader_spin_density
 _atom_site_hle17_ddec_charge
 _atom_site_hle17_ddec_spin_density
 _atom_site_hle17_ddec_sum_bond_order
 _atom_site_hle17_magmom
 _atom_site_hse06_10hf_bader_spin_density
 _atom_site_hse06_10hf_ddec_charge
 _atom_site_hse06_10hf_ddec_spin_density
 _atom_site_hse06_10hf_ddec_sum_bond_order
 _atom_site_hse06_10hf_magmom
 _atom_site_hse06_bader_spin_density
 _atom_site_hse06_ddec_charge
 _atom_site_hse06_ddec_spin_density
 _atom_site_hse06_ddec_sum_bond_order
 _atom_site_hse06_magmom
 _atom_site_pbe_bader_spin_density
 _atom_site_pbe_cm5_charge
 _atom_site_pbe_ddec_charge
 _atom_site_pbe_ddec_spin_density
 _atom_site_pbe_ddec_sum_bond_order
 _atom_site_pbe_magmom
Tb  Tb0  1  0.27533140  0.33092366  0.72209857  1  0  2.078548  0  1.776449  0  0  1.908767  0  2.307729  0  0  1.971249  0  2.248422  0  0  1.512623  1.859677  0  2.356759  0
Tb  Tb1  1  0.72466494  0.66907683  0.27790217  1  0  2.078519  0  1.77647  0  0  1.908719  0  2.307728  0  0  1.971138  0  2.24852  0  0  1.512614  1.859627  0  2.356773  0
H  H2  1  0.55976449  0.20273701  0.94489950  1  0  0.134064  0  0.903168  0  0  0.14457  0  0.956068  0  0  0.148088  0  0.952267  0  0  0.144584  0.141925  0  0.959  0
H  H3  1  0.44024352  0.79726730  0.05509433  1  0  0.134076  0  0.903152  0  0  0.144534  0  0.956081  0  0  0.14805  0  0.952281  0  0  0.144584  0.141888  0  0.959012  0
H  H4  1  0.49812578  0.18356397  0.14180362  1  0  0.131871  0  0.950421  0  0  0.139317  0  1.009458  0  0  0.143084  0  1.00755  0  0  0.117734  0.136592  0  1.011017  0
H  H5  1  0.50189591  0.81643227  0.85819164  1  0  0.131858  0  0.950464  0  0  0.139366  0  1.009445  0  0  0.143131  0  1.007536  0  0  0.11772  0.136643  0  1.011002  0
H  H6  1  0.20289068  0.54356374  0.12522117  1  0  0.126915  0  0.958158  0  0  0.132651  0  1.022478  0  0  0.13587  0  1.021212  0  0  0.118538  0.130247  0  1.023726  0
H  H7  1  0.79709867  0.45642949  0.87478239  1  0  0.126943  0  0.958329  0  0  0.132695  0  1.02257  0  0  0.135915  0  1.0213  0  0  0.118564  0.130282  0  1.023827  0
H  H8  1  0.27137578  0.54596628  0.92941147  1  0  0.12646  0  0.921414  0  0  0.135515  0  0.979479  0  0  0.138563  0  0.977203  0  0  0.13886  0.133255  0  0.981232  0
H  H9  1  0.72861788  0.45402518  0.07059176  1  0  0.126476  0  0.921258  0  0  0.135484  0  0.979381  0  0  0.138533  0  0.977105  0  0  0.138851  0.133227  0  0.981134  0
H  H10  1  0.56618863  0.22101969  0.42755479  1  0  0.116599  0  0.934404  0  0  0.122903  0  1.000142  0  0  0.125967  0  0.997357  0  0  0.132687  0.120634  0  1.002316  0
H  H11  1  0.43380237  0.77898167  0.57244646  1  0  0.116574  0  0.934346  0  0  0.122883  0  1.000097  0  0  0.125947  0  0.997311  0  0  0.132678  0.120613  0  1.002272  0
H  H12  1  0.80398604  0.05572616  0.37420776  1  0  0.128713  0  0.957374  0  0  0.134063  0  1.019846  0  0  0.138503  0  1.016468  0  0  0.116085  0.130805  0  1.022549  0
H  H13  1  0.19602382  0.94428543  0.62578226  1  0  0.128728  0  0.957485  0  0  0.134085  0  1.019928  0  0  0.138527  0  1.016548  0  0  0.116039  0.130822  0  1.022641  0
H  H14  1  0.00126255  0.08150085  0.66211601  1  0  0.132047  0  0.943868  0  0  0.141867  0  0.999266  0  0  0.145533  0  0.997402  0  0  0.121388  0.13919  0  1.000852  0
H  H15  1  0.99872652  0.91850771  0.33788415  1  0  0.132041  0  0.943777  0  0  0.141859  0  0.999178  0  0  0.145525  0  0.997312  0  0  0.121387  0.139181  0  1.000765  0
H  H16  1  0.75155453  0.24279577  0.70398453  1  0  0.133751  0  0.929147  0  0  0.139538  0  0.993092  0  0  0.144205  0  0.987662  0  0  0.140966  0.136072  0  0.997115  0
H  H17  1  0.24843966  0.75721279  0.29601585  1  0  0.133734  0  0.929058  0  0  0.13954  0  0.993019  0  0  0.144207  0  0.987591  0  0  0.140967  0.136076  0  0.997043  0
H  H18  1  0.17852359  0.18228082  0.48369617  1  0  0.111904  0  0.957416  0  0  0.121621  0  1.0196  0  0  0.123749  0  1.018469  0  0  0.129431  0.119995  0  1.020649  0
H  H19  1  0.82147545  0.81771892  0.51630049  1  0  0.111958  0  0.957346  0  0  0.121673  0  1.019508  0  0  0.123806  0  1.018375  0  0  0.129427  0.120046  0  1.020559  0
H  H20  1  0.27408376  0.17227292  0.28963971  1  0  0.126666  0  0.93603  0  0  0.136732  0  0.990969  0  0  0.139918  0  0.989819  0  0  0.11958  0.134338  0  0.992135  0
H  H21  1  0.72591937  0.82772130  0.71036153  1  0  0.126762  0  0.935991  0  0  0.136745  0  0.990998  0  0  0.139922  0  0.989859  0  0  0.119577  0.134349  0  0.992166  0
H  H22  1  0.32253670  0.54476301  0.27508033  1  0  0.129603  0  0.959726  0  0  0.134097  0  1.027461  0  0  0.138329  0  1.024725  0  0  0.119201  0.13102  0  1.029678  0
H  H23  1  0.67745928  0.45523395  0.72491917  1  0  0.129569  0  0.959855  0  0  0.134097  0  1.02751  0  0  0.138327  0  1.024783  0  0  0.119185  0.13102  0  1.029725  0
H  H24  1  0.22371390  0.53811434  0.47015321  1  0  0.129254  0  0.915865  0  0  0.136895  0  0.973943  0  0  0.14062  0  0.970294  0  0  0.139474  0.134214  0  0.976636  0
H  H25  1  0.77628124  0.46188086  0.52984496  1  0  0.129216  0  0.91596  0  0  0.136876  0  0.974009  0  0  0.140602  0  0.970365  0  0  0.13947  0.134195  0  0.976703  0
C  C26  1  0.48038407  0.27308739  0.99062908  1  0  0.048939  0  3.557011  0  0  0.007365  0  3.814407  0  0  0.015629  0  3.82506  0  0  0.060359  0.002034  0  3.80747  0
C  C27  1  0.51962289  0.72691604  0.00936415  1  0  0.049058  0  3.556893  0  0  0.007601  0  3.814183  0  0  0.015876  0  3.824824  0  0  0.060472  0.00227  0  3.807246  0
C  C28  1  0.44417764  0.26564160  0.09860507  1  0  -0.121882  0  3.677352  0  0  -0.138931  0  3.923266  0  0  -0.145258  0  3.941786  0  0  -0.064362  -0.13504  0  3.910996  0
C  C29  1  0.55584022  0.73435922  0.90138642  1  0  -0.122036  0  3.677467  0  0  -0.139184  0  3.923381  0  0  -0.145513  0  3.941893  0  0  -0.064423  -0.135296  0  3.911112  0
C  C30  1  0.34398987  0.36317631  0.15054855  1  0  0.096486  0  3.741373  0  0  0.102375  0  3.980891  0  0  0.107409  0  3.999631  0  0  0.015792  0.099252  0  3.968035  0
C  C31  1  0.65600513  0.63681967  0.84945343  1  0  0.096595  0  3.741524  0  0  0.102472  0  3.981017  0  0  0.107505  0  3.999757  0  0  0.01587  0.099351  0  3.968158  0
C  C32  1  0.28215121  0.46614243  0.08881598  1  0  -0.106339  0  3.698987  0  0  -0.129169  0  3.957679  0  0  -0.133332  0  3.974717  0  0  -0.069018  -0.1268  0  3.946542  0
C  C33  1  0.71785247  0.53384933  0.91117846  1  0  -0.106282  0  3.699124  0  0  -0.129058  0  3.957672  0  0  -0.133221  0  3.974707  0  0  -0.069015  -0.126684  0  3.94654  0
C  C34  1  0.31818197  0.46990503  0.98134257  1  0  0.014812  0  3.598971  0  0  -0.029644  0  3.865444  0  0  -0.023016  0  3.878364  0  0  0.047807  -0.033771  0  3.856824  0
C  C35  1  0.68182058  0.53009114  0.01865398  1  0  0.014628  0  3.598834  0  0  -0.029835  0  3.865346  0  0  -0.023208  0  3.87827  0  0  0.047765  -0.033964  0  3.856727  0
C  C36  1  0.66493709  0.18329642  0.47623026  1  0  0.038061  0  3.577816  0  0  -0.006265  0  3.842236  0  0  0.002611  0  3.851887  0  0  0.050802  -0.012142  0  3.836192  0
C  C37  1  0.33505725  0.81671137  0.52376631  1  0  0.038174  0  3.577705  0  0  -0.006219  0  3.842143  0  0  0.00266  0  3.851795  0  0  0.050847  -0.012095  0  3.836094  0
C  C38  1  0.80076509  0.09184166  0.44858705  1  0  -0.12  0  3.70385  0  0  -0.140645  0  3.960486  0  0  -0.145922  0  3.977526  0  0  -0.071753  -0.137567  0  3.94945  0
C  C39  1  0.19922169  0.90816135  0.55141838  1  0  -0.120113  0  3.703977  0  0  -0.140722  0  3.960442  0  0  -0.146004  0  3.977481  0  0  -0.071713  -0.13764  0  3.949402  0
C  C40  1  0.92680536  0.04853805  0.51431865  1  0  0.065062  0  3.764253  0  0  0.072389  0  4.00598  0  0  0.075687  0  4.027567  0  0  0.003469  0.070451  0  3.99115  0
C  C41  1  0.07319587  0.95147253  0.48567468  1  0  0.064921  0  3.764587  0  0  0.072445  0  4.006068  0  0  0.075746  0  4.027652  0  0  0.003473  0.070505  0  3.991238  0
C  C42  1  0.90746121  0.10500283  0.60781110  1  0  -0.116927  0  3.681571  0  0  -0.136993  0  3.936038  0  0  -0.141824  0  3.952857  0  0  -0.068687  -0.134055  0  3.924925  0
C  C43  1  0.09254223  0.89500936  0.39218803  1  0  -0.116837  0  3.681881  0  0  -0.136881  0  3.936307  0  0  -0.141713  0  3.953126  0  0  -0.068658  -0.133941  0  3.925197  0
C  C44  1  0.77027317  0.19633248  0.63323191  1  0  0.03415  0  3.569562  0  0  -0.009178  0  3.833168  0  0  -0.00084  0  3.842749  0  0  0.051177  -0.014351  0  3.826678  0
C  C45  1  0.22970910  0.80367776  0.36677116  1  0  0.034207  0  3.569421  0  0  -0.009294  0  3.833257  0  0  -0.000961  0  3.842846  0  0  0.0511  -0.014471  0  3.826775  0
C  C46  1  0.21041336  0.25837454  0.43161001  1  0  0.004526  0  3.604378  0  0  -0.038383  0  3.866441  0  0  -0.032186  0  3.880449  0  0  0.041637  -0.042367  0  3.857268  0
C  C47  1  0.78958045  0.74162075  0.56838522  1  0  0.004558  0  3.604352  0  0  -0.038304  0  3.866318  0  0  -0.032117  0  3.880334  0  0  0.041766  -0.042281  0  3.857121  0
C  C48  1  0.26376843  0.25585360  0.32524181  1  0  -0.113126  0  3.712969  0  0  -0.133209  0  3.966203  0  0  -0.138818  0  3.985432  0  0  -0.068062  -0.129691  0  3.953502  0
C  C49  1  0.73624567  0.74413792  0.67476077  1  0  -0.113248  0  3.713044  0  0  -0.133251  0  3.966238  0  0  -0.138851  0  3.985468  0  0  -0.068093  -0.129731  0  3.953536  0
C  C50  1  0.30004237  0.36018262  0.26470923  1  0  0.089284  0  3.738809  0  0  0.094697  0  3.978805  0  0  0.098619  0  3.998317  0  0  0.013912  0.092193  0  3.965478  0
C  C51  1  0.69995772  0.63980880  0.73529562  1  0  0.089265  0  3.738863  0  0  0.094666  0  3.978855  0  0  0.098591  0  3.998361  0  0  0.013875  0.09216  0  3.965526  0
C  C52  1  0.28710295  0.46336554  0.31743080  1  0  -0.100026  0  3.667848  0  0  -0.12403  0  3.928512  0  0  -0.127764  0  3.943444  0  0  -0.060963  -0.121892  0  3.918905  0
C  C53  1  0.71289310  0.53662615  0.68256523  1  0  -0.100053  0  3.668046  0  0  -0.1241  0  3.928784  0  0  -0.127829  0  3.943719  0  0  -0.060974  -0.121963  0  3.919175  0
C  C54  1  0.23420036  0.46258490  0.42398562  1  0  0.049473  0  3.550065  0  0  0.006382  0  3.812287  0  0  0.016425  0  3.818962  0  0  0.058971  -0.000227  0  3.808203  0
C  C55  1  0.76580269  0.53740943  0.57601254  1  0  0.049581  0  3.55025  0  0  0.006508  0  3.812436  0  0  0.016536  0  3.819121  0  0  0.058994  -0.000103  0  3.808357  0
N  N56  1  0.17963028  0.58806494  0.72580223  1  0  0.688459  0  4.153635  0  0  0.738677  0  4.425638  0  0  0.768208  0  4.429424  0  0  0.079983  0.718712  0  4.422288  0
N  N57  1  0.82036800  0.41193810  0.27420274  1  0  0.688637  0  4.153746  0  0  0.738872  0  4.425684  0  0  0.768404  0  4.42946  0  0  0.080083  0.718908  0  4.422334  0
N  N58  1  0.00152467  0.25681962  0.87824730  1  0  0.701359  0  4.144517  0  0  0.745833  0  4.417709  0  0  0.774959  0  4.422136  0  0  0.081541  0.726167  0  4.413917  0
N  N59  1  0.99847817  0.74318073  0.12175814  1  0  0.701428  0  4.144338  0  0  0.745766  0  4.417699  0  0  0.774892  0  4.422118  0  0  0.081493  0.726099  0  4.41391  0
N  N60  1  0.39992754  0.07135295  0.72430626  1  0  0.699948  0  4.151813  0  0  0.750504  0  4.420554  0  0  0.779457  0  4.425636  0  0  0.087283  0.731011  0  4.416324  0
N  N61  1  0.60007889  0.92864831  0.27569873  1  0  0.699687  0  4.152111  0  0  0.750448  0  4.420639  0  0  0.7794  0  4.425718  0  0  0.08726  0.730955  0  4.416408  0
N  N62  1  0.41702226  0.37406773  0.93359758  1  0  0.283122  0  3.714103  0  0  0.337875  0  3.976273  0  0  0.337128  0  3.997971  0  0  -0.11416  0.337654  0  3.961305  0
N  N63  1  0.58297926  0.62593211  0.06639573  1  0  0.283113  0  3.71413  0  0  0.337843  0  3.976291  0  0  0.33709  0  3.997985  0  0  -0.114303  0.337623  0  3.961323  0
N  N64  1  0.64904025  0.23355971  0.56833026  1  0  0.284292  0  3.708197  0  0  0.338924  0  3.96881  0  0  0.33844  0  3.99055  0  0  -0.10877  0.338465  0  3.953867  0
N  N65  1  0.35095439  0.76644708  0.43166944  1  0  0.284233  0  3.707849  0  0  0.338929  0  3.968461  0  0  0.338441  0  3.990199  0  0  -0.108761  0.33847  0  3.953522  0
N  N66  1  0.19130054  0.36170718  0.47932196  1  0  0.283393  0  3.719492  0  0  0.336827  0  3.983006  0  0  0.337171  0  4.002866  0  0  -0.111431  0.335859  0  3.969352  0
N  N67  1  0.80869384  0.63829079  0.52067379  1  0  0.283232  0  3.719773  0  0  0.336627  0  3.983329  0  0  0.336978  0  4.003191  0  0  -0.111571  0.335659  0  3.969675  0
O  O68  1  0.45346396  0.38012235  0.83010381  1  0  -0.642706  0  1.86036  0  0  -0.607298  0  2.121641  0  0  -0.632395  0  2.121228  0  0  -0.326991  -0.588535  0  2.12151  0
O  O69  1  0.54653647  0.61988182  0.16989392  1  0  -0.64273  0  1.860337  0  0  -0.607295  0  2.121616  0  0  -0.632382  0  2.121203  0  0  -0.32694  -0.588533  0  2.121488  0
O  O70  1  0.30188168  0.54117707  0.65646127  1  0  -0.524253  0  1.780677  0  0  -0.522473  0  2.007352  0  0  -0.539156  0  2.000378  0  0  -0.238826  -0.510388  0  2.012148  0
O  O71  1  0.69811420  0.45882519  0.34354016  1  0  -0.524372  0  1.780785  0  0  -0.522575  0  2.007429  0  0  -0.539252  0  2.000454  0  0  -0.238907  -0.510487  0  2.012225  0
O  O72  1  0.09994095  0.51324967  0.78848543  1  0  -0.562014  0  1.815502  0  0  -0.558144  0  2.04938  0  0  -0.578036  0  2.044215  0  0  -0.262789  -0.543698  0  2.052689  0
O  O73  1  0.90006035  0.48674701  0.21152276  1  0  -0.562003  0  1.81554  0  0  -0.558146  0  2.049411  0  0  -0.57803  0  2.044245  0  0  -0.262746  -0.543701  0  2.052722  0
O  O74  1  0.14052467  0.69701286  0.73320098  1  0  -0.376136  0  1.723029  0  0  -0.377955  0  1.902895  0  0  -0.390342  0  1.898357  0  0  -0.153292  -0.369172  0  1.905963  0
O  O75  1  0.85946980  0.30299014  0.26680516  1  0  -0.376204  0  1.723033  0  0  -0.378058  0  1.902919  0  0  -0.390446  0  1.898374  0  0  -0.153367  -0.36927  0  1.905988  0
O  O76  1  0.51754628  0.32068555  0.59348834  1  0  -0.623295  0  1.833757  0  0  -0.586804  0  2.08925  0  0  -0.611824  0  2.089578  0  0  -0.322519  -0.568191  0  2.088944  0
O  O77  1  0.48245316  0.67931307  0.40651528  1  0  -0.623336  0  1.833581  0  0  -0.586831  0  2.089037  0  0  -0.611839  0  2.089368  0  0  -0.322534  -0.568218  0  2.088734  0
O  O78  1  0.15649883  0.25504892  0.89637861  1  0  -0.54266  0  1.804026  0  0  -0.536586  0  2.023184  0  0  -0.555429  0  2.017277  0  0  -0.255709  -0.522954  0  2.027041  0
O  O79  1  0.84350350  0.74495327  0.10362521  1  0  -0.542619  0  1.803876  0  0  -0.536517  0  2.023098  0  0  -0.555352  0  2.017193  0  0  -0.255685  -0.522885  0  2.026955  0
O  O80  1  0.97559656  0.28984405  0.78306664  1  0  -0.542917  0  1.793879  0  0  -0.528424  0  2.020232  0  0  -0.546955  0  2.013641  0  0  -0.239238  -0.514978  0  2.024489  0
O  O81  1  0.02440689  0.71013942  0.21693536  1  0  -0.542973  0  1.793885  0  0  -0.528398  0  2.020221  0  0  -0.546923  0  2.01363  0  0  -0.239212  -0.514951  0  2.024483  0
O  O82  1  0.88531150  0.23037361  0.94704426  1  0  -0.375335  0  1.713552  0  0  -0.378819  0  1.894115  0  0  -0.390012  0  1.887743  0  0  -0.149945  -0.370977  0  1.898462  0
O  O83  1  0.11468828  0.76963832  0.05296297  1  0  -0.375385  0  1.713578  0  0  -0.378828  0  1.894191  0  0  -0.390024  0  1.88782  0  0  -0.149959  -0.370986  0  1.898539  0
O  O84  1  0.12705876  0.36347390  0.57974971  1  0  -0.636958  0  1.862787  0  0  -0.601161  0  2.121177  0  0  -0.627544  0  2.122423  0  0  -0.330506  -0.581556  0  2.119865  0
O  O85  1  0.87294114  0.63652295  0.42025322  1  0  -0.636869  0  1.863025  0  0  -0.601051  0  2.12138  0  0  -0.627424  0  2.122634  0  0  -0.33042  -0.581449  0  2.120071  0
O  O86  1  0.46903997  0.13604222  0.77346911  1  0  -0.524065  0  1.815133  0  0  -0.523394  0  2.03748  0  0  -0.540026  0  2.030354  0  0  -0.224161  -0.511444  0  2.042226  0
O  O87  1  0.53095857  0.86395990  0.22653666  1  0  -0.523938  0  1.815038  0  0  -0.523325  0  2.037306  0  0  -0.53995  0  2.030182  0  0  -0.224143  -0.511374  0  2.04205  0
O  O88  1  0.27801841  0.12766756  0.67323192  1  0  -0.56351  0  1.817297  0  0  -0.560698  0  2.050389  0  0  -0.579125  0  2.044493  0  0  -0.253154  -0.547169  0  2.054183  0
O  O89  1  0.72199240  0.87233126  0.32676586  1  0  -0.563365  0  1.817496  0  0  -0.56062  0  2.050528  0  0  -0.579034  0  2.044624  0  0  -0.25311  -0.547089  0  2.054317  0
O  O90  1  0.44572807  0.96130226  0.72422547  1  0  -0.39552  0  1.758175  0  0  -0.392186  0  1.946984  0  0  -0.40562  0  1.941626  0  0  -0.149525  -0.382803  0  1.950613  0
O  O91  1  0.55427836  0.03869901  0.27577952  1  0  -0.395502  0  1.75834  0  0  -0.392235  0  1.947085  0  0  -0.405676  0  1.941735  0  0  -0.149548  -0.382851  0  1.950714  0
