# generated using pymatgen
data_CuH16C13(NO2)2
_symmetry_space_group_name_H-M   'P 1'
_cell_length_a   8.66506764
_cell_length_b   12.93644082
_cell_length_c   13.56537258
_cell_angle_alpha   89.99962326
_cell_angle_beta   90.00043555
_cell_angle_gamma   92.19135643
_symmetry_Int_Tables_number   1
_chemical_formula_structural   CuH16C13(NO2)2
_chemical_formula_sum   'Cu4 H64 C52 N8 O16'
_cell_volume   1519.50023782
_cell_formula_units_Z   4
loop_
 _symmetry_equiv_pos_site_id
 _symmetry_equiv_pos_as_xyz
  1  'x, y, z'
loop_
 _atom_site_type_symbol
 _atom_site_label
 _atom_site_symmetry_multiplicity
 _atom_site_fract_x
 _atom_site_fract_y
 _atom_site_fract_z
 _atom_site_occupancy
 _atom_site_hle17_ddec_charge
 _atom_site_hle17_ddec_spin_density
 _atom_site_hle17_ddec_sum_bond_order
 _atom_site_hle17_magmom
 _atom_site_hse06_10hf_ddec_charge
 _atom_site_hse06_10hf_ddec_spin_density
 _atom_site_hse06_10hf_ddec_sum_bond_order
 _atom_site_hse06_10hf_magmom
 _atom_site_hse06_ddec_charge
 _atom_site_hse06_ddec_spin_density
 _atom_site_hse06_ddec_sum_bond_order
 _atom_site_hse06_magmom
 _atom_site_pbe_cm5_charge
 _atom_site_pbe_ddec_charge
 _atom_site_pbe_ddec_spin_density
 _atom_site_pbe_ddec_sum_bond_order
 _atom_site_pbe_magmom
Cu  Cu0  1  0.04885449  0.58592567  0.04086999  1  0.828086  -0.663466  1.91577  -0.478  0.814396  -0.795575  2.329739  -0.63  0.92151  -0.88797  2.241298  -0.733  0.674023  0.74705  -0.68897  2.390019  -0.534
Cu  Cu1  1  0.45115064  0.41408091  0.54086883  1  0.828146  0.663479  1.915695  0.478  0.814439  0.795574  2.329679  0.63  0.921623  0.887977  2.241168  0.733  0.674075  0.747122  0.688996  2.389948  0.534
Cu  Cu2  1  0.95114368  0.41408111  0.95913205  1  0.828066  0.663468  1.915762  0.478  0.814367  0.795578  2.329749  0.63  0.921468  0.887966  2.241302  0.733  0.674015  0.747026  0.688981  2.39001  0.534
Cu  Cu3  1  0.54885444  0.58592518  0.45912879  1  0.828067  -0.663482  1.915767  -0.478  0.8144  -0.79559  2.32974  -0.63  0.921437  -0.887979  2.241396  -0.733  0.674011  0.747043  -0.688979  2.390006  -0.534
H  H4  1  0.22687338  0.61135691  0.22680700  1  0.087713  6.6e-05  0.933647  0.0  0.097361  5.2e-05  0.994691  0.0  0.101002  6.6e-05  0.991114  0.0  0.118144  0.094553  3.1e-05  0.997512  0.0
H  H5  1  0.27310933  0.38863732  0.72680071  1  0.08778  -6.6e-05  0.933394  0.0  0.097422  -5.1e-05  0.994456  0.0  0.101067  -6.6e-05  0.990871  0.0  0.118131  0.094601  -3.1e-05  0.997296  0.0
H  H6  1  0.77311287  0.38863736  0.77319504  1  0.087665  -6.6e-05  0.933424  0.0  0.097316  -5.2e-05  0.994488  0.0  0.100959  -6.6e-05  0.990904  0.0  0.118094  0.094498  -3.2e-05  0.997334  0.0
H  H7  1  0.72687571  0.61135539  0.27319027  1  0.087816  6.7e-05  0.933595  0.0  0.097462  5.1e-05  0.994619  0.0  0.101107  6.6e-05  0.991033  0.0  0.118149  0.094643  3e-05  0.997462  0.0
H  H8  1  0.27954753  0.73890893  0.36055683  1  0.118786  -5.7e-05  0.987311  0.0  0.127191  -6.8e-05  1.051269  0.0  0.131347  -2.1e-05  1.049673  0.0  0.104581  0.124148  -0.000105  1.052684  0.0
H  H9  1  0.22043908  0.26108600  0.86055330  1  0.118776  5.6e-05  0.98736  0.0  0.127211  6.8e-05  1.051263  0.0  0.131359  2.1e-05  1.049694  0.0  0.104603  0.124173  0.000106  1.052683  0.0
H  H10  1  0.72044456  0.26108773  0.63944152  1  0.118757  5.5e-05  0.987324  0.0  0.127187  6.8e-05  1.05123  0.0  0.131336  2.1e-05  1.049657  0.0  0.104583  0.124147  0.000105  1.052647  0.0
H  H11  1  0.77956451  0.73890925  0.13944284  1  0.118764  -5.6e-05  0.987364  0.0  0.127227  -6.8e-05  1.051228  0.0  0.131375  -2.1e-05  1.049669  0.0  0.1046  0.124184  -0.000104  1.052643  0.0
H  H12  1  0.07870365  0.97004499  0.17571808  1  0.10178  2.4e-05  0.940555  0.0  0.115036  1e-05  0.99591  0.0  0.119183  9e-06  0.993372  0.0  0.106385  0.111968  1e-05  0.998047  0.0
H  H13  1  0.42130752  0.02995611  0.67572361  1  0.101872  -2.3e-05  0.940489  0.0  0.115133  -1e-05  0.995822  0.0  0.119279  -9e-06  0.993284  0.0  0.106433  0.112066  -1e-05  0.997958  0.0
H  H14  1  0.92130703  0.02995575  0.82427585  1  0.101867  -2.2e-05  0.940508  0.0  0.115129  -1e-05  0.99584  0.0  0.119273  -8e-06  0.993306  0.0  0.106437  0.112061  -1.1e-05  0.997975  0.0
H  H15  1  0.57869951  0.97003841  0.32427621  1  0.101788  2.3e-05  0.940657  0.0  0.115077  1e-05  0.995968  0.0  0.119224  9e-06  0.993431  0.0  0.106406  0.11201  1.1e-05  0.998103  0.0
H  H16  1  0.03227161  0.83076351  0.04906136  1  0.070412  4.1e-05  0.928974  0.0  0.082169  6e-05  0.988062  0.0  0.085474  5.4e-05  0.98456  0.0  0.114139  0.079544  5.8e-05  0.990935  0.0
H  H17  1  0.46774267  0.16923693  0.54906624  1  0.070403  -4.3e-05  0.928988  0.0  0.082158  -6e-05  0.988077  0.0  0.085463  -5.4e-05  0.984576  0.0  0.114129  0.079531  -5.8e-05  0.99095  0.0
H  H18  1  0.96773670  0.16923488  0.95093478  1  0.070403  -4.4e-05  0.928955  0.0  0.082158  -6e-05  0.988049  0.0  0.085463  -5.4e-05  0.984546  0.0  0.114144  0.079532  -5.7e-05  0.990922  0.0
H  H19  1  0.53225620  0.83075517  0.45092769  1  0.070403  4.3e-05  0.92903  0.0  0.082158  6e-05  0.988118  0.0  0.08546  5.4e-05  0.984617  0.0  0.114149  0.079532  5.8e-05  0.99099  0.0
H  H20  1  0.30121781  0.91346523  0.41076210  1  0.039727  1e-05  0.942797  0.0  0.051732  -3e-06  1.017832  0.0  0.0532  -3e-06  1.015715  0.0  0.089463  0.050651  -2e-06  1.019409  0.0
H  H21  1  0.19878694  0.08653730  0.91076767  1  0.039652  -8e-06  0.942809  0.0  0.051656  3e-06  1.017896  0.0  0.053124  3e-06  1.015783  0.0  0.089448  0.050576  -0.0  1.019469  0.0
H  H22  1  0.69878727  0.08654086  0.58923035  1  0.03971  -9e-06  0.942711  0.0  0.051724  3e-06  1.017787  0.0  0.053194  3e-06  1.015678  0.0  0.089476  0.050642  -1e-06  1.019362  0.0
H  H23  1  0.80122485  0.91346190  0.08923436  1  0.039702  1e-05  0.942741  0.0  0.051695  -3e-06  1.017845  0.0  0.053164  -3e-06  1.015734  0.0  0.089494  0.050615  1e-06  1.019422  0.0
H  H24  1  0.27862984  0.01415175  0.32283732  1  0.071261  1.2e-05  0.910536  0.0  0.090975  9e-06  0.965787  0.0  0.092284  7e-06  0.964517  0.0  0.10752  0.089949  1.3e-05  0.96682  0.0
H  H25  1  0.22135874  0.98584655  0.82284841  1  0.071223  -1.1e-05  0.910532  0.0  0.090981  -9e-06  0.965779  0.0  0.092295  -7e-06  0.964506  0.0  0.107523  0.089956  -1.3e-05  0.966812  0.0
H  H26  1  0.72135549  0.98585024  0.67715366  1  0.071267  -1.2e-05  0.910479  0.0  0.091014  -9e-06  0.965734  0.0  0.09233  -7e-06  0.964465  0.0  0.107532  0.089989  -1.2e-05  0.966768  0.0
H  H27  1  0.77865069  0.01415109  0.17715879  1  0.071175  1.2e-05  0.910467  0.0  0.090974  9e-06  0.965695  0.0  0.092286  7e-06  0.964427  0.0  0.107507  0.089947  1.3e-05  0.96673  0.0
H  H28  1  0.19024046  0.12763983  0.44017743  1  0.068633  6e-06  0.91095  0.0  0.091016  1.2e-05  0.962266  0.0  0.091425  1e-06  0.962271  0.0  0.105919  0.090631  2.3e-05  0.962416  0.0
H  H29  1  0.30976095  0.87235551  0.94018376  1  0.068681  -7e-06  0.910862  0.0  0.091037  -1.2e-05  0.962196  0.0  0.091443  -1e-06  0.962202  0.0  0.105866  0.090652  -2.3e-05  0.962343  0.0
H  H30  1  0.80975964  0.87235460  0.55982240  1  0.068647  -8e-06  0.910876  0.0  0.090988  -1.2e-05  0.962254  0.0  0.091398  -1e-06  0.962256  0.0  0.105878  0.090605  -2.2e-05  0.962403  0.0
H  H31  1  0.69024389  0.12764284  0.05982417  1  0.06861  6e-06  0.910864  0.0  0.090983  1.2e-05  0.962255  0.0  0.091394  1e-06  0.962255  0.0  0.105891  0.090599  2.2e-05  0.962405  0.0
H  H32  1  0.21800837  0.03109420  0.53190031  1  0.032318  1.8e-05  0.950204  0.0  0.043245  4e-06  1.028472  0.0  0.043844  3e-06  1.02773  0.0  0.084592  0.042786  8e-06  1.029064  0.0
H  H33  1  0.28200316  0.96889859  0.03190683  1  0.032316  -2e-05  0.950278  0.0  0.043267  -4e-06  1.028488  0.0  0.043862  -3e-06  1.027747  0.0  0.08463  0.042812  -9e-06  1.02908  0.0
H  H34  1  0.78199508  0.96889640  0.46809804  1  0.032282  -1.9e-05  0.950363  0.0  0.043227  -4e-06  1.028596  0.0  0.043824  -3e-06  1.027855  0.0  0.084578  0.04277  -9e-06  1.029187  0.0
H  H35  1  0.71800978  0.03110063  0.96810037  1  0.032286  1.8e-05  0.950225  0.0  0.043241  5e-06  1.028499  0.0  0.043839  3e-06  1.027759  0.0  0.084595  0.042784  8e-06  1.029089  0.0
H  H36  1  0.08338018  0.86087658  0.51319534  1  0.03596  5.3e-05  0.936757  0.0  0.052743  5e-05  1.005446  0.0  0.05462  3.3e-05  1.002402  0.0  0.088307  0.051216  6.3e-05  1.007857  0.0
H  H37  1  0.41662439  0.13912244  0.01319298  1  0.036058  -5.3e-05  0.936797  0.0  0.052783  -4.9e-05  1.005481  0.0  0.054656  -3.3e-05  1.002448  0.0  0.088332  0.051272  -6.3e-05  1.007882  0.0
H  H38  1  0.91662583  0.13912256  0.48680964  1  0.036027  -5.1e-05  0.93681  0.0  0.05276  -4.9e-05  1.005495  0.0  0.054635  -3.3e-05  1.002457  0.0  0.088343  0.051259  -6.2e-05  1.007885  0.0
H  H39  1  0.58338393  0.86087673  0.98680905  1  0.035966  5.3e-05  0.936813  0.0  0.052761  5e-05  1.005495  0.0  0.054638  3.3e-05  1.002451  0.0  0.088311  0.051238  6.3e-05  1.007905  0.0
H  H40  1  0.96031810  0.83943225  0.40891216  1  0.071072  5e-06  0.924594  0.0  0.090514  1e-05  0.980077  0.0  0.089786  7e-06  0.982805  0.0  0.104849  0.091011  1.6e-05  0.978224  0.0
H  H41  1  0.53968596  0.16056131  0.90890912  1  0.071001  -5e-06  0.924653  0.0  0.090395  -1e-05  0.980145  0.0  0.089688  -7e-06  0.982847  0.0  0.104781  0.090891  -1.3e-05  0.978294  0.0
H  H42  1  0.03968881  0.16055840  0.59109283  1  0.070987  -4e-06  0.924615  0.0  0.090371  -1e-05  0.980131  0.0  0.089663  -7e-06  0.982834  0.0  0.104791  0.090866  -1.4e-05  0.978283  0.0
H  H43  1  0.46032573  0.83943480  0.09109439  1  0.07108  5e-06  0.924544  0.0  0.09051  1e-05  0.980043  0.0  0.089802  7e-06  0.982746  0.0  0.104848  0.091006  1.3e-05  0.978191  0.0
H  H44  1  0.59546961  0.70892754  0.95685830  1  0.094216  0.001109  0.95473  0.001  0.106251  0.000786  1.017938  0.001  0.108019  0.000547  1.017037  0.001  0.093551  0.10481  0.000891  1.018682  0.001
H  H45  1  0.90452617  0.29107874  0.45685935  1  0.094078  -0.001107  0.954988  -0.001  0.106128  -0.000786  1.018153  -0.001  0.1079  -0.000547  1.01726  -0.001  0.093502  0.104684  -0.000892  1.018909  -0.001
H  H46  1  0.40451923  0.29107603  0.04314226  1  0.094127  -0.00111  0.954895  -0.001  0.106152  -0.000786  1.018081  -0.001  0.107915  -0.000547  1.01719  -0.001  0.093504  0.104709  -0.000892  1.018831  -0.001
H  H47  1  0.09546970  0.70892802  0.54314269  1  0.094133  0.001109  0.954865  0.001  0.106165  0.000786  1.018049  0.001  0.107926  0.000547  1.017155  0.001  0.093508  0.104725  0.000893  1.018795  0.001
H  H48  1  0.49715650  0.60053962  0.01027917  1  0.124191  -0.000505  0.931627  -0.001  0.137547  -0.000349  0.99111  0.0  0.139969  -0.000202  0.990665  0.0  0.107192  0.135934  -0.00044  0.991295  0.0
H  H49  1  0.00285380  0.39945871  0.51028109  1  0.124231  0.000506  0.931449  0.001  0.137511  0.000349  0.991041  0.0  0.139944  0.000202  0.990585  0.0  0.107184  0.135897  0.000439  0.991228  0.0
H  H50  1  0.50285068  0.39945953  0.98972434  1  0.124187  0.000503  0.931706  0.001  0.137544  0.000349  0.991132  0.0  0.139971  0.000201  0.990687  0.0  0.107203  0.135929  0.00044  0.991319  0.0
H  H51  1  0.99715922  0.60054283  0.48971800  1  0.124188  -0.000505  0.931592  -0.001  0.137516  -0.000349  0.99111  0.0  0.139934  -0.000202  0.99066  0.0  0.107173  0.135905  -0.00044  0.991296  0.0
H  H52  1  0.40270759  0.62617943  0.84244767  1  0.070686  -0.000434  0.942608  -0.001  0.089082  -0.000344  1.001138  0.0  0.088763  -0.000197  1.002855  0.0  0.09116  0.089398  -0.000437  0.999912  -0.001
H  H53  1  0.09729189  0.37382814  0.34245261  1  0.070739  0.000434  0.942519  0.001  0.08913  0.000344  1.001088  0.0  0.088815  0.000196  1.002797  0.0  0.091199  0.089448  0.000436  0.99986  0.001
H  H54  1  0.59727767  0.37382024  0.15755584  1  0.070817  0.000433  0.942541  0.001  0.089244  0.000344  1.00103  0.0  0.088926  0.000197  1.002741  0.0  0.091244  0.089562  0.000436  0.999803  0.001
H  H55  1  0.90270503  0.62617553  0.65754426  1  0.070735  -0.000433  0.942589  -0.001  0.089117  -0.000344  1.001126  0.0  0.088796  -0.000197  1.002842  0.0  0.091181  0.089434  -0.000436  0.999903  -0.001
H  H56  1  0.49579074  0.50706693  0.84948014  1  0.078337  0.000378  0.935375  0.0  0.093592  0.000296  0.998187  0.0  0.094955  0.000181  0.997353  0.0  0.093899  0.092612  0.000368  0.998919  0.0
H  H57  1  0.00420654  0.49294135  0.34948094  1  0.078278  -0.000379  0.93544  0.0  0.0936  -0.000296  0.998213  0.0  0.09494  -0.000181  0.997408  0.0  0.093911  0.092618  -0.000368  0.998947  0.0
H  H58  1  0.50419800  0.49293356  0.15052779  1  0.07831  -0.000379  0.93545  0.0  0.093574  -0.000296  0.998284  0.0  0.094928  -0.000181  0.997461  0.0  0.093905  0.092593  -0.000368  0.999016  0.0
H  H59  1  0.99579277  0.50706467  0.65051889  1  0.078333  0.000379  0.935427  0.0  0.093623  0.000296  0.998211  0.0  0.094959  0.000181  0.997407  0.0  0.093905  0.092644  0.000368  0.99894  0.0
H  H60  1  0.63932344  0.70866015  0.76266470  1  0.100043  0.000981  0.915591  0.001  0.115115  0.000676  0.969419  0.001  0.117004  0.000478  0.968725  0.0  0.097488  0.113624  0.000753  0.970015  0.001
H  H61  1  0.86067587  0.29134748  0.26266553  1  0.100058  -0.000979  0.915526  -0.001  0.115108  -0.000675  0.969414  -0.001  0.116997  -0.000477  0.968716  0.0  0.097506  0.113616  -0.000753  0.970017  -0.001
H  H62  1  0.36066302  0.29134108  0.23734102  1  0.100039  -0.000981  0.915529  -0.001  0.115081  -0.000675  0.969395  -0.001  0.11697  -0.000477  0.9687  0.0  0.097458  0.113592  -0.000752  0.96999  -0.001
H  H63  1  0.13932339  0.70865699  0.73733724  1  0.100021  0.000981  0.915562  0.001  0.115093  0.000676  0.969411  0.001  0.116982  0.000477  0.968714  0.0  0.097472  0.113603  0.000752  0.970005  0.001
H  H64  1  0.73997682  0.59403719  0.78314318  1  0.108444  -0.000273  0.933592  0.0  0.123983  -0.000166  0.991677  0.0  0.125287  -0.000111  0.992124  0.0  0.104776  0.123108  -0.000193  0.991296  0.0
H  H65  1  0.76002612  0.40596803  0.28314354  1  0.108388  0.000275  0.933636  0.0  0.123973  0.000166  0.991696  0.0  0.12526  0.000112  0.992167  0.0  0.104762  0.123113  0.000193  0.991299  0.0
H  H66  1  0.26000846  0.40596326  0.21685886  1  0.108515  0.000273  0.933434  0.0  0.124064  0.000166  0.991506  0.0  0.125355  0.000112  0.991968  0.0  0.104816  0.12319  0.000194  0.991129  0.0
H  H67  1  0.23996722  0.59403174  0.71685923  1  0.108448  -0.000274  0.933582  0.0  0.124021  -0.000166  0.991637  0.0  0.125316  -0.000111  0.992093  0.0  0.104789  0.123144  -0.000194  0.991258  0.0
C  C68  1  0.19568874  0.69164718  0.21820683  1  0.146239  0.00048  3.688774  0.0  0.123011  0.00039  3.937162  0.0  0.132305  0.000367  3.951901  0.0  0.048178  0.116956  0.000405  3.927657  0.0
C  C69  1  0.30430204  0.30835030  0.71819972  1  0.146207  -0.000479  3.688609  0.0  0.123003  -0.00039  3.937011  0.0  0.132295  -0.000367  3.951754  0.0  0.048167  0.116955  -0.000402  3.927497  0.0
C  C70  1  0.80430684  0.30835029  0.78179447  1  0.146387  -0.000478  3.688499  0.0  0.123157  -0.000389  3.936888  0.0  0.132451  -0.000366  3.951625  0.0  0.04827  0.117099  -0.000399  3.927383  0.0
C  C71  1  0.69569108  0.69164250  0.28179052  1  0.146156  0.000468  3.688767  0.0  0.122961  0.000389  3.937143  0.0  0.132256  0.000366  3.951877  0.0  0.048152  0.116907  0.00041  3.927631  0.0
C  C72  1  0.22528881  0.76370499  0.29254006  1  -0.174452  -0.000505  3.703232  -0.001  -0.18994  -0.000234  3.940323  0.0  -0.198137  -0.000191  3.960442  0.0  -0.087305  -0.184717  -0.000269  3.927064  0.0
C  C73  1  0.27470163  0.23629044  0.79253473  1  -0.174598  0.000505  3.703282  0.001  -0.190045  0.000233  3.9404  0.0  -0.198245  0.000191  3.960516  0.0  -0.087336  -0.184828  0.000273  3.927142  0.0
C  C74  1  0.77470910  0.23629328  0.70745977  1  -0.174548  0.000505  3.703241  0.001  -0.190042  0.000234  3.940336  0.0  -0.198242  0.000189  3.960448  0.0  -0.087354  -0.184823  0.000268  3.927079  0.0
C  C75  1  0.72529955  0.76370169  0.20746141  1  -0.174558  -0.000497  3.703404  0.0  -0.190092  -0.000233  3.940471  0.0  -0.198301  -0.00019  3.960589  0.0  -0.087319  -0.184863  -0.000273  3.927209  0.0
C  C76  1  0.18394555  0.86614301  0.27903761  1  0.126875  0.000467  3.732208  0.0  0.142313  0.000322  3.969696  0.0  0.14756  0.000278  3.991463  0.0  0.008889  0.138843  0.000382  3.95498  0.0
C  C77  1  0.31604933  0.13385179  0.77903755  1  0.127056  -0.000456  3.732093  0.0  0.142386  -0.000322  3.969785  0.0  0.147635  -0.000278  3.991558  0.0  0.008905  0.138915  -0.000387  3.955067  0.0
C  C78  1  0.81605465  0.13385451  0.72096000  1  0.126925  -0.000457  3.732124  0.0  0.142404  -0.000323  3.969618  0.0  0.147657  -0.000276  3.991389  0.0  0.00888  0.138932  -0.000383  3.954901  0.0
C  C79  1  0.68395775  0.86614427  0.22096375  1  0.126912  0.000455  3.732036  0.0  0.142404  0.000322  3.969551  0.0  0.147656  0.000277  3.991328  0.0  0.008911  0.138932  0.000383  3.954835  0.0
C  C80  1  0.11300248  0.89120764  0.19002985  1  -0.168406  -0.000437  3.724939  0.0  -0.187275  -0.000163  3.971884  0.0  -0.194658  -0.000165  3.991813  0.0  -0.085884  -0.182568  -0.000162  3.958581  0.0
C  C81  1  0.38699952  0.10879016  0.69003177  1  -0.168624  0.000421  3.724966  0.0  -0.187459  0.000163  3.971945  0.0  -0.194841  0.000165  3.99187  0.0  -0.085956  -0.18275  0.000162  3.958642  0.0
C  C82  1  0.88700351  0.10879073  0.80996555  1  -0.168623  0.000415  3.724973  0.0  -0.187506  0.000163  3.971914  0.0  -0.194891  0.000164  3.991839  0.0  -0.086027  -0.182798  0.000165  3.958614  0.0
C  C83  1  0.61300635  0.89120434  0.30996732  1  -0.168491  -0.000417  3.725166  0.0  -0.187412  -0.000163  3.972102  0.0  -0.194795  -0.000164  3.992025  0.0  -0.085948  -0.182705  -0.000164  3.958802  0.0
C  C84  1  0.08719318  0.81424279  0.11950045  1  0.119545  0.000591  3.74973  0.001  0.094135  0.000416  4.009344  0.0  0.101239  0.000378  4.028513  0.0  0.042984  0.089716  0.000439  3.996604  0.0
C  C85  1  0.41280919  0.18575627  0.61950496  1  0.119535  -0.000575  3.74969  -0.001  0.094155  -0.000416  4.009289  0.0  0.101256  -0.000377  4.028463  0.0  0.043025  0.089739  -0.000443  3.996549  0.0
C  C86  1  0.91281051  0.18575555  0.88049495  1  0.119644  -0.000565  3.749608  -0.001  0.094223  -0.000416  4.009218  0.0  0.101326  -0.000377  4.028386  0.0  0.043053  0.089806  -0.00044  3.996479  0.0
C  C87  1  0.58718855  0.81423659  0.38049339  1  0.119646  0.000571  3.749928  0.001  0.094253  0.000416  4.009524  0.0  0.101359  0.000376  4.028689  0.0  0.043072  0.089834  0.000439  3.996781  0.0
C  C88  1  0.21916862  0.94641441  0.35717094  1  -0.046718  -2.4e-05  3.723181  0.0  -0.106774  2e-06  3.984682  0.0  -0.10386  -0.0  3.995683  0.0  -0.062208  -0.10862  1.1e-05  3.976846  0.0
C  C89  1  0.28082730  0.05358452  0.85717343  1  -0.046583  1.5e-05  3.722988  0.0  -0.106694  -2e-06  3.984634  0.0  -0.103795  -0.0  3.995662  0.0  -0.062206  -0.108536  -6e-06  3.976802  0.0
C  C90  1  0.78082936  0.05358618  0.64282594  1  -0.046677  2.2e-05  3.722863  0.0  -0.106841  -3e-06  3.984495  0.0  -0.103952  1e-06  3.995533  0.0  -0.062225  -0.108685  -3e-06  3.976665  0.0
C  C91  1  0.71918220  0.94641544  0.14282787  1  -0.046327  -2.5e-05  3.722839  0.0  -0.10658  3e-06  3.984417  0.0  -0.103686  -1e-06  3.995462  0.0  -0.062159  -0.108427  6e-06  3.976583  0.0
C  C92  1  0.13265353  0.06255650  0.47966848  1  -0.01972  -1e-06  3.703573  0.0  -0.075441  0.0  3.970587  0.0  -0.072116  -1e-06  3.982969  0.0  -0.07035  -0.07763  0.0  3.961894  0.0
C  C93  1  0.36734838  0.93744013  0.97967395  1  -0.019804  1.4e-05  3.703601  0.0  -0.075467  -1e-06  3.970637  0.0  -0.072137  2e-06  3.983012  0.0  -0.070353  -0.077649  1e-06  3.961939  0.0
C  C94  1  0.86734195  0.93743788  0.52032987  1  -0.019784  1.2e-05  3.703633  0.0  -0.075477  -1e-06  3.970676  0.0  -0.072147  1e-06  3.983048  0.0  -0.070379  -0.077663  -2e-06  3.961975  0.0
C  C95  1  0.63265879  0.06255903  0.02033251  1  -0.01949  -4e-06  3.703539  0.0  -0.075379  0.0  3.970647  0.0  -0.072053  -2e-06  3.983027  0.0  -0.070351  -0.077565  4e-06  3.961944  0.0
C  C96  1  0.00256132  0.89836479  0.46173975  1  -0.012369  7e-05  3.683518  0.0  -0.068256  8.5e-05  3.947651  0.0  -0.065199  5.4e-05  3.959788  0.0  -0.069632  -0.070196  0.000103  3.939124  0.0
C  C97  1  0.49744272  0.10163275  0.96174373  1  -0.01244  -7.1e-05  3.683676  0.0  -0.068109  -8.5e-05  3.947645  0.0  -0.06506  -5.4e-05  3.959772  0.0  -0.069549  -0.070052  -0.000106  3.939124  0.0
C  C98  1  0.99744111  0.10163044  0.53826007  1  -0.012387  -7.8e-05  3.683725  0.0  -0.068129  -8.5e-05  3.947725  0.0  -0.06508  -5.4e-05  3.959856  0.0  -0.06962  -0.070065  -0.000103  3.939165  0.0
C  C99  1  0.50256789  0.89836567  0.03826347  1  -0.012427  6.9e-05  3.683692  0.0  -0.068413  8.5e-05  3.947853  0.0  -0.065363  5.4e-05  3.959978  0.0  -0.069731  -0.070345  0.000106  3.939304  0.0
C  C100  1  0.73413995  0.57777090  0.97490647  1  0.685318  0.000403  3.804238  0.001  0.653336  0.000218  4.102821  0.0  0.69407  0.000245  4.09743  0.0  0.215453  0.625498  0.000182  4.106183  0.0
C  C101  1  0.76586756  0.42223463  0.47490897  1  0.685244  -0.000401  3.804256  -0.001  0.653339  -0.000219  4.102713  0.0  0.694082  -0.000243  4.097315  0.0  0.215469  0.6255  -0.000171  4.106081  0.0
C  C102  1  0.26586051  0.42223514  0.02509041  1  0.685501  -0.000413  3.804082  -0.001  0.653501  -0.000219  4.102634  0.0  0.694239  -0.000245  4.097237  0.0  0.215575  0.625662  -0.000173  4.105996  0.0
C  C103  1  0.23414450  0.57777309  0.52509380  1  0.685214  0.000406  3.804534  0.001  0.653371  0.000219  4.102892  0.0  0.694103  0.000247  4.0975  0.0  0.215509  0.625534  0.000177  4.106256  0.0
C  C104  1  0.57989376  0.62454076  0.95216938  1  -0.255481  -0.001245  3.644869  -0.002  -0.294574  -0.000673  3.893129  -0.001  -0.303512  -0.000361  3.902516  -0.001  -0.16167  -0.287089  -0.000851  3.88568  -0.001
C  C105  1  0.92010426  0.37546480  0.45217661  1  -0.255299  0.001236  3.644866  0.002  -0.294321  0.000674  3.893027  0.001  -0.303284  0.000359  3.902449  0.001  -0.161608  -0.286839  0.000854  3.885585  0.001
C  C106  1  0.42009742  0.37546362  0.04782897  1  -0.2555  0.001249  3.645094  0.002  -0.29448  0.000673  3.893166  0.001  -0.303433  0.00036  3.902574  0.001  -0.161661  -0.286997  0.000855  3.885721  0.001
C  C107  1  0.07989618  0.62454046  0.54782911  1  -0.255356  -0.001243  3.644909  -0.002  -0.294454  -0.000672  3.893099  -0.001  -0.303376  -0.000361  3.90247  -0.001  -0.161594  -0.286972  -0.000852  3.885652  -0.001
C  C108  1  0.51544261  0.59135532  0.85169660  1  -0.058035  -0.002855  3.677798  -0.003  -0.100877  -0.001712  3.938564  -0.002  -0.099204  -0.001115  3.951793  -0.001  -0.164967  -0.10221  -0.001995  3.929283  -0.002
C  C109  1  0.98455417  0.40864858  0.35169509  1  -0.058141  0.002858  3.67768  0.003  -0.101073  0.001711  3.938572  0.002  -0.099379  0.001116  3.951815  0.001  -0.165041  -0.102404  0.001996  3.929302  0.002
C  C110  1  0.48454612  0.40864439  0.14830838  1  -0.058145  0.00286  3.677808  0.003  -0.101082  0.001712  3.93864  0.002  -0.099393  0.001115  3.95186  0.001  -0.165056  -0.102414  0.001995  3.929367  0.002
C  C111  1  0.01544042  0.59135429  0.64830179  1  -0.058072  -0.00286  3.677788  -0.003  -0.100934  -0.001712  3.938544  -0.002  -0.099244  -0.001115  3.951768  -0.001  -0.164973  -0.102268  -0.001997  3.929266  -0.002
C  C112  1  0.62488501  0.62410187  0.76793275  1  -0.254059  -0.001057  3.656451  -0.001  -0.291867  -0.000606  3.90657  -0.001  -0.299915  -0.000352  3.915236  -0.001  -0.161429  -0.285122  -0.000688  3.89983  -0.001
C  C113  1  0.87511075  0.37590105  0.26794050  1  -0.253852  0.001045  3.656315  0.001  -0.291774  0.000606  3.90659  0.001  -0.299803  0.00035  3.915241  0.001  -0.16144  -0.285048  0.000693  3.899864  0.001
C  C114  1  0.37510489  0.37589863  0.23206633  1  -0.254092  0.001057  3.656321  0.001  -0.291906  0.000607  3.906517  0.001  -0.299932  0.000352  3.915157  0.001  -0.161456  -0.285172  0.00069  3.899797  0.001
C  C115  1  0.12488033  0.62410024  0.73206522  1  -0.254019  -0.001052  3.656276  -0.001  -0.291882  -0.000606  3.906475  -0.001  -0.299911  -0.000351  3.915116  -0.001  -0.161457  -0.28514  -0.000687  3.899738  -0.001
C  C116  1  0.57962958  0.58159639  0.66704502  1  0.684927  0.00126  3.818319  0.002  0.651419  0.000677  4.124356  0.001  0.692333  0.000728  4.118481  0.001  0.211672  0.623536  0.000562  4.128127  0.001
C  C117  1  0.92037437  0.41841117  0.16704682  1  0.684612  -0.001256  3.818523  -0.002  0.651239  -0.000678  4.124457  -0.001  0.692152  -0.000726  4.118589  -0.001  0.211646  0.623353  -0.000557  4.128228  -0.001
C  C118  1  0.42036624  0.41840882  0.33295333  1  0.684733  -0.001261  3.818597  -0.002  0.651266  -0.000677  4.124611  -0.001  0.692178  -0.000726  4.118742  -0.001  0.211626  0.623381  -0.000557  4.128376  -0.001
C  C119  1  0.07962255  0.58159251  0.83295521  1  0.684905  0.001259  3.818072  0.002  0.651356  0.000677  4.124155  0.001  0.692267  0.000727  4.118286  0.001  0.211675  0.623469  0.00056  4.127923  0.001
N  N120  1  0.12736888  0.71591754  0.13271023  1  -0.315341  0.001166  3.23885  0.0  -0.267808  0.000738  3.521264  0.0  -0.289556  0.00073  3.536489  0.0  -0.340492  -0.254265  0.000701  3.512377  0.0
N  N121  1  0.37262678  0.28408367  0.63271024  1  -0.315264  -0.001173  3.238731  0.0  -0.267775  -0.000738  3.52117  0.0  -0.289533  -0.00073  3.536403  0.0  -0.340498  -0.254241  -0.0007  3.512288  0.0
N  N122  1  0.87262908  0.28408228  0.86728812  1  -0.315399  -0.001177  3.238717  0.0  -0.267836  -0.000737  3.521088  0.0  -0.28958  -0.00073  3.53631  0.0  -0.340488  -0.254297  -0.000706  3.512203  0.0
N  N123  1  0.62736415  0.71591298  0.36728221  1  -0.315332  0.001178  3.238901  0.0  -0.26783  0.000738  3.521317  0.0  -0.289565  0.000731  3.536539  0.0  -0.34053  -0.254281  0.000698  3.512424  0.0
N  N124  1  0.08289969  0.98285850  0.40856164  1  -0.235193  0.000336  3.190786  0.0  -0.16814  8.9e-05  3.464414  0.0  -0.182366  3.8e-05  3.482134  0.0  -0.347618  -0.157769  0.000173  3.451382  0.0
N  N125  1  0.41709777  0.01713314  0.90856428  1  -0.235207  -0.000337  3.190572  0.0  -0.1682  -8.8e-05  3.464183  0.0  -0.182424  -3.9e-05  3.481906  0.0  -0.347615  -0.157857  -0.000178  3.4512  0.0
N  N126  1  0.91709803  0.01713358  0.59143671  1  -0.23516  -0.000339  3.190613  0.0  -0.168087  -8.8e-05  3.46418  0.0  -0.182309  -3.9e-05  3.481907  0.0  -0.347568  -0.157731  -0.000177  3.451184  0.0
N  N127  1  0.58290921  0.98285983  0.09144071  1  -0.235577  0.000338  3.190998  0.0  -0.168244  8.8e-05  3.464455  0.0  -0.182468  3.9e-05  3.482182  0.0  -0.347646  -0.157877  0.000175  3.451433  0.0
O  O128  1  0.83665180  0.63620764  0.01648538  1  -0.582141  -0.07495  2.085462  -0.099  -0.558783  -0.052188  2.360323  -0.076  -0.604104  -0.041138  2.352625  -0.063  -0.315938  -0.529212  -0.05443  2.366083  -0.076
O  O129  1  0.66335741  0.36380330  0.51649567  1  -0.582129  0.074958  2.08539  0.099  -0.558807  0.05219  2.360235  0.076  -0.604139  0.041138  2.352528  0.063  -0.315947  -0.529239  0.054426  2.366  0.076
O  O130  1  0.16335229  0.36380385  0.98350044  1  -0.582104  0.074958  2.085311  0.099  -0.558754  0.052189  2.360177  0.076  -0.604071  0.041138  2.352473  0.063  -0.315971  -0.529182  0.054425  2.365938  0.076
O  O131  1  0.33665484  0.63621060  0.48351226  1  -0.582125  -0.074959  2.085421  -0.099  -0.558808  -0.052191  2.360174  -0.076  -0.604116  -0.04114  2.352476  -0.063  -0.316002  -0.529235  -0.054431  2.365935  -0.076
O  O132  1  0.74973420  0.48400492  0.94931959  1  -0.578946  0.070471  2.094093  0.093  -0.552768  0.049102  2.372142  0.071  -0.598192  0.039078  2.366169  0.06  -0.310034  -0.523269  0.050934  2.376871  0.071
O  O133  1  0.75026019  0.51599676  0.44931406  1  -0.57893  -0.07047  2.094085  -0.093  -0.552774  -0.049097  2.372064  -0.071  -0.598185  -0.039074  2.366085  -0.06  -0.310038  -0.523282  -0.050937  2.376814  -0.071
O  O134  1  0.25026034  0.51599641  0.05068687  1  -0.579063  -0.070467  2.094077  -0.093  -0.552866  -0.0491  2.372071  -0.071  -0.59829  -0.039076  2.36609  -0.06  -0.310073  -0.52338  -0.050945  2.376828  -0.071
O  O135  1  0.24974373  0.48400931  0.55068429  1  -0.579001  0.070468  2.094493  0.093  -0.552775  0.0491  2.372333  0.071  -0.598215  0.039075  2.366358  0.06  -0.310035  -0.523286  0.050932  2.377083  0.071
O  O136  1  0.60574408  0.64073275  0.59325186  1  -0.575502  -0.082867  2.03527  -0.109  -0.557285  -0.056654  2.303956  -0.082  -0.602223  -0.044428  2.295214  -0.069  -0.321863  -0.528495  -0.05871  2.310649  -0.082
O  O137  1  0.89427272  0.35927081  0.09325391  1  -0.575439  0.082852  2.035339  0.109  -0.557232  0.05665  2.303979  0.082  -0.602189  0.044424  2.295254  0.069  -0.321899  -0.528443  0.058708  2.310663  0.082
O  O138  1  0.39426787  0.35927187  0.40674796  1  -0.575419  0.082861  2.035335  0.109  -0.557198  0.056652  2.304011  0.082  -0.602167  0.044425  2.295275  0.069  -0.321853  -0.528413  0.058701  2.310698  0.082
O  O139  1  0.10574486  0.64072924  0.90674665  1  -0.57548  -0.082862  2.035185  -0.109  -0.557232  -0.056654  2.303875  -0.082  -0.602184  -0.044429  2.295132  -0.069  -0.321869  -0.52845  -0.058717  2.31057  -0.082
O  O140  1  0.52293524  0.48935345  0.66439136  1  -0.588123  0.068523  2.082275  0.09  -0.566371  0.047775  2.362696  0.069  -0.612125  0.037964  2.356855  0.058  -0.313747  -0.536372  0.049617  2.367096  0.069
O  O141  1  0.97706069  0.51065713  0.16439359  1  -0.587986  -0.068515  2.082395  -0.09  -0.566269  -0.047769  2.362732  -0.069  -0.61201  -0.037961  2.356896  -0.058  -0.313686  -0.536264  -0.049617  2.367121  -0.069
O  O142  1  0.47705485  0.51065324  0.33560626  1  -0.588054  -0.068515  2.082331  -0.09  -0.566302  -0.047768  2.362686  -0.069  -0.612033  -0.037959  2.356859  -0.058  -0.31372  -0.536293  -0.049613  2.367074  -0.069
O  O143  1  0.02291793  0.48935175  0.83560845  1  -0.588123  0.068522  2.082214  0.09  -0.566332  0.047775  2.3626  0.069  -0.61207  0.037964  2.356754  0.058  -0.313725  -0.536323  0.049621  2.366989  0.069
