# generated using pymatgen
data_PrH9C7S2O11
_symmetry_space_group_name_H-M   'P 1'
_cell_length_a   6.80121307
_cell_length_b   9.23833063
_cell_length_c   11.39917513
_cell_angle_alpha   113.25594480
_cell_angle_beta   93.68162007
_cell_angle_gamma   104.83560501
_symmetry_Int_Tables_number   1
_chemical_formula_structural   PrH9C7S2O11
_chemical_formula_sum   'Pr2 H18 C14 S4 O22'
_cell_volume   624.98545602
_cell_formula_units_Z   2
loop_
 _symmetry_equiv_pos_site_id
 _symmetry_equiv_pos_as_xyz
  1  'x, y, z'
loop_
 _atom_site_type_symbol
 _atom_site_label
 _atom_site_symmetry_multiplicity
 _atom_site_fract_x
 _atom_site_fract_y
 _atom_site_fract_z
 _atom_site_occupancy
 _atom_site_hle17_bader_spin_density
 _atom_site_hle17_ddec_charge
 _atom_site_hle17_ddec_spin_density
 _atom_site_hle17_ddec_sum_bond_order
 _atom_site_hle17_magmom
 _atom_site_hse06_10hf_bader_spin_density
 _atom_site_hse06_10hf_ddec_charge
 _atom_site_hse06_10hf_ddec_spin_density
 _atom_site_hse06_10hf_ddec_sum_bond_order
 _atom_site_hse06_10hf_magmom
 _atom_site_hse06_bader_spin_density
 _atom_site_hse06_ddec_charge
 _atom_site_hse06_ddec_spin_density
 _atom_site_hse06_ddec_sum_bond_order
 _atom_site_hse06_magmom
 _atom_site_pbe_bader_spin_density
 _atom_site_pbe_cm5_charge
 _atom_site_pbe_ddec_charge
 _atom_site_pbe_ddec_spin_density
 _atom_site_pbe_ddec_sum_bond_order
 _atom_site_pbe_magmom
Pr  Pr0  1  0.33551901  0.82453212  0.22823511  1  0  2.423452  0  1.576894  0  0  2.314348  0  1.959422  0  0  2.348652  0  1.913858  0  0  1.528583  2.28909  0  1.99226  0
Pr  Pr1  1  0.66448005  0.17546944  0.77176358  1  0  2.42345  0  1.576917  0  0  2.314344  0  1.959447  0  0  2.348645  0  1.913886  0  0  1.528598  2.289083  0  1.992284  0
H  H2  1  0.76772928  0.49443143  0.69320622  1  0  0.107412  0  0.98385  0  0  0.110226  0  1.060011  0  0  0.115268  0  1.054638  0  0  0.113819  0.106421  0  1.064091  0
H  H3  1  0.23226786  0.50556890  0.30679463  1  0  0.107408  0  0.983871  0  0  0.110236  0  1.060026  0  0  0.11528  0  1.054643  0  0  0.113817  0.106427  0  1.064111  0
H  H4  1  0.85830983  0.84938181  0.52837949  1  0  0.128102  0  0.914931  0  0  0.138426  0  0.972091  0  0  0.142744  0  0.968322  0  0  0.129667  0.135112  0  0.975131  0
H  H5  1  0.14168636  0.15061603  0.47161790  1  0  0.128098  0  0.914928  0  0  0.13842  0  0.972094  0  0  0.142739  0  0.968324  0  0  0.12967  0.135107  0  0.975132  0
H  H6  1  0.66277958  0.32414133  0.27828486  1  0  0.129965  0  0.945673  0  0  0.132614  0  1.016632  0  0  0.137487  0  1.011968  0  0  0.115841  0.129096  0  1.019919  0
H  H7  1  0.33721857  0.67585777  0.72171564  1  0  0.129973  0  0.945611  0  0  0.132638  0  1.01655  0  0  0.137514  0  1.01189  0  0  0.115855  0.129121  0  1.019836  0
H  H8  1  0.19803849  0.62930778  0.94190282  1  0  0.424393  0  0.881723  0  0  0.393071  0  0.946619  0  0  0.403168  0  0.931961  0  0  0.303407  0.385899  0  0.957017  0
H  H9  1  0.80196159  0.37069256  0.05809727  1  0  0.424387  0  0.881734  0  0  0.393065  0  0.946632  0  0  0.403162  0  0.931973  0  0  0.303398  0.385893  0  0.95703  0
H  H10  1  0.10620527  0.77302022  0.95182829  1  0  0.439423  0  0.855543  0  0  0.409162  0  0.916869  0  0  0.419494  0  0.901793  0  0  0.305864  0.401751  0  0.927703  0
H  H11  1  0.89379482  0.22698012  0.04817180  1  0  0.439436  0  0.855516  0  0  0.40917  0  0.916852  0  0  0.419503  0  0.901776  0  0  0.305863  0.401759  0  0.927686  0
H  H12  1  0.38321428  0.47151591  0.10809768  1  0  0.448994  0  0.84163  0  0  0.417311  0  0.905558  0  0  0.427756  0  0.890172  0  0  0.308732  0.409916  0  0.916457  0
H  H13  1  0.61678580  0.52848442  0.89190153  1  0  0.449003  0  0.841612  0  0  0.417321  0  0.905538  0  0  0.427767  0  0.890151  0  0  0.308729  0.409926  0  0.916437  0
H  H14  1  0.13696250  0.43619654  0.06608774  1  0  0.453012  0  0.834515  0  0  0.426498  0  0.889004  0  0  0.437119  0  0.873568  0  0  0.306915  0.418901  0  0.900064  0
H  H15  1  0.86303759  0.56380379  0.93391235  1  0  0.453011  0  0.834511  0  0  0.426493  0  0.889011  0  0  0.437116  0  0.873569  0  0  0.306911  0.418897  0  0.900068  0
H  H16  1  0.57793023  0.84211596  0.99283187  1  0  0.464623  0  0.812827  0  0  0.438533  0  0.866564  0  0  0.447892  0  0.852796  0  0  0.314503  0.431898  0  0.876336  0
H  H17  1  0.42206985  0.15788437  0.00716821  1  0  0.464616  0  0.812837  0  0  0.438522  0  0.866581  0  0  0.44788  0  0.852813  0  0  0.314499  0.431886  0  0.876353  0
H  H18  1  0.69014732  0.98753258  0.12591108  1  0  0.453991  0  0.835901  0  0  0.42354  0  0.897256  0  0  0.433969  0  0.881958  0  0  0.305909  0.416151  0  0.908112  0
H  H19  1  0.30985277  0.01246776  0.87408988  1  0  0.453988  0  0.835908  0  0  0.423538  0  0.897262  0  0  0.433967  0  0.881964  0  0  0.305909  0.416149  0  0.908118  0
C  C20  1  0.64624976  0.21345660  0.46664765  1  0  0.735506  0  3.852257  0  0  0.688763  0  4.145133  0  0  0.723112  0  4.135224  0  0  0.242291  0.665167  0  4.151758  0
C  C21  1  0.35375034  0.78654374  0.53335420  1  0  0.735464  0  3.85239  0  0  0.688688  0  4.14532  0  0  0.72304  0  4.135405  0  0  0.242282  0.665074  0  4.15194  0
C  C22  1  0.71355976  0.39074598  0.48391478  1  0  -0.066099  0  3.697928  0  0  -0.035827  0  3.925685  0  0  -0.047056  0  3.95078  0  0  -0.006975  -0.028821  0  3.909299  0
C  C23  1  0.28644087  0.60925189  0.51608454  1  0  -0.066155  0  3.69797  0  0  -0.03585  0  3.925729  0  0  -0.04708  0  3.950826  0  0  -0.006976  -0.028781  0  3.909257  0
C  C24  1  0.76899776  0.52083199  0.60819432  1  0  -0.039949  0  3.68139  0  0  -0.080101  0  3.9306  0  0  -0.075712  0  3.949132  0  0  -0.065163  -0.082054  0  3.917959  0
C  C25  1  0.23100381  0.47916835  0.39180582  1  0  -0.039924  0  3.681404  0  0  -0.08009  0  3.930594  0  0  -0.075701  0  3.94913  0  0  -0.06517  -0.08206  0  3.917942  0
C  C26  1  0.81918970  0.68441894  0.62320550  1  0  -0.124189  0  3.718514  0  0  -0.092833  0  3.969552  0  0  -0.103065  0  3.992629  0  0  -0.012033  -0.086622  0  3.953911  0
C  C27  1  0.18081185  0.31558139  0.37679376  1  0  -0.124218  0  3.718485  0  0  -0.092863  0  3.969545  0  0  -0.103096  0  3.992624  0  0  -0.012033  -0.086653  0  3.953911  0
C  C28  1  0.82042876  0.72170537  0.51608486  1  0  -0.031029  0  3.683318  0  0  -0.075467  0  3.937492  0  0  -0.069707  0  3.953593  0  0  -0.062123  -0.078004  0  3.925949  0
C  C29  1  0.17957086  0.27829372  0.48391393  1  0  -0.030975  0  3.683265  0  0  -0.07542  0  3.937437  0  0  -0.06966  0  3.953536  0  0  -0.062097  -0.077956  0  3.925894  0
C  C30  1  0.76633042  0.58979393  0.39224363  1  0  -0.129714  0  3.718671  0  0  -0.099105  0  3.971877  0  0  -0.109372  0  3.994341  0  0  -0.011892  -0.092786  0  3.956975  0
C  C31  1  0.23366773  0.41020516  0.60775686  1  0  -0.129758  0  3.718716  0  0  -0.099137  0  3.971911  0  0  -0.109401  0  3.994372  0  0  -0.011885  -0.092819  0  3.957018  0
C  C32  1  0.71167378  0.42567635  0.37491779  1  0  -0.036976  0  3.672562  0  0  -0.080886  0  3.929116  0  0  -0.075459  0  3.945985  0  0  -0.066413  -0.084461  0  3.91819  0
C  C33  1  0.28832390  0.57432150  0.62508141  1  0  -0.03698  0  3.672527  0  0  -0.080905  0  3.92906  0  0  -0.075487  0  3.945938  0  0  -0.06645  -0.084503  0  3.918131  0
S  S34  1  0.87333483  0.84392074  0.78437224  1  0  1.362731  0  5.581214  0  0  1.257209  0  6.105527  0  0  1.305613  0  6.080922  0  0  0.54731  1.223781  0  6.121683  0
S  S35  1  0.12666572  0.15608084  0.21562826  1  0  1.362797  0  5.581207  0  0  1.257253  0  6.10553  0  0  1.305656  0  6.080927  0  0  0.547291  1.223824  0  6.121691  0
S  S36  1  0.76244546  0.63247339  0.25337352  1  0  1.394051  0  5.549725  0  0  1.294617  0  6.058344  0  0  1.343068  0  6.033371  0  0  0.563978  1.261248  0  6.07446  0
S  S37  1  0.23755268  0.36752569  0.74662522  1  0  1.394109  0  5.549732  0  0  1.294671  0  6.058338  0  0  1.343123  0  6.033362  0  0  0.563998  1.2613  0  6.074453  0
O  O38  1  0.57075669  0.10171578  0.35205278  1  0  -0.734401  0  2.004434  0  0  -0.690542  0  2.261573  0  0  -0.713713  0  2.248824  0  0  -0.400627  -0.674554  0  2.270432  0
O  O39  1  0.42924295  0.89828332  0.64794865  1  0  -0.734328  0  2.004488  0  0  -0.690459  0  2.26165  0  0  -0.713632  0  2.2489  0  0  -0.40062  -0.674473  0  2.270515  0
O  O40  1  0.66687770  0.18643855  0.56672146  1  0  -0.763053  0  2.062079  0  0  -0.720697  0  2.327163  0  0  -0.743039  0  2.312459  0  0  -0.41193  -0.704995  0  2.337409  0
O  O41  1  0.33312240  0.81356178  0.43327951  1  0  -0.763065  0  2.062096  0  0  -0.720711  0  2.327206  0  0  -0.743056  0  2.312501  0  0  -0.411934  -0.705009  0  2.337455  0
O  O42  1  0.08093015  0.85645298  0.84365575  1  0  -0.675616  0  1.990817  0  0  -0.608335  0  2.224918  0  0  -0.631183  0  2.209739  0  0  -0.317141  -0.592008  0  2.235181  0
O  O43  1  0.91907096  0.14354613  0.15634486  1  0  -0.675637  0  1.990803  0  0  -0.608342  0  2.224896  0  0  -0.631189  0  2.209717  0  0  -0.317129  -0.592015  0  2.23516  0
O  O44  1  0.87708860  0.99613930  0.76965587  1  0  -0.770135  0  2.055185  0  0  -0.723013  0  2.332716  0  0  -0.741928  0  2.314023  0  0  -0.409659  -0.709778  0  2.345575  0
O  O45  1  0.12291001  0.00386103  0.23034416  1  0  -0.77018  0  2.055211  0  0  -0.723059  0  2.332757  0  0  -0.741974  0  2.314063  0  0  -0.409675  -0.709824  0  2.345618  0
O  O46  1  0.71117999  0.79120373  0.84950827  1  0  -0.658018  0  1.988033  0  0  -0.603695  0  2.237979  0  0  -0.624826  0  2.223393  0  0  -0.315254  -0.588891  0  2.247604  0
O  O47  1  0.28881964  0.20879537  0.15049140  1  0  -0.658036  0  1.988049  0  0  -0.603687  0  2.237977  0  0  -0.624817  0  2.223389  0  0  -0.315239  -0.588881  0  2.247602  0
O  O48  1  0.66146563  0.76152411  0.27855131  1  0  -0.744943  0  2.029084  0  0  -0.698122  0  2.296835  0  0  -0.718026  0  2.27998  0  0  -0.382385  -0.684482  0  2.308559  0
O  O49  1  0.33853398  0.23847498  0.72144748  1  0  -0.744942  0  2.029065  0  0  -0.698124  0  2.296832  0  0  -0.718027  0  2.279977  0  0  -0.382382  -0.684486  0  2.308557  0
O  O50  1  0.64503310  0.47462431  0.14258024  1  0  -0.678027  0  2.031789  0  0  -0.609184  0  2.263563  0  0  -0.631523  0  2.249407  0  0  -0.307371  -0.593462  0  2.272915  0
O  O51  1  0.35496652  0.52537478  0.85741943  1  0  -0.678062  0  2.031804  0  0  -0.609217  0  2.263571  0  0  -0.631554  0  2.24941  0  0  -0.307404  -0.593494  0  2.272921  0
O  O52  1  0.97767607  0.68683243  0.23944993  1  0  -0.747389  0  2.078195  0  0  -0.69725  0  2.353866  0  0  -0.718513  0  2.337814  0  0  -0.397831  -0.681932  0  2.364505  0
O  O53  1  0.02232309  0.31316543  0.76055021  1  0  -0.747407  0  2.078203  0  0  -0.697267  0  2.35386  0  0  -0.71853  0  2.337806  0  0  -0.397832  -0.681949  0  2.364498  0
O  O54  1  0.11770928  0.69936534  0.99477388  1  0  -0.888402  0  1.888604  0  0  -0.837176  0  2.067846  0  0  -0.856546  0  2.037299  0  0  -0.608758  -0.823384  0  2.089478  0
O  O55  1  0.88229127  0.30063622  0.00522574  1  0  -0.888419  0  1.888578  0  0  -0.837196  0  2.067815  0  0  -0.856568  0  2.037267  0  0  -0.608752  -0.823404  0  2.089448  0
O  O56  1  0.27115341  0.52267300  0.11476237  1  0  -0.939136  0  1.891002  0  0  -0.894751  0  2.09264  0  0  -0.91231  0  2.058844  0  0  -0.656415  -0.882208  0  2.116563  0
O  O57  1  0.72884815  0.47732734  0.88523689  1  0  -0.939157  0  1.890999  0  0  -0.894762  0  2.092613  0  0  -0.912326  0  2.058837  0  0  -0.656411  -0.88222  0  2.116537  0
O  O58  1  0.55976756  0.89468207  0.08328503  1  0  -0.938546  0  1.796636  0  0  -0.897315  0  1.984104  0  0  -0.913342  0  1.950668  0  0  -0.654842  -0.885967  0  2.007736  0
O  O59  1  0.44023253  0.10531827  0.91671505  1  0  -0.938531  0  1.796642  0  0  -0.89729  0  1.984105  0  0  -0.913316  0  1.950669  0  0  -0.654837  -0.885942  0  2.007738  0
