# generated using pymatgen
data_SmH2C4N3O5
_symmetry_space_group_name_H-M   'P 1'
_cell_length_a   8.55437695
_cell_length_b   8.55438386
_cell_length_c   9.84037840
_cell_angle_alpha   89.98290826
_cell_angle_beta   90.01735219
_cell_angle_gamma   119.99781779
_symmetry_Int_Tables_number   1
_chemical_formula_structural   SmH2C4N3O5
_chemical_formula_sum   'Sm3 H6 C12 N9 O15'
_cell_volume   623.63297692
_cell_formula_units_Z   3
loop_
 _symmetry_equiv_pos_site_id
 _symmetry_equiv_pos_as_xyz
  1  'x, y, z'
loop_
 _atom_site_type_symbol
 _atom_site_label
 _atom_site_symmetry_multiplicity
 _atom_site_fract_x
 _atom_site_fract_y
 _atom_site_fract_z
 _atom_site_occupancy
 _atom_site_hle17_bader_spin_density
 _atom_site_hle17_ddec_charge
 _atom_site_hle17_ddec_spin_density
 _atom_site_hle17_ddec_sum_bond_order
 _atom_site_hle17_magmom
 _atom_site_hse06_10hf_bader_spin_density
 _atom_site_hse06_10hf_ddec_charge
 _atom_site_hse06_10hf_ddec_spin_density
 _atom_site_hse06_10hf_ddec_sum_bond_order
 _atom_site_hse06_10hf_magmom
 _atom_site_hse06_bader_spin_density
 _atom_site_hse06_ddec_charge
 _atom_site_hse06_ddec_spin_density
 _atom_site_hse06_ddec_sum_bond_order
 _atom_site_hse06_magmom
 _atom_site_pbe_bader_spin_density
 _atom_site_pbe_cm5_charge
 _atom_site_pbe_ddec_charge
 _atom_site_pbe_ddec_spin_density
 _atom_site_pbe_ddec_sum_bond_order
 _atom_site_pbe_magmom
Sm  Sm0  1  0.78226594  0.00005773  0.66668427  1  0  2.161479  0  1.77356  0  0  1.960329  0  2.296177  0  0  2.008094  0  2.25016  0  0  1.550776  1.925345  0  2.329551  0
Sm  Sm1  1  0.00005856  0.78226444  0.33331137  1  0  2.161465  0  1.773423  0  0  1.96029  0  2.296058  0  0  2.008054  0  2.250044  0  0  1.550762  1.925305  0  2.329436  0
Sm  Sm2  1  0.21773984  0.21773781  0.99999756  1  0  2.160823  0  1.773305  0  0  1.95979  0  2.295483  0  0  2.006393  0  2.251399  0  0  1.550686  1.924741  0  2.32896  0
H  H3  1  0.09236990  0.36191959  0.79403322  1  0  0.474504  0  0.765736  0  0  0.45099  0  0.822312  0  0  0.461356  0  0.810211  0  0  0.349617  0.443522  0  0.831054  0
H  H4  1  0.63808734  0.73049029  0.46066770  1  0  0.474173  0  0.765246  0  0  0.450645  0  0.822024  0  0  0.461009  0  0.809926  0  0  0.34946  0.443166  0  0.830805  0
H  H5  1  0.26942286  0.90748635  0.12737920  1  0  0.474787  0  0.76463  0  0  0.451245  0  0.82142  0  0  0.461633  0  0.809256  0  0  0.349613  0.443737  0  0.830278  0
H  H6  1  0.73048802  0.63808782  0.53933013  1  0  0.47418  0  0.765217  0  0  0.450656  0  0.821986  0  0  0.461021  0  0.809885  0  0  0.349456  0.443178  0  0.830766  0
H  H7  1  0.90748387  0.26942323  0.87261824  1  0  0.474784  0  0.764621  0  0  0.451235  0  0.821422  0  0  0.461625  0  0.809254  0  0  0.349619  0.443725  0  0.830281  0
H  H8  1  0.36191366  0.09236855  0.20596990  1  0  0.474549  0  0.765631  0  0  0.451034  0  0.822217  0  0  0.461401  0  0.810113  0  0  0.349614  0.443566  0  0.83096  0
C  C9  1  0.65911983  0.69538843  0.93374526  1  0  0.004726  0  3.68597  0  0  -0.001204  0  3.942165  0  0  -0.003651  0  3.95941  0  0  0.105716  0.000248  0  3.930621  0
C  C10  1  0.30456550  0.96385180  0.60057072  1  0  0.004571  0  3.684622  0  0  -0.000514  0  3.940227  0  0  -0.002807  0  3.957221  0  0  0.105641  0.000839  0  3.928862  0
C  C11  1  0.03632240  0.34074796  0.26695635  1  0  0.004351  0  3.684683  0  0  -0.001459  0  3.940533  0  0  -0.003931  0  3.95766  0  0  0.105715  -2.7e-05  0  3.929084  0
C  C12  1  0.96385028  0.30456004  0.39942690  1  0  0.004625  0  3.68461  0  0  -0.000508  0  3.940251  0  0  -0.002819  0  3.957261  0  0  0.10565  0.00085  0  3.92888  0
C  C13  1  0.34075533  0.03632495  0.73304356  1  0  0.004506  0  3.684801  0  0  -0.00132  0  3.940664  0  0  -0.003805  0  3.9578  0  0  0.105784  0.000116  0  3.929209  0
C  C14  1  0.69538195  0.65912422  0.06625050  1  0  0.004427  0  3.686071  0  0  -0.00135  0  3.9422  0  0  -0.003798  0  3.95944  0  0  0.105687  0.000103  0  3.930656  0
C  C15  1  0.51400311  0.60802082  0.82917340  1  0  0.7182  0  3.880574  0  0  0.671632  0  4.175507  0  0  0.707757  0  4.162018  0  0  0.239507  0.647087  0  4.183928  0
C  C16  1  0.39192288  0.90609189  0.49615881  1  0  0.718532  0  3.879973  0  0  0.670675  0  4.17682  0  0  0.706757  0  4.163362  0  0  0.238841  0.646175  0  4.185225  0
C  C17  1  0.09408940  0.48593634  0.16249994  1  0  0.717435  0  3.881074  0  0  0.670632  0  4.176512  0  0  0.706741  0  4.163057  0  0  0.239093  0.646113  0  4.184904  0
C  C18  1  0.90609561  0.39192939  0.50383481  1  0  0.718391  0  3.880148  0  0  0.670571  0  4.176966  0  0  0.706657  0  4.163513  0  0  0.238786  0.646072  0  4.185366  0
C  C19  1  0.48593952  0.09409035  0.83750241  1  0  0.717161  0  3.881313  0  0  0.670311  0  4.176848  0  0  0.706422  0  4.163402  0  0  0.238967  0.645791  0  4.185236  0
C  C20  1  0.60802377  0.51400625  0.17082292  1  0  0.718399  0  3.880733  0  0  0.671704  0  4.17582  0  0  0.707831  0  4.162332  0  0  0.239566  0.647159  0  4.184239  0
N  N21  1  0.80146093  0.85734435  0.89751370  1  0  -0.320057  0  3.216471  0  0  -0.287018  0  3.502957  0  0  -0.294552  0  3.520031  0  0  -0.271286  -0.281517  0  3.491091  0
N  N22  1  0.14258662  0.94417038  0.56427485  1  0  -0.318779  0  3.21471  0  0  -0.285632  0  3.50072  0  0  -0.293191  0  3.517808  0  0  -0.27063  -0.280117  0  3.488904  0
N  N23  1  0.05592284  0.19840037  0.23077862  1  0  -0.31884  0  3.215086  0  0  -0.285556  0  3.501215  0  0  -0.292942  0  3.518337  0  0  -0.271256  -0.280035  0  3.48935  0
N  N24  1  0.94417145  0.14258384  0.43572343  1  0  -0.318822  0  3.214733  0  0  -0.285681  0  3.500773  0  0  -0.293233  0  3.517863  0  0  -0.270701  -0.280165  0  3.488955  0
N  N25  1  0.19840425  0.05592197  0.76922003  1  0  -0.318902  0  3.2153  0  0  -0.285613  0  3.50144  0  0  -0.292998  0  3.518565  0  0  -0.271252  -0.280092  0  3.489569  0
N  N26  1  0.85734018  0.80146341  0.10248064  1  0  -0.31991  0  3.21636  0  0  -0.286888  0  3.502794  0  0  -0.294421  0  3.519869  0  0  -0.271232  -0.281387  0  3.490926  0
N  N27  1  0.91822015  0.91822450  0.99999998  1  0  -0.159779  0  3.231731  0  0  -0.130843  0  3.535716  0  0  -0.134789  0  3.551159  0  0  -0.177725  -0.127777  0  3.524808  0
N  N28  1  0.08167491  0.00003376  0.66670465  1  0  -0.161401  0  3.23463  0  0  -0.133006  0  3.539334  0  0  -0.137147  0  3.554817  0  0  -0.178153  -0.129935  0  3.528408  0
N  N29  1  0.00003565  0.08167350  0.33329467  1  0  -0.161327  0  3.234619  0  0  -0.132922  0  3.539315  0  0  -0.137066  0  3.554799  0  0  -0.178031  -0.129853  0  3.528392  0
O  O30  1  0.99992719  0.24688319  0.83329748  1  0  -0.923636  0  1.973094  0  0  -0.870746  0  2.199329  0  0  -0.8898  0  2.171519  0  0  -0.613447  -0.857  0  2.218575  0
O  O31  1  0.75311541  0.75311608  0.49999549  1  0  -0.922363  0  1.972518  0  0  -0.869308  0  2.198496  0  0  -0.888495  0  2.17079  0  0  -0.61273  -0.855573  0  2.21769  0
O  O32  1  0.24687828  0.99992510  0.16669807  1  0  -0.923693  0  1.973055  0  0  -0.870772  0  2.199203  0  0  -0.889825  0  2.1714  0  0  -0.613433  -0.857026  0  2.218451  0
O  O33  1  0.37912171  0.45174415  0.84770873  1  0  -0.71612  0  2.07013  0  0  -0.662305  0  2.326215  0  0  -0.686983  0  2.311625  0  0  -0.414497  -0.644855  0  2.33577  0
O  O34  1  0.54826203  0.92761853  0.51467897  1  0  -0.716186  0  2.069944  0  0  -0.661909  0  2.326776  0  0  -0.686772  0  2.312136  0  0  -0.414741  -0.644456  0  2.336309  0
O  O35  1  0.07271416  0.62082625  0.18108965  1  0  -0.715963  0  2.069786  0  0  -0.661987  0  2.325972  0  0  -0.686859  0  2.311322  0  0  -0.414336  -0.644532  0  2.335523  0
O  O36  1  0.92761864  0.54825537  0.48532009  1  0  -0.716097  0  2.070246  0  0  -0.661831  0  2.32707  0  0  -0.686691  0  2.31243  0  0  -0.41468  -0.644382  0  2.336603  0
O  O37  1  0.62083255  0.07270738  0.81890480  1  0  -0.715858  0  2.069738  0  0  -0.661854  0  2.325931  0  0  -0.68673  0  2.311288  0  0  -0.414299  -0.644397  0  2.335479  0
O  O38  1  0.45174138  0.37912333  0.15228700  1  0  -0.716133  0  2.070088  0  0  -0.662289  0  2.326225  0  0  -0.686969  0  2.311638  0  0  -0.414458  -0.644836  0  2.335777  0
O  O39  1  0.53600380  0.69892637  0.72164728  1  0  -0.700452  0  2.007657  0  0  -0.651752  0  2.249429  0  0  -0.675684  0  2.23673  0  0  -0.388737  -0.635031  0  2.257664  0
O  O40  1  0.30101267  0.83704432  0.38867110  1  0  -0.700555  0  2.007649  0  0  -0.651528  0  2.250129  0  0  -0.675451  0  2.237435  0  0  -0.388432  -0.634809  0  2.258348  0
O  O41  1  0.16303239  0.46407128  0.05495503  1  0  -0.700129  0  2.006935  0  0  -0.651387  0  2.248817  0  0  -0.675159  0  2.236175  0  0  -0.388635  -0.634651  0  2.257022  0
O  O42  1  0.83703504  0.30100761  0.61132424  1  0  -0.700539  0  2.007469  0  0  -0.651522  0  2.249935  0  0  -0.675447  0  2.237243  0  0  -0.388445  -0.634801  0  2.258152  0
O  O43  1  0.46407361  0.16303517  0.94503725  1  0  -0.699983  0  2.007215  0  0  -0.651223  0  2.249104  0  0  -0.674994  0  2.236464  0  0  -0.388577  -0.63449  0  2.257309  0
O  O44  1  0.69892399  0.53599479  0.27834418  1  0  -0.700545  0  2.007764  0  0  -0.651813  0  2.249605  0  0  -0.675743  0  2.236905  0  0  -0.388841  -0.635094  0  2.25784  0
