# generated using pymatgen
data_MnH5C7NO5
_symmetry_space_group_name_H-M   'P 1'
_cell_length_a   7.37540107
_cell_length_b   14.18898081
_cell_length_c   14.19146648
_cell_angle_alpha   117.07108444
_cell_angle_beta   99.98321024
_cell_angle_gamma   99.97575572
_symmetry_Int_Tables_number   1
_chemical_formula_structural   MnH5C7NO5
_chemical_formula_sum   'Mn6 H30 C42 N6 O30'
_cell_volume   1247.41189644
_cell_formula_units_Z   6
loop_
 _symmetry_equiv_pos_site_id
 _symmetry_equiv_pos_as_xyz
  1  'x, y, z'
loop_
 _atom_site_type_symbol
 _atom_site_label
 _atom_site_symmetry_multiplicity
 _atom_site_fract_x
 _atom_site_fract_y
 _atom_site_fract_z
 _atom_site_occupancy
 _atom_site_pbe_bader_charge
 _atom_site_pbe_bader_spin_density
 _atom_site_pbe_cm5_charge
 _atom_site_pbe_ddec_charge
 _atom_site_pbe_ddec_spin_density
 _atom_site_pbe_ddec_sum_bond_order
 _atom_site_pbe_magmom
Mn  Mn0  1  0.45646164  0.72829316  0.83436754  1  1.565236  4.479875  0.612106  1.047499  4.616579  2.358771  4.424
Mn  Mn1  1  0.72844978  0.10603465  0.27164675  1  1.567044  4.478825  0.612845  1.048461  4.615949  2.357953  4.423
Mn  Mn2  1  0.62217579  0.16560546  0.89395833  1  1.563174  4.479693  0.612507  1.047672  4.617262  2.358691  4.423
Mn  Mn3  1  0.54354123  0.27170753  0.16563268  1  1.565234  4.479868  0.612121  1.047531  4.616564  2.35869  4.424
Mn  Mn4  1  0.27154758  0.89396603  0.72835368  1  1.567009  4.478834  0.612865  1.048499  4.615965  2.35788  4.423
Mn  Mn5  1  0.37782844  0.83439522  0.10604484  1  1.563209  4.479663  0.612458  1.047633  4.617222  2.35873  4.423
H  H6  1  0.55213056  0.44130595  0.75364328  1  0.114909  0.000632  0.133927  0.123872  0.000172  0.980425  0.0
H  H7  1  0.11087841  0.31237033  0.55860067  1  0.142903  0.000566  0.134668  0.123903  0.00017  0.981373  0.0
H  H8  1  0.79831500  0.24617411  0.68775105  1  0.119131  0.000637  0.133804  0.12273  0.000182  0.981786  0.0
H  H9  1  0.44787190  0.55869390  0.24635654  1  0.114896  0.000632  0.13394  0.123891  0.000172  0.980399  0.0
H  H10  1  0.88912170  0.68763036  0.44140141  1  0.142906  0.000566  0.134666  0.123909  0.00017  0.981377  0.0
H  H11  1  0.20168373  0.75382657  0.31224951  1  0.119139  0.000637  0.133815  0.122725  0.000182  0.981752  0.0
H  H12  1  0.55715181  0.29715953  0.56400057  1  0.127879  0.000579  0.112941  0.123862  -6.3e-05  1.009165  0.0
H  H13  1  0.26013447  0.26689828  0.70272214  1  0.129486  0.000569  0.112281  0.123533  -7.8e-05  1.009539  0.0
H  H14  1  0.99293029  0.43578955  0.73318107  1  0.101679  0.00057  0.11265  0.122871  -7.9e-05  1.010229  0.0
H  H15  1  0.44284926  0.70284033  0.43599912  1  0.127905  0.000579  0.112938  0.123861  -6.4e-05  1.009154  0.0
H  H16  1  0.73986564  0.73310240  0.29727925  1  0.129529  0.000569  0.112296  0.123579  -7.8e-05  1.009494  0.0
H  H17  1  0.00706982  0.56421114  0.26681961  1  0.101684  0.00057  0.112644  0.122848  -7.9e-05  1.010247  0.0
H  H18  1  0.81003060  0.56488329  0.51813467  1  0.10717  0.000485  0.114518  0.121953  -0.000191  1.001737  0.0
H  H19  1  0.24497648  0.95314029  0.43504443  1  0.110892  0.000498  0.114753  0.123323  -0.000178  1.000657  0.0
H  H20  1  0.29207762  0.48188482  0.04679610  1  0.123576  0.000475  0.114794  0.123229  -0.00019  1.000262  0.0
H  H21  1  0.18996774  0.43511657  0.48186336  1  0.107183  0.000485  0.114504  0.121944  -0.000191  1.00179  0.0
H  H22  1  0.75502403  0.04686123  0.56495807  1  0.110873  0.000498  0.11477  0.12333  -0.000178  1.000631  0.0
H  H23  1  0.70792484  0.51811504  0.95320301  1  0.123568  0.000475  0.114797  0.123219  -0.00019  1.000324  0.0
H  H24  1  0.80510960  0.69758069  0.70959788  1  0.182113  0.000582  0.13386  0.126908  -0.000302  1.03137  0.0
H  H25  1  0.10740119  0.01192548  0.30235408  1  0.169519  0.000621  0.133678  0.127009  -0.000303  1.031567  0.0
H  H26  1  0.09563362  0.29041972  0.98809907  1  0.179282  0.000572  0.133813  0.126833  -0.000316  1.031319  0.0
H  H27  1  0.19489148  0.30241917  0.29040110  1  0.182106  0.000582  0.133868  0.126909  -0.000302  1.031364  0.0
H  H28  1  0.89259630  0.98807272  0.69764453  1  0.169507  0.000621  0.133661  0.126997  -0.000303  1.031655  0.0
H  H29  1  0.90437022  0.70958013  0.01190017  1  0.179272  0.000572  0.133793  0.126772  -0.000315  1.031324  0.0
H  H30  1  0.86055198  0.86025173  0.01129853  1  0.151695  0.004753  0.117651  0.024867  0.002303  1.039161  0.002
H  H31  1  0.00041898  0.15098316  0.13966543  1  0.135925  0.004797  0.117497  0.025123  0.002286  1.037746  0.002
H  H32  1  0.84900420  0.98867558  0.84901894  1  0.154667  0.004719  0.117418  0.025859  0.002284  1.037591  0.002
H  H33  1  0.13944538  0.13974895  0.98870049  1  0.151544  0.004754  0.11764  0.024825  0.002303  1.039194  0.002
H  H34  1  0.99958388  0.84901752  0.86033550  1  0.135948  0.004797  0.11751  0.025126  0.002286  1.037718  0.002
H  H35  1  0.15099220  0.01132593  0.15098177  1  0.154659  0.00472  0.117425  0.025894  0.002283  1.037568  0.002
C  C36  1  0.66926337  0.33656344  0.41001708  1  1.616297  0.024551  0.21924  0.581444  0.023588  4.215712  0.018
C  C37  1  0.33264779  0.07345737  0.66336183  1  1.607804  0.02472  0.220502  0.585851  0.023639  4.208694  0.018
C  C38  1  0.25914564  0.58986305  0.92644962  1  1.608935  0.024743  0.220091  0.585336  0.02363  4.206759  0.018
C  C39  1  0.33073414  0.66343476  0.58997942  1  1.616544  0.024549  0.219221  0.581575  0.023588  4.215547  0.018
C  C40  1  0.66735135  0.92654414  0.33664055  1  1.608015  0.024718  0.220502  0.585866  0.023638  4.208668  0.018
C  C41  1  0.74085585  0.41013764  0.07355048  1  1.608916  0.024745  0.220098  0.585271  0.023632  4.206834  0.018
C  C42  1  0.60950204  0.46140094  0.69735339  1  0.362756  0.031609  0.037279  -0.05227  0.024714  3.877028  0.018
C  C43  1  0.14812561  0.23596201  0.53851090  1  0.296767  0.031926  0.03675  -0.052399  0.02482  3.877876  0.018
C  C44  1  0.91205085  0.30248875  0.76411778  1  0.32152  0.031826  0.038183  -0.050281  0.024774  3.874865  0.018
C  C45  1  0.39050042  0.53859892  0.30264643  1  0.362509  0.031612  0.037246  -0.052293  0.024715  3.877021  0.018
C  C46  1  0.85187450  0.76403867  0.46148978  1  0.296236  0.031921  0.036744  -0.052429  0.024817  3.87798  0.018
C  C47  1  0.08794885  0.69751110  0.23588108  1  0.32153  0.031828  0.038184  -0.050279  0.024776  3.874831  0.018
C  C48  1  0.68140361  0.41991866  0.52552826  1  -0.034831  0.049557  -0.011144  -0.024084  0.038379  3.969754  0.03
C  C49  1  0.26155063  0.10559310  0.57999267  1  0.024259  0.049487  -0.010389  -0.024631  0.038438  3.968271  0.03
C  C50  1  0.15589868  0.47437292  0.89441136  1  -0.001792  0.049566  -0.010418  -0.025189  0.038486  3.967371  0.03
C  C51  1  0.31859568  0.58008037  0.47447019  1  -0.03487  0.049557  -0.011119  -0.024046  0.038378  3.969809  0.03
C  C52  1  0.73845085  0.89440759  0.42000883  1  0.02403  0.049485  -0.010394  -0.024613  0.038435  3.968393  0.03
C  C53  1  0.84410240  0.52562694  0.10558833  1  -0.00157  0.04957  -0.010457  -0.025226  0.038488  3.967498  0.03
C  C54  1  0.61230325  0.38509023  0.59387124  1  -0.017864  -0.002788  -0.078307  -0.130109  -0.003563  4.013364  -0.004
C  C55  1  0.22731422  0.20879904  0.61480687  1  0.018203  -0.002909  -0.077896  -0.129707  -0.00358  4.013498  -0.004
C  C56  1  0.01830951  0.40597806  0.79126981  1  0.006662  -0.002845  -0.078322  -0.128512  -0.003571  4.011309  -0.004
C  C57  1  0.38769246  0.61490715  0.40612683  1  -0.01761  -0.00279  -0.078304  -0.130138  -0.003563  4.013446  -0.004
C  C58  1  0.77268629  0.79120247  0.38519634  1  0.018701  -0.002908  -0.077889  -0.129743  -0.00358  4.013554  -0.004
C  C59  1  0.98169020  0.59402180  0.20872905  1  0.006675  -0.002845  -0.07832  -0.128482  -0.00357  4.011261  -0.004
C  C60  1  0.75391179  0.53369755  0.56773549  1  0.118343  -0.003175  -0.067028  -0.100101  -0.004021  3.966085  -0.004
C  C61  1  0.22017923  0.03397598  0.46622345  1  0.006261  -0.002857  -0.067419  -0.10127  -0.003917  3.965365  -0.004
C  C62  1  0.18627436  0.43222830  0.96601770  1  0.044475  -0.002935  -0.067845  -0.102424  -0.004019  3.966082  -0.004
C  C63  1  0.24608654  0.46630231  0.43226324  1  0.08036  -0.003049  -0.067024  -0.100115  -0.00402  3.966243  -0.004
C  C64  1  0.77981951  0.96602470  0.53377710  1  0.006292  -0.002858  -0.067397  -0.10121  -0.003919  3.965354  -0.004
C  C65  1  0.81372769  0.56777073  0.03398100  1  0.043865  -0.002934  -0.067833  -0.102451  -0.004018  3.96623  -0.004
C  C66  1  0.75439655  0.60838128  0.67278282  1  0.301479  0.033371  0.04603  -0.03072  0.025839  3.81492  0.019
C  C67  1  0.14595384  0.06432714  0.39154552  1  0.353291  0.033199  0.045053  -0.033653  0.02585  3.814325  0.019
C  C68  1  0.08167801  0.32718911  0.93569646  1  0.36456  0.033162  0.0456  -0.030997  0.025874  3.815069  0.019
C  C69  1  0.24560316  0.39161858  0.32721604  1  0.339778  0.033245  0.046047  -0.030672  0.02584  3.814926  0.019
C  C70  1  0.85404681  0.93567189  0.60845727  1  0.353322  0.033204  0.045052  -0.033688  0.025853  3.814397  0.019
C  C71  1  0.91832445  0.67281075  0.06430265  1  0.364937  0.033165  0.045643  -0.030862  0.025875  3.814935  0.019
C  C72  1  0.76125743  0.89172448  0.06009048  1  1.502456  0.023468  0.168083  0.509436  0.02148  4.136092  0.019
C  C73  1  0.86959927  0.16831022  0.10821781  1  1.517502  0.023379  0.169064  0.511443  0.021434  4.134495  0.019
C  C74  1  0.70084120  0.93988381  0.83162771  1  1.49888  0.023508  0.166998  0.506938  0.021529  4.133765  0.019
C  C75  1  0.23874269  0.10827620  0.93990949  1  1.502602  0.023468  0.168107  0.509524  0.02148  4.136156  0.019
C  C76  1  0.13040277  0.83168881  0.89178159  1  1.517522  0.023378  0.169107  0.511537  0.021434  4.134378  0.019
C  C77  1  0.29915699  0.06011852  0.16837284  1  1.498928  0.023507  0.166991  0.506911  0.021527  4.133745  0.019
N  N78  1  0.67952709  0.57195687  0.73592861  1  -0.644277  0.018952  -0.106569  0.331071  0.013434  3.937554  0.015
N  N79  1  0.10760710  0.16395170  0.42797770  1  -0.624413  0.018928  -0.10644  0.332989  0.013489  3.932022  0.015
N  N80  1  0.94362322  0.26398012  0.83611690  1  -0.636104  0.018917  -0.106776  0.331072  0.013426  3.935706  0.015
N  N81  1  0.32047357  0.42804216  0.26407067  1  -0.644573  0.018955  -0.106536  0.331091  0.013436  3.937588  0.015
N  N82  1  0.89239218  0.83604733  0.57202285  1  -0.624404  0.018927  -0.106443  0.333003  0.013489  3.932005  0.015
N  N83  1  0.05637647  0.73601974  0.16388337  1  -0.636123  0.018921  -0.106779  0.33106  0.01343  3.9357  0.015
O  O84  1  0.66804426  0.37003506  0.34061215  1  -1.196126  0.071056  -0.30921  -0.561944  0.050927  2.298748  0.036
O  O85  1  0.29783147  0.97054744  0.62992158  1  -1.189976  0.071082  -0.30972  -0.56392  0.051003  2.295284  0.036
O  O86  1  0.32716836  0.65940549  0.02933889  1  -1.196037  0.071164  -0.309046  -0.562765  0.051052  2.294342  0.036
O  O87  1  0.33195544  0.62996479  0.65938741  1  -1.196098  0.071052  -0.309203  -0.562025  0.050928  2.298716  0.036
O  O88  1  0.70216725  0.02945324  0.37008038  1  -1.190039  0.071083  -0.309743  -0.563957  0.051002  2.295309  0.036
O  O89  1  0.67282900  0.34059520  0.97066225  1  -1.196016  0.071165  -0.309055  -0.562714  0.051052  2.294362  0.036
O  O90  1  0.58193212  0.83793253  0.01423483  1  -1.217096  0.105312  -0.300606  -0.540467  0.078055  2.486569  0.045
O  O91  1  0.74417122  0.17631039  0.16205754  1  -1.220726  0.105196  -0.300474  -0.541801  0.077983  2.487174  0.045
O  O92  1  0.56744308  0.98575703  0.82364315  1  -1.218386  0.105281  -0.299378  -0.539037  0.078044  2.485831  0.045
O  O93  1  0.41806716  0.16206650  0.98576643  1  -1.217028  0.105298  -0.300637  -0.540567  0.078059  2.486641  0.045
O  O94  1  0.25583027  0.82369029  0.83794186  1  -1.220757  0.105195  -0.300509  -0.541856  0.077983  2.487164  0.045
O  O95  1  0.43255525  0.01424283  0.17635558  1  -1.218384  0.105285  -0.299414  -0.53912  0.078049  2.485785  0.045
O  O96  1  0.66866504  0.64338763  0.83345902  1  -0.64658  0.026307  -0.221431  -0.473528  0.014797  2.08315  -0.002
O  O97  1  0.02538650  0.19007861  0.35656222  1  -0.644934  0.02653  -0.221194  -0.473303  0.014797  2.081091  -0.002
O  O98  1  0.83523413  0.16644848  0.81003398  1  -0.641705  0.0262  -0.221324  -0.473279  0.014697  2.082332  -0.002
O  O99  1  0.33133701  0.35661141  0.16653968  1  -0.646603  0.026304  -0.221467  -0.473575  0.014796  2.083179  -0.002
O  O100  1  0.97461181  0.80992124  0.64343933  1  -0.644959  0.026535  -0.2212  -0.47331  0.014798  2.081008  -0.002
O  O101  1  0.16476599  0.83355220  0.18996600  1  -0.64171  0.026197  -0.22133  -0.473277  0.014693  2.08232  -0.002
O  O102  1  0.65732507  0.23881662  0.39128198  1  -1.187958  0.073466  -0.308902  -0.559331  0.052672  2.324664  0.037
O  O103  1  0.41841270  0.15250066  0.76111387  1  -1.197238  0.073396  -0.309237  -0.561073  0.052627  2.322743  0.037
O  O104  1  0.26592578  0.60849635  0.84738477  1  -1.190164  0.073457  -0.309479  -0.561108  0.05264  2.322391  0.037
O  O105  1  0.34266830  0.76118159  0.60871484  1  -1.188144  0.073457  -0.308905  -0.559419  0.052673  2.324633  0.037
O  O106  1  0.58159016  0.84750003  0.23888847  1  -1.197227  0.073402  -0.309195  -0.561034  0.052624  2.32274  0.037
O  O107  1  0.73407571  0.39150434  0.15261604  1  -1.190171  0.073462  -0.3095  -0.561109  0.052643  2.322367  0.037
O  O108  1  0.83143704  0.97534629  0.15477524  1  -1.205574  0.061598  -0.293302  -0.518927  0.044973  2.394689  0.03
O  O109  1  0.85602149  0.17932166  0.02459036  1  -1.201994  0.061676  -0.293723  -0.5199  0.045134  2.394658  0.031
O  O110  1  0.67619826  0.84519883  0.82055481  1  -1.202991  0.061487  -0.293008  -0.51832  0.044964  2.39552  0.03
O  O111  1  0.16856266  0.02465357  0.84522502  1  -1.205574  0.061601  -0.293283  -0.518916  0.044975  2.394682  0.03
O  O112  1  0.14398234  0.82067820  0.97541099  1  -1.201988  0.061671  -0.293745  -0.51996  0.045134  2.394595  0.031
O  O113  1  0.32380047  0.15480185  0.17944574  1  -1.203051  0.061486  -0.292971  -0.518279  0.044962  2.395657  0.03
