# generated using pymatgen
data_ZnH18PdC22(N2O)4
_symmetry_space_group_name_H-M   'P 1'
_cell_length_a   8.44028013
_cell_length_b   9.92944519
_cell_length_c   17.13800000
_cell_angle_alpha   85.83000857
_cell_angle_beta   82.35200266
_cell_angle_gamma   66.88028155
_symmetry_Int_Tables_number   1
_chemical_formula_structural   ZnH18PdC22(N2O)4
_chemical_formula_sum   'Zn2 H36 Pd2 C44 N16 O8'
_cell_volume   1308.85560494
_cell_formula_units_Z   2
loop_
 _symmetry_equiv_pos_site_id
 _symmetry_equiv_pos_as_xyz
  1  'x, y, z'
loop_
 _atom_site_type_symbol
 _atom_site_label
 _atom_site_symmetry_multiplicity
 _atom_site_fract_x
 _atom_site_fract_y
 _atom_site_fract_z
 _atom_site_occupancy
 _atom_site_hle17_bader_spin_density
 _atom_site_hle17_ddec_charge
 _atom_site_hle17_ddec_spin_density
 _atom_site_hle17_ddec_sum_bond_order
 _atom_site_hle17_magmom
 _atom_site_hse06_10hf_bader_spin_density
 _atom_site_hse06_10hf_ddec_charge
 _atom_site_hse06_10hf_ddec_spin_density
 _atom_site_hse06_10hf_ddec_sum_bond_order
 _atom_site_hse06_10hf_magmom
 _atom_site_hse06_bader_spin_density
 _atom_site_hse06_ddec_charge
 _atom_site_hse06_ddec_spin_density
 _atom_site_hse06_ddec_sum_bond_order
 _atom_site_hse06_magmom
 _atom_site_pbe_bader_charge
 _atom_site_pbe_bader_spin_density
 _atom_site_pbe_cm5_charge
 _atom_site_pbe_ddec_charge
 _atom_site_pbe_ddec_spin_density
 _atom_site_pbe_ddec_sum_bond_order
 _atom_site_pbe_magmom
Zn  Zn0  1  0.13779851  0.28338138  0.18931399  1  0  1.017193  0  1.939855  0  0  0.831357  0  2.402255  0  0  0.874858  0  2.352561  0  1.314259  0  0.719673  0.801211  0  2.436262  0
Zn  Zn1  1  0.86220098  0.71661694  0.81068512  1  0  1.017252  0  1.939788  0  0  0.831431  0  2.402188  0  0  0.874931  0  2.352492  0  1.314177  0  0.719669  0.801286  0  2.436194  0
H  H2  1  0.96198372  0.17564699  0.30376428  1  0  0.426051  0  0.813774  0  0  0.413018  0  0.860201  0  0  0.420518  0  0.852076  0  0.58555  0  0.327734  0.407806  0  0.865829  0
H  H3  1  0.03801987  0.82435023  0.69623519  1  0  0.426017  0  0.813856  0  0  0.413027  0  0.860217  0  0  0.420526  0  0.852094  0  0.585552  0  0.327744  0.407815  0  0.865846  0
H  H4  1  0.98014792  0.09450610  0.22475811  1  0  0.444268  0  0.852656  0  0  0.410337  0  0.92083  0  0  0.421334  0  0.90467  0  0.679107  0  0.297998  0.402691  0  0.932024  0
H  H5  1  0.01985277  0.90549222  0.77524150  1  0  0.444321  0  0.852579  0  0  0.410394  0  0.920742  0  0  0.42139  0  0.904583  0  0.679122  0  0.298017  0.402748  0  0.931936  0
H  H6  1  0.44795509  0.32172995  0.15286900  1  0  0.412081  0  0.825998  0  0  0.39899  0  0.874913  0  0  0.406228  0  0.866985  0  0.598506  0  0.317168  0.393925  0  0.880536  0
H  H7  1  0.55204421  0.67826618  0.84713022  1  0  0.412071  0  0.826022  0  0  0.398978  0  0.874937  0  0  0.406216  0  0.867009  0  0.598507  0  0.317168  0.393912  0  0.88056  0
H  H8  1  0.38099552  0.35525469  0.06977816  1  0  0.413972  0  0.896594  0  0  0.375422  0  0.973029  0  0  0.386712  0  0.956764  0  0.65348  0  0.280663  0.36755  0  0.984337  0
H  H9  1  0.61900536  0.64474582  0.93022194  1  0  0.413957  0  0.89661  0  0  0.375398  0  0.973058  0  0  0.386689  0  0.956793  0  0.653483  0  0.280655  0.367527  0  0.984365  0
H  H10  1  0.57222034  0.23232809  0.51099275  1  0  0.285676  0  0.890511  0  0  0.276898  0  0.940382  0  0  0.283075  0  0.936222  0  0.446516  0  0.322747  0.272468  0  0.943499  0
H  H11  1  0.42778602  0.76767352  0.48900694  1  0  0.285661  0  0.890512  0  0  0.276897  0  0.940378  0  0  0.283073  0  0.936219  0  0.446539  0  0.322743  0.272467  0  0.943496  0
H  H12  1  0.75800079  0.39177297  0.85038073  1  0  0.302897  0  0.90609  0  0  0.284087  0  0.972666  0  0  0.291066  0  0.967913  0  0.482366  0  0.30844  0.279205  0  0.975943  0
H  H13  1  0.24199739  0.60823083  0.14962115  1  0  0.302842  0  0.906168  0  0  0.284025  0  0.972719  0  0  0.291004  0  0.967967  0  0.482386  0  0.308432  0.279143  0  0.975993  0
H  H14  1  0.40702607  0.11178273  0.31080825  1  0  0.081333  0  0.980059  0  0  0.087786  0  1.045934  0  0  0.088992  0  1.046542  0  0.167761  0  0.110234  0.08729  0  1.044624  0
H  H15  1  0.59297292  0.88821669  0.68919260  1  0  0.081356  0  0.98003  0  0  0.087811  0  1.045899  0  0  0.089017  0  1.046507  0  0.167774  0  0.110246  0.087313  0  1.044589  0
H  H16  1  0.49871226  0.14510593  0.43359094  1  0  0.106572  0  0.952465  0  0  0.115664  0  1.014107  0  0  0.119769  0  1.011122  0  0.079879  0  0.108857  0.112676  0  1.016467  0
H  H17  1  0.50129014  0.85489130  0.56640920  1  0  0.106584  0  0.952514  0  0  0.115699  0  1.014135  0  0  0.119805  0  1.011146  0  0.079904  0  0.108869  0.11271  0  1.016497  0
H  H18  1  0.08792014  0.57857041  0.44401775  1  0  0.118057  0  0.939396  0  0  0.126021  0  0.999414  0  0  0.129755  0  0.997957  0  0.114677  0  0.113899  0.123427  0  1.000348  0
H  H19  1  0.91208691  0.42143229  0.55597951  1  0  0.118051  0  0.939334  0  0  0.126003  0  0.999373  0  0  0.129736  0  0.997919  0  0.114715  0  0.113898  0.123409  0  1.000307  0
H  H20  1  0.01013775  0.52508548  0.31759225  1  0  0.087454  0  0.951981  0  0  0.095617  0  1.012607  0  0  0.097235  0  1.012247  0  0.14306  0  0.117615  0.094365  0  1.013029  0
H  H21  1  0.98986553  0.47491503  0.68240652  1  0  0.087409  0  0.951952  0  0  0.095569  0  1.012573  0  0  0.097193  0  1.012202  0  0.14309  0  0.117592  0.094314  0  1.013004  0
H  H22  1  0.80824004  0.13354144  0.57586079  1  0  0.097637  0  0.934141  0  0  0.112461  0  0.985059  0  0  0.115624  0  0.983716  0  0.059991  0  0.105369  0.11021  0  0.985716  0
H  H23  1  0.19176651  0.86646236  0.42413938  1  0  0.097747  0  0.93401  0  0  0.112526  0  0.984977  0  0  0.115688  0  0.983636  0  0.059927  0  0.1054  0.110275  0  0.985636  0
H  H24  1  0.95320993  0.12145558  0.69392260  1  0  0.112345  0  0.974735  0  0  0.121153  0  1.035053  0  0  0.124376  0  1.033235  0  0.128001  0  0.104733  0.118787  0  1.036495  0
H  H25  1  0.04679493  0.87854931  0.30607764  1  0  0.112335  0  0.974699  0  0  0.12115  0  1.035023  0  0  0.124372  0  1.033205  0  0.128011  0  0.104729  0.118783  0  1.036465  0
H  H26  1  0.50517323  0.48506325  0.78992037  1  0  0.101151  0  0.950575  0  0  0.114921  0  1.007313  0  0  0.117405  0  1.006084  0  0.080982  0  0.103126  0.113166  0  1.008194  0
H  H27  1  0.49482627  0.51493507  0.21007991  1  0  0.101175  0  0.950555  0  0  0.114969  0  1.007263  0  0  0.117452  0  1.006037  0  0.08097  0  0.103145  0.113213  0  1.008146  0
H  H28  1  0.36456354  0.50441443  0.66913283  1  0  0.123689  0  0.966217  0  0  0.132457  0  1.023814  0  0  0.13632  0  1.021375  0  0.156069  0  0.105713  0.129662  0  1.025686  0
H  H29  1  0.63543716  0.49558389  0.33086795  1  0  0.123706  0  0.966272  0  0  0.132471  0  1.023865  0  0  0.136335  0  1.021425  0  0.156042  0  0.105722  0.129675  0  1.025739  0
H  H30  1  0.20036061  0.01000912  0.92596162  1  0  0.115563  0  0.939246  0  0  0.12253  0  1.003049  0  0  0.127008  0  0.999784  0  0.12776  0  0.107739  0.119393  0  1.005418  0
H  H31  1  0.79963141  0.98999249  0.07404193  1  0  0.115508  0  0.93922  0  0  0.122481  0  1.003028  0  0  0.126957  0  0.99977  0  0.127564  0  0.107697  0.119337  0  1.005398  0
H  H32  1  0.28461052  0.05691002  0.05293672  1  0  0.082966  0  0.947582  0  0  0.09249  0  1.006174  0  0  0.094002  0  1.006241  0  0.101578  0  0.116074  0.09139  0  1.006168  0
H  H33  1  0.71538559  0.94309049  0.94706544  1  0  0.082949  0  0.947604  0  0  0.092486  0  1.006186  0  0  0.093999  0  1.00625  0  0.101562  0  0.116058  0.091386  0  1.00618  0
H  H34  1  0.83144160  0.42576760  0.09147186  1  0  0.077384  0  0.973428  0  0  0.085031  0  1.03726  0  0  0.086784  0  1.036696  0  0.127059  0  0.112306  0.083721  0  1.037735  0
H  H35  1  0.16854852  0.57423291  0.90853128  1  0  0.077363  0  0.973424  0  0  0.085  0  1.037274  0  0  0.086753  0  1.036712  0  0.127284  0  0.112311  0.08369  0  1.03775  0
H  H36  1  0.72835370  0.39437766  0.96899968  1  0  0.113927  0  0.962017  0  0  0.122414  0  1.025197  0  0  0.126012  0  1.023206  0  0.083598  0  0.111153  0.119798  0  1.026821  0
H  H37  1  0.27163605  0.60561847  0.03100308  1  0  0.113936  0  0.962041  0  0  0.122434  0  1.025203  0  0  0.126031  0  1.023214  0  0.083642  0  0.111167  0.119819  0  1.026827  0
Pd  Pd38  1  0.64840016  0.78771038  0.18577199  1  0  0.156005  0  3.582736  0  0  0.161793  0  4.121291  0  0  0.160276  0  4.092737  0  0.54301  0  0.651828  0.164996  0  4.140105  0
Pd  Pd39  1  0.35159606  0.21228466  0.81422631  1  0  0.156033  0  3.582705  0  0  0.161754  0  4.121345  0  0  0.160231  0  4.092805  0  0.542925  0  0.651835  0.164962  0  4.140139  0
C  C40  1  0.84803888  0.60160628  0.18918548  1  0  0.11612  0  3.487119  0  0  0.083415  0  3.828153  0  0  0.096914  0  3.834549  0  0.880245  0  0.002847  0.07366  0  3.823653  0
C  C41  1  0.15195942  0.39839204  0.81081255  1  0  0.116082  0  3.487047  0  0  0.083397  0  3.828069  0  0  0.096896  0  3.834463  0  0.880327  0  0.002833  0.073641  0  3.823568  0
C  C42  1  0.69844237  0.84915287  0.28503298  1  0  0.016656  0  3.547307  0  0  -0.003955  0  3.906241  0  0  0.002098  0  3.916999  0  0.781587  0  -0.057049  -0.0087  0  3.898964  0
C  C43  1  0.30155467  0.15083778  0.71496662  1  0  0.016527  0  3.547584  0  0  -0.004074  0  3.906534  0  0  0.001981  0  3.91729  0  0.781606  0  -0.057065  -0.008821  0  3.899256  0
C  C44  1  0.45616487  0.97771056  0.18134092  1  0  0.123554  0  3.496699  0  0  0.090553  0  3.836484  0  0  0.105189  0  3.84113  0  0.881722  0  0.000684  0.080021  0  3.833275  0
C  C45  1  0.54383582  0.02228776  0.81866045  1  0  0.123731  0  3.496906  0  0  0.09076  0  3.836678  0  0  0.105396  0  3.84132  0  0.881406  0  0.000806  0.080228  0  3.833466  0
C  C46  1  0.59663418  0.72762828  0.08639161  1  0  0.045404  0  3.516035  0  0  0.02036  0  3.862517  0  0  0.02957  0  3.871682  0  0.81825  0  -0.031945  0.013648  0  3.856098  0
C  C47  1  0.40336293  0.27237004  0.91360649  1  0  0.045414  0  3.515789  0  0  0.020377  0  3.862298  0  0  0.029587  0  3.871461  0  0.818405  0  -0.03193  0.013664  0  3.855877  0
C  C48  1  0.33844051  0.21471081  0.34129865  1  0  0.1177  0  3.718314  0  0  0.091132  0  3.965201  0  0  0.09678  0  3.984931  0  0.434359  0  0.037972  0.087772  0  3.950556  0
C  C49  1  0.66155968  0.78528860  0.65870037  1  0  0.117753  0  3.718203  0  0  0.091201  0  3.965098  0  0  0.09685  0  3.984828  0  0.4344  0  0.038017  0.087842  0  3.950451  0
C  C50  1  0.39019146  0.23606754  0.41148820  1  0  -0.137767  0  3.717921  0  0  -0.158898  0  3.964753  0  0  -0.164431  0  3.984752  0  -0.042359  0  -0.08097  -0.155302  0  3.951278  0
C  C51  1  0.60981113  0.76393188  0.58851008  1  0  -0.137825  0  3.717978  0  0  -0.158992  0  3.964815  0  0  -0.164525  0  3.984814  0  -0.042381  0  -0.080995  -0.155395  0  3.951339  0
C  C52  1  0.30160118  0.36980285  0.44963104  1  0  -0.002935  0  3.738395  0  0  0.011314  0  3.975742  0  0  0.01049  0  3.99603  0  -0.019655  0  0.006772  0.011821  0  3.962161  0
C  C53  1  0.69840637  0.63019875  0.55036683  1  0  -0.002893  0  3.738489  0  0  0.011363  0  3.975792  0  0  0.01054  0  3.996081  0  -0.019594  0  0.006755  0.01187  0  3.96221  0
C  C54  1  0.16116924  0.47422935  0.41566598  1  0  -0.104925  0  3.694661  0  0  -0.128102  0  3.946324  0  0  -0.133297  0  3.966352  0  -0.002672  0  -0.068985  -0.124709  0  3.932826  0
C  C55  1  0.83883712  0.52577226  0.58433080  1  0  -0.104933  0  3.69453  0  0  -0.128134  0  3.946223  0  0  -0.133329  0  3.96625  0  -0.003238  0  -0.068985  -0.124743  0  3.932728  0
C  C56  1  0.11798756  0.44446378  0.34529178  1  0  0.146171  0  3.677615  0  0  0.116265  0  3.931819  0  0  0.123474  0  3.948449  0  0.456743  0  0.050582  0.111358  0  3.920794  0
C  C57  1  0.88201672  0.55553454  0.65470702  1  0  0.146286  0  3.677453  0  0  0.116424  0  3.931645  0  0  0.123632  0  3.948278  0  0.457075  0  0.050638  0.111515  0  3.920621  0
C  C58  1  0.34558567  0.41007811  0.52445557  1  0  0.538308  0  3.820461  0  0  0.494531  0  4.107889  0  0  0.523324  0  4.106131  0  1.421476  0  0.243511  0.475081  0  4.108605  0
C  C59  1  0.65442069  0.58992350  0.47554354  1  0  0.538247  0  3.820349  0  0  0.494559  0  4.107639  0  0  0.523347  0  4.105888  0  1.423719  0  0.243613  0.47511  0  4.108353  0
C  C60  1  0.57523909  0.31794668  0.61525755  1  0  0.252012  0  3.800803  0  0  0.242765  0  4.056271  0  0  0.249534  0  4.08024  0  0.327885  0  0.095683  0.238234  0  4.039701  0
C  C61  1  0.42476796  0.68205602  0.38474147  1  0  0.252006  0  3.800764  0  0  0.242747  0  4.056257  0  0  0.249515  0  4.080233  0  0.327938  0  0.095663  0.238221  0  4.039682  0
C  C62  1  0.74097762  0.21022982  0.62339399  1  0  -0.157852  0  3.756116  0  0  -0.176254  0  4.009819  0  0  -0.181068  0  4.031374  0  -0.045332  0  -0.09458  -0.172343  0  3.993527  0
C  C63  1  0.25902804  0.78977069  0.37660696  1  0  -0.158014  0  3.756059  0  0  -0.176372  0  4.009781  0  0  -0.181187  0  4.031337  0  -0.045328  0  -0.094662  -0.172463  0  3.99349  0
C  C64  1  0.82180823  0.20064021  0.69019921  1  0  -0.135559  0  3.742836  0  0  -0.156298  0  3.993277  0  0  -0.159411  0  4.015035  0  0.020756  0  -0.092816  -0.154259  0  3.977997  0
C  C65  1  0.17819731  0.79936578  0.30980094  1  0  -0.135446  0  3.742806  0  0  -0.156163  0  3.993251  0  0  -0.159278  0  4.015012  0  0.020787  0  -0.092699  -0.154129  0  3.977979  0
C  C66  1  0.73526788  0.29880800  0.75137495  1  0  0.23512  0  3.796761  0  0  0.227795  0  4.050551  0  0  0.232871  0  4.074313  0  0.347683  0  0.087719  0.224337  0  4.034641  0
C  C67  1  0.26473388  0.70119580  0.24862553  1  0  0.235203  0  3.796835  0  0  0.227774  0  4.050734  0  0  0.23285  0  4.0745  0  0.347932  0  0.087709  0.224318  0  4.034821  0
C  C68  1  0.57202585  0.40887215  0.74233764  1  0  -0.15281  0  3.77534  0  0  -0.177484  0  4.040667  0  0  -0.180661  0  4.061515  0  -0.052358  0  -0.101071  -0.175291  0  4.026548  0
C  C69  1  0.42797214  0.59112945  0.25766143  1  0  -0.152913  0  3.775323  0  0  -0.177586  0  4.040688  0  0  -0.180765  0  4.061541  0  -0.052255  0  -0.101132  -0.175394  0  4.02657  0
C  C70  1  0.49198639  0.42009380  0.67499928  1  0  -0.152642  0  3.741019  0  0  -0.174527  0  3.999973  0  0  -0.179263  0  4.020853  0  -0.021812  0  -0.100985  -0.171265  0  3.985868  0
C  C71  1  0.50801500  0.57990562  0.32500025  1  0  -0.152657  0  3.740995  0  0  -0.174531  0  3.99997  0  0  -0.179269  0  4.020853  0  -0.021925  0  -0.100981  -0.171272  0  3.985862  0
C  C72  1  0.91767094  0.17456152  0.85738021  1  0  0.550323  0  3.815162  0  0  0.500143  0  4.105063  0  0  0.529322  0  4.103368  0  1.399074  0  0.248557  0.480526  0  4.10563  0
C  C73  1  0.08232844  0.82544228  0.14262276  1  0  0.550241  0  3.81501  0  0  0.500032  0  4.104856  0  0  0.52923  0  4.10313  0  1.399218  0  0.248468  0.480414  0  4.105425  0
C  C74  1  0.96096450  0.20112763  0.93522694  1  0  -0.004557  0  3.757118  0  0  0.010358  0  3.997053  0  0  0.009091  0  4.017469  0  0.014795  0  0.00386  0.011118  0  3.983383  0
C  C75  1  0.03902713  0.79886959  0.06477448  1  0  -0.004582  0  3.756951  0  0  0.010408  0  3.996792  0  0  0.009134  0  4.017206  0  0.014927  0  0.003926  0.011167  0  3.983121  0
C  C76  1  0.11644094  0.10370905  0.96129200  1  0  -0.130174  0  3.72618  0  0  -0.15663  0  3.988759  0  0  -0.161751  0  4.007203  0  -0.0288  0  -0.083113  -0.153381  0  3.97667  0
C  C77  1  0.88355057  0.89629365  0.03870803  1  0  -0.130012  0  3.726153  0  0  -0.156482  0  3.988701  0  0  -0.161608  0  4.007151  0  -0.028477  0  -0.083072  -0.153223  0  3.976601  0
C  C78  1  0.16284115  0.12930361  0.03185678  1  0  0.146314  0  3.686573  0  0  0.115113  0  3.940044  0  0  0.121256  0  3.958547  0  0.509905  0  0.050341  0.111137  0  3.927462  0
C  C79  1  0.83715017  0.87069690  0.96814453  1  0  0.146283  0  3.6865  0  0  0.115043  0  3.940001  0  0  0.121188  0  3.958501  0  0.50954  0  0.050344  0.111069  0  3.927416  0
C  C80  1  0.91063037  0.33490457  0.05334686  1  0  0.134778  0  3.69057  0  0  0.107208  0  3.934124  0  0  0.113663  0  3.951986  0  0.475445  0  0.047479  0.103027  0  3.921894  0
C  C81  1  0.08936434  0.66509375  0.94665665  1  0  0.134857  0  3.69057  0  0  0.10728  0  3.934146  0  0  0.113737  0  3.952001  0  0.475354  0  0.04747  0.103097  0  3.921919  0
C  C82  1  0.85461861  0.31758303  0.98351047  1  0  -0.125386  0  3.695484  0  0  -0.145653  0  3.938948  0  0  -0.151125  0  3.959519  0  0.001448  0  -0.078808  -0.142195  0  3.925081  0
C  C83  1  0.14537799  0.68241638  0.01649112  1  0  -0.125394  0  3.695349  0  0  -0.145703  0  3.938804  0  0  -0.151175  0  3.959376  0  0.001328  0  -0.078823  -0.142247  0  3.92494  0
N  N84  1  0.96713280  0.49010286  0.18933495  1  0  -0.442194  0  3.124726  0  0  -0.368762  0  3.434537  0  0  -0.389279  0  3.441979  0  -1.391452  0  -0.376442  -0.35484  0  3.429374  0
N  N85  1  0.03286619  0.50989655  0.81066473  1  0  -0.442176  0  3.124732  0  0  -0.368742  0  3.434536  0  0  -0.389259  0  3.441977  0  -1.39154  0  -0.376426  -0.354818  0  3.429374  0
N  N86  1  0.72208380  0.88781580  0.34400183  1  0  -0.430793  0  2.698555  0  0  -0.398649  0  2.937009  0  0  -0.410621  0  2.951283  0  -1.308845  0  -0.392333  -0.390323  0  2.927318  0
N  N87  1  0.27791223  0.11217704  0.65599891  1  0  -0.43068  0  2.69874  0  0  -0.398542  0  2.937199  0  0  -0.410513  0  2.95147  0  -1.308878  0  -0.392324  -0.390215  0  2.927512  0
N  N88  1  0.34549101  0.09411288  0.17961674  1  0  -0.469915  0  3.159182  0  0  -0.396022  0  3.468463  0  0  -0.416565  0  3.47456  0  -1.398297  0  -0.380973  -0.382147  0  3.464259  0
N  N89  1  0.65451315  0.90589092  0.82038126  1  0  -0.470065  0  3.15943  0  0  -0.396196  0  3.468726  0  0  -0.416737  0  3.474816  0  -1.397877  0  -0.381074  -0.382321  0  3.464527  0
N  N90  1  0.57085623  0.69053496  0.02753343  1  0  -0.44499  0  2.84992  0  0  -0.389211  0  3.099859  0  0  -0.406006  0  3.113092  0  -1.360567  0  -0.362245  -0.377612  0  3.090721  0
N  N91  1  0.42914157  0.30946445  0.97246458  1  0  -0.445036  0  2.849615  0  0  -0.389261  0  3.099557  0  0  -0.406055  0  3.112787  0  -1.360679  0  -0.362283  -0.377659  0  3.09042  0
N  N92  1  0.20547588  0.31726977  0.30765104  1  0  -0.337449  0  3.229644  0  0  -0.264551  0  3.493726  0  0  -0.281522  0  3.509874  0  -1.237673  0  -0.316777  -0.25307  0  3.482427  0
N  N93  1  0.79452821  0.68272636  0.69234903  1  0  -0.337516  0  3.229587  0  0  -0.264663  0  3.49371  0  0  -0.281635  0  3.509857  0  -1.237627  0  -0.316822  -0.253182  0  3.48241  0
N  N94  1  0.50070082  0.31604081  0.54752351  1  0  -0.420982  0  3.380294  0  0  -0.370128  0  3.617449  0  0  -0.39235  0  3.628499  0  -1.246403  0  -0.389303  -0.354906  0  3.609552  0
N  N95  1  0.49930434  0.68396080  0.45247509  1  0  -0.420981  0  3.380195  0  0  -0.370176  0  3.617353  0  0  -0.392391  0  3.628405  0  -1.248695  0  -0.389384  -0.354953  0  3.609451  0
N  N96  1  0.80458855  0.29377496  0.82214966  1  0  -0.428841  0  3.36251  0  0  -0.371727  0  3.599199  0  0  -0.394682  0  3.611418  0  -1.242287  0  -0.3876  -0.355966  0  3.590447  0
N  N97  1  0.19541303  0.70622665  0.17785210  1  0  -0.428822  0  3.362497  0  0  -0.371612  0  3.599126  0  0  -0.394573  0  3.611339  0  -1.242491  0  -0.38753  -0.355848  0  3.590372  0
N  N98  1  0.06311854  0.24411054  0.07705946  1  0  -0.312223  0  3.232467  0  0  -0.23509  0  3.491647  0  0  -0.251736  0  3.507768  0  -1.26741  0  -0.312934  -0.223649  0  3.48046  0
N  N99  1  0.93687926  0.75588887  0.92294147  1  0  -0.312368  0  3.232354  0  0  -0.235217  0  3.491538  0  0  -0.251863  0  3.507657  0  -1.26733  0  -0.312989  -0.223777  0  3.480352  0
O  O100  1  0.95621381  0.19127077  0.24741409  1  0  -0.807238  0  1.858883  0  0  -0.753446  0  2.044377  0  0  -0.772377  0  2.015744  0  -1.221891  0  -0.566524  -0.740215  0  2.063854  0
O  O101  1  0.04378858  0.80872646  0.75258604  1  0  -0.807234  0  1.858888  0  0  -0.75349  0  2.044341  0  0  -0.772419  0  2.015707  0  -1.221906  0  -0.566548  -0.74026  0  2.063819  0
O  O102  1  0.34784288  0.38433787  0.12678896  1  0  -0.808531  0  1.85306  0  0  -0.761107  0  2.047093  0  0  -0.778974  0  2.019117  0  -1.249667  0  -0.562951  -0.748394  0  2.066166  0
O  O103  1  0.65215970  0.61566154  0.87320932  1  0  -0.808531  0  1.853084  0  0  -0.761082  0  2.047115  0  0  -0.77895  0  2.01914  0  -1.249677  0  -0.562937  -0.748365  0  2.066183  0
O  O104  1  0.24729408  0.52199447  0.56010752  1  0  -0.527669  0  1.89683  0  0  -0.490736  0  2.105256  0  0  -0.50945  0  2.100023  0  -1.136576  0  -0.293273  -0.477974  0  2.108666  0
O  O105  1  0.75271297  0.47800824  0.43988975  1  0  -0.527623  0  1.896794  0  0  -0.490722  0  2.105182  0  0  -0.509434  0  2.099954  0  -1.136597  0  -0.293281  -0.477961  0  2.10859  0
O  O106  1  0.98649335  0.04951874  0.82952439  1  0  -0.563267  0  2.00149  0  0  -0.514175  0  2.227996  0  0  -0.536365  0  2.221603  0  -1.170522  0  -0.2874  -0.498942  0  2.232006  0
O  O107  1  0.01350175  0.95048396  0.17047716  1  0  -0.563186  0  2.001478  0  0  -0.514119  0  2.228012  0  0  -0.536304  0  2.221585  0  -1.170647  0  -0.287394  -0.498885  0  2.23202  0
