# generated using pymatgen
data_ZnH16C20(NO3)2
_symmetry_space_group_name_H-M   'P 1'
_cell_length_a   8.30899722
_cell_length_b   10.27766714
_cell_length_c   11.96912070
_cell_angle_alpha   106.66740430
_cell_angle_beta   103.58058626
_cell_angle_gamma   103.28320555
_symmetry_Int_Tables_number   1
_chemical_formula_structural   ZnH16C20(NO3)2
_chemical_formula_sum   'Zn2 H32 C40 N4 O12'
_cell_volume   902.05919655
_cell_formula_units_Z   2
loop_
 _symmetry_equiv_pos_site_id
 _symmetry_equiv_pos_as_xyz
  1  'x, y, z'
loop_
 _atom_site_type_symbol
 _atom_site_label
 _atom_site_symmetry_multiplicity
 _atom_site_fract_x
 _atom_site_fract_y
 _atom_site_fract_z
 _atom_site_occupancy
 _atom_site_hle17_bader_spin_density
 _atom_site_hle17_ddec_charge
 _atom_site_hle17_ddec_spin_density
 _atom_site_hle17_ddec_sum_bond_order
 _atom_site_hle17_magmom
 _atom_site_hse06_10hf_bader_spin_density
 _atom_site_hse06_10hf_ddec_charge
 _atom_site_hse06_10hf_ddec_spin_density
 _atom_site_hse06_10hf_ddec_sum_bond_order
 _atom_site_hse06_10hf_magmom
 _atom_site_hse06_bader_spin_density
 _atom_site_hse06_ddec_charge
 _atom_site_hse06_ddec_spin_density
 _atom_site_hse06_ddec_sum_bond_order
 _atom_site_hse06_magmom
 _atom_site_pbe_bader_spin_density
 _atom_site_pbe_cm5_charge
 _atom_site_pbe_ddec_charge
 _atom_site_pbe_ddec_spin_density
 _atom_site_pbe_ddec_sum_bond_order
 _atom_site_pbe_magmom
Zn  Zn0  1  0.20192005  0.55623955  0.67639863  1  0  0.992172  0  1.829033  0  0  0.797323  0  2.29651  0  0  0.845289  0  2.243111  0  0  0.693918  0.760582  0  2.336234  0
Zn  Zn1  1  0.79807909  0.44376053  0.32360042  1  0  0.99218  0  1.829036  0  0  0.797321  0  2.296503  0  0  0.845292  0  2.243108  0  0  0.693923  0.76058  0  2.336226  0
H  H2  1  0.86351597  0.60610967  0.62199493  1  0  0.104194  0  0.963847  0  0  0.109032  0  1.03063  0  0  0.112478  0  1.026965  0  0  0.120017  0.106292  0  1.033687  0
H  H3  1  0.13648483  0.39389148  0.37800549  1  0  0.104218  0  0.963896  0  0  0.109037  0  1.030693  0  0  0.112482  0  1.027028  0  0  0.119995  0.106297  0  1.03375  0
H  H4  1  0.58378696  0.53741363  0.66789584  1  0  0.11002  0  0.947121  0  0  0.120415  0  1.003278  0  0  0.123141  0  1.002984  0  0  0.110947  0.118443  0  1.003734  0
H  H5  1  0.41621260  0.46258753  0.33210438  1  0  0.110046  0  0.947172  0  0  0.120442  0  1.003322  0  0  0.123167  0  1.003029  0  0  0.110947  0.118469  0  1.003778  0
H  H6  1  0.56122250  0.39879808  0.80778548  1  0  0.124941  0  0.960281  0  0  0.134831  0  1.020403  0  0  0.137771  0  1.018748  0  0  0.1137  0.132748  0  1.021407  0
H  H7  1  0.43877788  0.60120200  0.19221462  1  0  0.124886  0  0.960279  0  0  0.134779  0  1.020405  0  0  0.137719  0  1.018749  0  0  0.11368  0.132695  0  1.02141  0
H  H8  1  0.09183070  0.40250726  0.83613811  1  0  0.105364  0  0.994109  0  0  0.111067  0  1.063285  0  0  0.114496  0  1.060137  0  0  0.11793  0.108497  0  1.065763  0
H  H9  1  0.90816720  0.59749283  0.16386241  1  0  0.105373  0  0.994051  0  0  0.1111  0  1.063209  0  0  0.114532  0  1.060056  0  0  0.117925  0.10853  0  1.065687  0
H  H10  1  0.06181606  0.33671931  0.01314678  1  0  0.055676  0  0.956395  0  0  0.068135  0  1.024442  0  0  0.066333  0  1.027846  0  0  0.100666  0.06926  0  1.022244  0
H  H11  1  0.93818515  0.66327969  0.98685236  1  0  0.055633  0  0.956438  0  0  0.068115  0  1.024497  0  0  0.066309  0  1.0279  0  0  0.100666  0.069239  0  1.0223  0
H  H12  1  0.97730651  0.20122094  0.86214473  1  0  0.074234  0  0.917658  0  0  0.088903  0  0.980177  0  0  0.088633  0  0.980274  0  0  0.11243  0.088884  0  0.980285  0
H  H13  1  0.02269304  0.79877700  0.13785471  1  0  0.074219  0  0.917639  0  0  0.088913  0  0.980161  0  0  0.088641  0  0.980256  0  0  0.112439  0.088893  0  0.98027  0
H  H14  1  0.98025550  0.10914632  0.03913573  1  0  0.065998  0  0.924361  0  0  0.080475  0  0.986326  0  0  0.079948  0  0.986845  0  0  0.107814  0.080743  0  0.986102  0
H  H15  1  0.01974612  0.89085376  0.96086373  1  0  0.065986  0  0.924392  0  0  0.080441  0  0.986376  0  0  0.079912  0  0.986897  0  0  0.107811  0.080709  0  0.986152  0
H  H16  1  0.81727881  0.18766663  0.06736227  1  0  0.08655  0  0.925836  0  0  0.09646  0  0.991955  0  0  0.096624  0  0.992247  0  0  0.110593  0.096233  0  0.991834  0
H  H17  1  0.18272115  0.81233239  0.93263833  1  0  0.086545  0  0.925839  0  0  0.096455  0  0.991952  0  0  0.096619  0  0.992243  0  0  0.11059  0.096227  0  0.991831  0
H  H18  1  0.78494165  0.97891727  0.11463963  1  0  0.133369  0  0.976383  0  0  0.141004  0  1.040737  0  0  0.145614  0  1.036461  0  0  0.11165  0.137509  0  1.043954  0
H  H19  1  0.21505749  0.02108281  0.88535942  1  0  0.133384  0  0.97641  0  0  0.141016  0  1.040764  0  0  0.145636  0  1.036476  0  0  0.111659  0.137521  0  1.043983  0
H  H20  1  0.61721840  0.74902261  0.12297436  1  0  0.115842  0  0.983782  0  0  0.122698  0  1.046148  0  0  0.126654  0  1.043534  0  0  0.106151  0.119697  0  1.048337  0
H  H21  1  0.38278158  0.25097961  0.87702534  1  0  0.115865  0  0.983774  0  0  0.122742  0  1.046126  0  0  0.126699  0  1.043509  0  0  0.106151  0.119739  0  1.048315  0
H  H22  1  0.38180274  0.56611888  0.93209337  1  0  0.08428  0  0.94925  0  0  0.092444  0  1.016016  0  0  0.095281  0  1.013353  0  0  0.114664  0.090354  0  1.017897  0
H  H23  1  0.61819682  0.43388228  0.06790769  1  0  0.084271  0  0.949258  0  0  0.092433  0  1.016026  0  0  0.09527  0  1.013363  0  0  0.114658  0.090343  0  1.017907  0
H  H24  1  0.48998911  0.81790562  0.72586239  1  0  0.103142  0  0.940678  0  0  0.112014  0  1.002216  0  0  0.114808  0  1.000202  0  0  0.124855  0.109901  0  1.003733  0
H  H25  1  0.51000962  0.18209339  0.27413717  1  0  0.103167  0  0.940686  0  0  0.112023  0  1.002234  0  0  0.114815  0  1.000219  0  0  0.124862  0.109908  0  1.00375  0
H  H26  1  0.17119947  0.07150860  0.70411044  1  0  0.098171  0  0.963665  0  0  0.107285  0  1.029836  0  0  0.110988  0  1.026584  0  0  0.103178  0.104627  0  1.032361  0
H  H27  1  0.82880091  0.92849148  0.29588881  1  0  0.098159  0  0.963704  0  0  0.107288  0  1.029857  0  0  0.110997  0  1.026592  0  0  0.103177  0.10463  0  1.032382  0
H  H28  1  0.30054317  0.19086149  0.41234949  1  0  0.094047  0  0.940324  0  0  0.105338  0  1.000217  0  0  0.108869  0  0.99735  0  0  0.10275  0.102872  0  1.002105  0
H  H29  1  0.69946134  0.80913644  0.58764910  1  0  0.094021  0  0.940364  0  0  0.105323  0  1.000242  0  0  0.108851  0  0.997379  0  0  0.102756  0.102859  0  1.002128  0
H  H30  1  0.31700155  0.94644579  0.31602105  1  0  0.094129  0  0.965346  0  0  0.099707  0  1.031608  0  0  0.104034  0  1.029205  0  0  0.097092  0.096728  0  1.033286  0
H  H31  1  0.68299345  0.05355004  0.68398131  1  0  0.094112  0  0.965325  0  0  0.099686  0  1.031597  0  0  0.104013  0  1.029191  0  0  0.097075  0.096704  0  1.033287  0
H  H32  1  0.26095804  0.76578277  0.41705040  1  0  0.088343  0  0.985804  0  0  0.096188  0  1.053368  0  0  0.098194  0  1.05374  0  0  0.096532  0.094718  0  1.05312  0
H  H33  1  0.73904233  0.23421413  0.58295227  1  0  0.088364  0  0.985783  0  0  0.096196  0  1.053365  0  0  0.0982  0  1.05374  0  0  0.096544  0.094733  0  1.053104  0
C  C34  1  0.84972245  0.54703286  0.68333294  1  0  0.121128  0  3.670397  0  0  0.085014  0  3.921198  0  0  0.093192  0  3.935815  0  0  0.044152  0.079494  0  3.911599  0
C  C35  1  0.15027711  0.45296830  0.31666811  1  0  0.121142  0  3.670443  0  0  0.085055  0  3.921229  0  0  0.093233  0  3.935843  0  0  0.044226  0.079534  0  3.911629  0
C  C36  1  0.69508006  0.50914107  0.71024447  1  0  -0.091708  0  3.734403  0  0  -0.101741  0  3.984844  0  0  -0.107474  0  4.005651  0  0  -0.080483  -0.098249  0  3.971069  0
C  C37  1  0.30491991  0.49086116  0.28975607  1  0  -0.091867  0  3.734517  0  0  -0.101902  0  3.984959  0  0  -0.107635  0  4.005764  0  0  -0.080535  -0.098407  0  3.971183  0
C  C38  1  0.68218545  0.43195870  0.78778315  1  0  -0.119619  0  3.683878  0  0  -0.147532  0  3.934594  0  0  -0.146538  0  3.950935  0  0  -0.077823  -0.147652  0  3.923341  0
C  C39  1  0.31781535  0.56804246  0.21221727  1  0  -0.119458  0  3.683799  0  0  -0.147365  0  3.93451  0  0  -0.14637  0  3.950848  0  0  -0.077784  -0.147485  0  3.923256  0
C  C40  1  0.82626481  0.39252694  0.83618483  1  0  0.21736  0  3.82919  0  0  0.213612  0  4.088891  0  0  0.220493  0  4.104881  0  0  0.085882  0.208377  0  4.07855  0
C  C41  1  0.17373433  0.60747314  0.16381422  1  0  0.217332  0  3.829216  0  0  0.213585  0  4.088919  0  0  0.220467  0  4.104909  0  0  0.085878  0.208348  0  4.07858  0
C  C42  1  0.97769544  0.43377707  0.80590030  1  0  -0.017584  0  3.698259  0  0  -0.062692  0  3.959393  0  0  -0.058388  0  3.975041  0  0  0.023562  -0.065764  0  3.94918  0
C  C43  1  0.02230454  0.56622515  0.19409941  1  0  -0.017671  0  3.698236  0  0  -0.062803  0  3.959385  0  0  -0.058497  0  3.975024  0  0  0.023515  -0.065874  0  3.949171  0
C  C44  1  0.94372034  0.25301053  0.94372876  1  0  0.057547  0  3.629064  0  0  -0.01004  0  3.906999  0  0  -0.002121  0  3.91268  0  0  -0.067413  -0.015208  0  3.902838  0
C  C45  1  0.05627715  0.74698848  0.05626976  1  0  0.057659  0  3.628933  0  0  -0.010024  0  3.906978  0  0  -0.002094  0  3.912645  0  0  -0.06743  -0.015195  0  3.902822  0
C  C46  1  0.87349356  0.14389338  0.99621259  1  0  0.064941  0  3.600834  0  0  0.003547  0  3.873203  0  0  0.011429  0  3.87755  0  0  -0.062947  -0.001764  0  3.870054  0
C  C47  1  0.12650682  0.85610670  0.00378667  1  0  0.0649  0  3.600823  0  0  0.003555  0  3.873192  0  0  0.011434  0  3.877537  0  0  -0.062952  -0.001757  0  3.870041  0
C  C48  1  0.65538922  0.91199905  0.91680455  1  0  0.225898  0  3.830064  0  0  0.221623  0  4.088072  0  0  0.228767  0  4.106053  0  0  0.089723  0.216264  0  4.076336  0
C  C49  1  0.34461116  0.08800103  0.08319554  1  0  0.225866  0  3.830003  0  0  0.221585  0  4.088013  0  0  0.22873  0  4.105994  0  0  0.089707  0.21622  0  4.076278  0
C  C50  1  0.68903948  0.89490562  0.03104750  1  0  -0.150417  0  3.691083  0  0  -0.176352  0  3.938994  0  0  -0.177232  0  3.956368  0  0  -0.085926  -0.175535  0  3.927726  0
C  C51  1  0.31095925  0.10509339  0.96895206  1  0  -0.150406  0  3.691041  0  0  -0.176337  0  3.938964  0  0  -0.177221  0  3.956331  0  0  -0.08592  -0.175522  0  3.927697  0
C  C52  1  0.59082771  0.76829397  0.03649035  1  0  -0.08319  0  3.728254  0  0  -0.094453  0  3.981315  0  0  -0.09849  0  4.000386  0  0  -0.084007  -0.09205  0  3.968899  0
C  C53  1  0.40917102  0.23170503  0.96350838  1  0  -0.083205  0  3.728222  0  0  -0.094499  0  3.981285  0  0  -0.098539  0  4.000359  0  0  -0.084002  -0.092095  0  3.968867  0
C  C54  1  0.46110356  0.66602350  0.93155848  1  0  0.094929  0  3.713435  0  0  0.054214  0  3.978922  0  0  0.060723  0  3.995294  0  0  0.028908  0.049901  0  3.96758  0
C  C55  1  0.53889682  0.33397658  0.06844078  1  0  0.094964  0  3.713358  0  0  0.054253  0  3.978847  0  0  0.060766  0  3.995214  0  0  0.028906  0.04994  0  3.967504  0
C  C56  1  0.52127053  0.80523487  0.81498967  1  0  0.019476  0  3.67166  0  0  -0.021512  0  3.925244  0  0  -0.01753  0  3.941533  0  0  0.038395  -0.024162  0  3.91443  0
C  C57  1  0.47872819  0.19476415  0.18501073  1  0  0.019446  0  3.671687  0  0  -0.021502  0  3.925234  0  0  -0.01752  0  3.941524  0  0  0.038389  -0.024153  0  3.91442  0
C  C58  1  0.17262139  0.79905922  0.62610699  1  0  0.634364  0  3.928107  0  0  0.583874  0  4.224064  0  0  0.617784  0  4.217294  0  0  0.198515  0.560463  0  4.22818  0
C  C59  1  0.82737817  0.20094195  0.37389407  1  0  0.634378  0  3.928104  0  0  0.583846  0  4.224107  0  0  0.617756  0  4.217339  0  0  0.198489  0.560434  0  4.228221  0
C  C60  1  0.20860659  0.90638351  0.56501018  1  0  -0.074678  0  3.763528  0  0  -0.046908  0  3.993533  0  0  -0.057202  0  4.017949  0  0  -0.022081  -0.040364  0  3.977782  0
C  C61  1  0.79139544  0.09361766  0.43499211  1  0  -0.074683  0  3.763525  0  0  -0.046918  0  3.993551  0  0  -0.057213  0  4.017967  0  0  -0.022105  -0.040374  0  3.9778  0
C  C62  1  0.20509775  0.04483990  0.61981333  1  0  -0.062949  0  3.704871  0  0  -0.098086  0  3.945157  0  0  -0.095386  0  3.965556  0  0  -0.075902  -0.100213  0  3.932596  0
C  C63  1  0.79490429  0.95516125  0.38018645  1  0  -0.062953  0  3.70499  0  0  -0.098105  0  3.945265  0  0  -0.095403  0  3.965664  0  0  -0.075906  -0.100233  0  3.932706  0
C  C64  1  0.24099016  0.14807595  0.56647087  1  0  -0.078634  0  3.777351  0  0  -0.050856  0  4.00856  0  0  -0.061642  0  4.034124  0  0  -0.021515  -0.043945  0  3.992029  0
C  C65  1  0.75901395  0.85192735  0.43352977  1  0  -0.078657  0  3.777436  0  0  -0.050867  0  4.008629  0  0  -0.061653  0  4.034192  0  0  -0.021507  -0.043957  0  3.992103  0
C  C66  1  0.27652170  0.11073464  0.45472786  1  0  -0.041099  0  3.705047  0  0  -0.06902  0  3.953372  0  0  -0.065967  0  3.971444  0  0  -0.076325  -0.06994  0  3.940233  0
C  C67  1  0.72348199  0.88926438  0.54527253  1  0  -0.041067  0  3.705001  0  0  -0.068999  0  3.953332  0  0  -0.065944  0  3.971403  0  0  -0.076339  -0.06992  0  3.940196  0
C  C68  1  0.28374468  0.97346842  0.40073375  1  0  -0.08806  0  3.76978  0  0  -0.098335  0  4.027523  0  0  -0.103565  0  4.048228  0  0  -0.09677  -0.095005  0  4.012825  0
C  C69  1  0.71626024  0.02653062  0.59926934  1  0  -0.088024  0  3.769636  0  0  -0.098303  0  4.027382  0  0  -0.10353  0  4.048082  0  0  -0.096742  -0.094977  0  4.012685  0
C  C70  1  0.25173029  0.87215382  0.45617261  1  0  -0.049724  0  3.716077  0  0  -0.077303  0  3.963236  0  0  -0.074791  0  3.983903  0  0  -0.082646  -0.077876  0  3.948537  0
C  C71  1  0.74827298  0.12784414  0.54382912  1  0  -0.049739  0  3.715989  0  0  -0.077301  0  3.963147  0  0  -0.074789  0  3.98381  0  0  -0.082641  -0.077878  0  3.948442  0
C  C72  1  0.24345526  0.29641506  0.63165331  1  0  0.638132  0  3.909731  0  0  0.587552  0  4.201194  0  0  0.621574  0  4.195245  0  0  0.203532  0.563967  0  4.204992  0
C  C73  1  0.75654429  0.70358608  0.36834607  1  0  0.638147  0  3.9096  0  0  0.587578  0  4.201057  0  0  0.621595  0  4.195107  0  0  0.203558  0.563992  0  4.204861  0
N  N74  1  0.98768092  0.50962978  0.73109568  1  0  -0.303047  0  3.342583  0  0  -0.212931  0  3.621743  0  0  -0.231115  0  3.635734  0  0  -0.329393  -0.200294  0  3.611895  0
N  N75  1  0.01231988  0.49037138  0.26890558  1  0  -0.302941  0  3.342506  0  0  -0.212841  0  3.621677  0  0  -0.231025  0  3.635674  0  0  -0.329353  -0.200202  0  3.611828  0
N  N76  1  0.42530335  0.68619236  0.82298195  1  0  -0.320912  0  3.374639  0  0  -0.234129  0  3.654016  0  0  -0.251834  0  3.669947  0  0  -0.330536  -0.221902  0  3.642796  0
N  N77  1  0.57469580  0.31380772  0.17701794  1  0  -0.320949  0  3.374624  0  0  -0.234172  0  3.65399  0  0  -0.251879  0  3.669921  0  0  -0.330533  -0.221945  0  3.642769  0
O  O78  1  0.80871295  0.31408305  0.90946833  1  0  -0.280222  0  2.3322  0  0  -0.208527  0  2.569857  0  0  -0.228024  0  2.575488  0  0  -0.176107  -0.194886  0  2.565591  0
O  O79  1  0.19128619  0.68591703  0.09053072  1  0  -0.28025  0  2.332156  0  0  -0.208525  0  2.569831  0  0  -0.228026  0  2.575458  0  0  -0.17611  -0.194882  0  2.565567  0
O  O80  1  0.74234741  0.02540531  0.89414468  1  0  -0.277493  0  2.335673  0  0  -0.206663  0  2.569735  0  0  -0.225413  0  2.573198  0  0  -0.175452  -0.193497  0  2.566914  0
O  O81  1  0.25765173  0.97459477  0.10585521  1  0  -0.277462  0  2.335677  0  0  -0.206653  0  2.569738  0  0  -0.225405  0  2.573204  0  0  -0.175451  -0.193478  0  2.56691  0
O  O82  1  0.13296775  0.83150955  0.72287947  1  0  -0.630654  0  1.944114  0  0  -0.588196  0  2.179393  0  0  -0.611013  0  2.171349  0  0  -0.326587  -0.571344  0  2.183677  0
O  O83  1  0.86703758  0.16849055  0.27712312  1  0  -0.63064  0  1.943983  0  0  -0.588193  0  2.179298  0  0  -0.611008  0  2.171256  0  0  -0.326585  -0.57134  0  2.183582  0
O  O84  1  0.19182688  0.67605843  0.57394779  1  0  -0.656419  0  2.034449  0  0  -0.580087  0  2.308686  0  0  -0.609037  0  2.294463  0  0  -0.339704  -0.558522  0  2.319363  0
O  O85  1  0.80817392  0.32394274  0.42605431  1  0  -0.656472  0  2.034568  0  0  -0.58006  0  2.308739  0  0  -0.609012  0  2.294521  0  0  -0.339674  -0.558498  0  2.319417  0
O  O86  1  0.26187636  0.33710994  0.74528440  1  0  -0.64539  0  1.982582  0  0  -0.591018  0  2.216237  0  0  -0.615249  0  2.206852  0  0  -0.321454  -0.573275  0  2.221574  0
O  O87  1  0.73811412  0.66289012  0.25471238  1  0  -0.645383  0  1.98248  0  0  -0.591024  0  2.216136  0  0  -0.615266  0  2.206783  0  0  -0.321449  -0.57328  0  2.221476  0
O  O88  1  0.22850850  0.37892607  0.56853016  1  0  -0.632452  0  2.015909  0  0  -0.556373  0  2.278048  0  0  -0.585104  0  2.263976  0  0  -0.324476  -0.535095  0  2.288476  0
O  O89  1  0.77149229  0.62107506  0.43146775  1  0  -0.632429  0  2.015836  0  0  -0.556378  0  2.278007  0  0  -0.585107  0  2.263935  0  0  -0.324516  -0.535101  0  2.288444  0
