# generated using pymatgen
data_CoH24C36(NO2)2
_symmetry_space_group_name_H-M   'P 1'
_cell_length_a   16.29409209
_cell_length_b   19.20616734
_cell_length_c   19.20611259
_cell_angle_alpha   79.63961039
_cell_angle_beta   64.91256923
_cell_angle_gamma   64.91248878
_symmetry_Int_Tables_number   1
_chemical_formula_structural   CoH24C36(NO2)2
_chemical_formula_sum   'Co4 H96 C144 N8 O16'
_cell_volume   4929.94634711
_cell_formula_units_Z   4
loop_
 _symmetry_equiv_pos_site_id
 _symmetry_equiv_pos_as_xyz
  1  'x, y, z'
loop_
 _atom_site_type_symbol
 _atom_site_label
 _atom_site_symmetry_multiplicity
 _atom_site_fract_x
 _atom_site_fract_y
 _atom_site_fract_z
 _atom_site_occupancy
 _atom_site_pbe_bader_charge
 _atom_site_pbe_bader_spin_density
 _atom_site_pbe_cm5_charge
 _atom_site_pbe_ddec_charge
 _atom_site_pbe_ddec_spin_density
 _atom_site_pbe_ddec_sum_bond_order
 _atom_site_pbe_magmom
Co  Co0  1  0.37066816  0.50001957  0.49982036  1  1.227474  2.565169  0.669116  0.786325  2.802936  2.544601  2.53
Co  Co1  1  0.62063465  0.00021315  0.00001633  1  1.225115  2.565049  0.669349  0.785284  2.802734  2.55151  2.53
Co  Co2  1  0.87066711  0.49982511  0.50001793  1  1.227421  2.565155  0.669163  0.786407  2.802925  2.544668  2.53
Co  Co3  1  0.12063221  0.00002183  0.00021035  1  1.225153  2.565036  0.669274  0.785103  2.80273  2.551672  2.53
H  H4  1  0.29612264  0.29451547  0.60239696  1  0.084026  0.000614  0.105944  0.110691  0.000313  0.998914  0.0
H  H5  1  0.19282335  0.70584059  0.39748830  1  0.085411  0.000615  0.106532  0.111746  0.000311  0.998963  0.0
H  H6  1  0.64893745  0.89760421  0.79434422  1  0.102764  0.000602  0.10596  0.110303  0.000313  1.000545  0.0
H  H7  1  0.34077458  0.10236142  0.20565814  1  0.075924  0.000626  0.105739  0.10986  0.000314  1.000416  0.0
H  H8  1  0.69282075  0.39749410  0.70583639  1  0.085213  0.000615  0.106532  0.111751  0.000311  0.998968  0.0
H  H9  1  0.79612146  0.60239888  0.29452019  1  0.083717  0.000614  0.105916  0.110634  0.000314  0.998947  0.0
H  H10  1  0.84076141  0.20566237  0.10236179  1  0.076349  0.000626  0.105655  0.109746  0.000314  1.00033  0.0
H  H11  1  0.14894547  0.79434408  0.89759983  1  0.102716  0.000602  0.10594  0.110291  0.000313  1.000561  0.0
H  H12  1  0.18499046  0.22385883  0.66768824  1  0.073192  4.1e-05  0.102172  0.104094  2e-05  1.000576  0.0
H  H13  1  0.07638490  0.77634104  0.33214239  1  0.068653  4.1e-05  0.102306  0.103902  2e-05  1.000414  0.0
H  H14  1  0.60304409  0.83247696  0.72359952  1  0.053532  4.1e-05  0.102426  0.103512  2e-05  1.001251  0.0
H  H15  1  0.15906214  0.16754232  0.27631380  1  0.035404  4.2e-05  0.102403  0.104053  2e-05  1.000439  0.0
H  H16  1  0.57638090  0.33215279  0.77633886  1  0.068644  4.1e-05  0.102294  0.10387  2e-05  1.00044  0.0
H  H17  1  0.68499346  0.66769150  0.22385799  1  0.073229  4.1e-05  0.102122  0.104033  2e-05  1.000439  0.0
H  H18  1  0.65905079  0.27630964  0.16754828  1  0.035702  4.2e-05  0.102449  0.104153  2e-05  1.000411  0.0
H  H19  1  0.10305052  0.72359753  0.83247737  1  0.05343  4.1e-05  0.102429  0.103475  2e-05  1.001291  0.0
H  H20  1  0.93483931  0.43992411  0.72854987  1  0.074683  2.7e-05  0.102234  0.103994  -1.4e-05  1.002295  0.0
H  H21  1  0.10329787  0.56018583  0.27132205  1  0.058119  2.7e-05  0.102161  0.10436  -1.4e-05  1.003607  0.0
H  H22  1  0.41381379  0.77136678  0.93958707  1  0.079963  2.7e-05  0.101554  0.103408  -1.4e-05  1.00108  0.0
H  H23  1  0.12490529  0.22845646  0.06018404  1  0.058522  2.7e-05  0.101865  0.103809  -1.5e-05  1.003756  0.0
H  H24  1  0.60329835  0.27132579  0.56018528  1  0.058146  2.7e-05  0.10217  0.104357  -1.4e-05  1.003619  0.0
H  H25  1  0.43483792  0.72855476  0.43991717  1  0.074992  2.7e-05  0.102218  0.103959  -1.4e-05  1.002326  0.0
H  H26  1  0.62490344  0.06018027  0.22846027  1  0.058298  2.7e-05  0.101945  0.103933  -1.5e-05  1.003795  0.0
H  H27  1  0.91380915  0.93958233  0.77137405  1  0.080156  2.7e-05  0.101544  0.103395  -1.4e-05  1.001169  0.0
H  H28  1  0.04715322  0.50954914  0.66429182  1  0.081193  0.000361  0.101103  0.102543  0.000189  1.031592  0.0
H  H29  1  0.22096344  0.49068817  0.33557533  1  0.085031  0.000364  0.10065  0.101992  0.000192  1.031433  0.0
H  H30  1  0.46170956  0.83563770  0.00928856  1  0.083822  0.000364  0.100835  0.102863  0.00019  1.030887  0.0
H  H31  1  0.30679567  0.16449430  0.99061930  1  0.084806  0.000363  0.10107  0.102753  0.000192  1.030571  0.0
H  H32  1  0.72096395  0.33557543  0.49068471  1  0.084947  0.000364  0.100608  0.101975  0.000192  1.031378  0.0
H  H33  1  0.54714425  0.66429653  0.50955159  1  0.081289  0.000361  0.101125  0.102523  0.000189  1.031536  0.0
H  H34  1  0.80678872  0.99061826  0.16449588  1  0.084773  0.000363  0.101087  0.102794  0.000192  1.030557  0.0
H  H35  1  0.96171445  0.00928580  0.83563467  1  0.083864  0.000364  0.100891  0.102951  0.00019  1.030859  0.0
H  H36  1  0.08781795  0.20370529  0.79423220  1  0.038985  -3.5e-05  0.09505  0.087837  -4.9e-05  1.048032  0.0
H  H37  1  0.08554181  0.79636489  0.20551801  1  0.052577  -3.4e-05  0.094951  0.087185  -4.9e-05  1.048818  0.0
H  H38  1  0.63206180  0.70592847  0.70343060  1  0.046662  -3.4e-05  0.09592  0.088861  -4.9e-05  1.046645  0.0
H  H39  1  0.04125398  0.29396278  0.29652618  1  0.049457  -3.5e-05  0.094493  0.086578  -4.9e-05  1.050077  0.0
H  H40  1  0.58553735  0.20551886  0.79636982  1  0.052519  -3.4e-05  0.09498  0.087195  -4.9e-05  1.048799  0.0
H  H41  1  0.58781728  0.79423312  0.20369907  1  0.038992  -3.5e-05  0.095059  0.087879  -4.9e-05  1.047971  0.0
H  H42  1  0.54124729  0.29651703  0.29398179  1  0.049487  -3.5e-05  0.094447  0.08649  -4.9e-05  1.05016  0.0
H  H43  1  0.13205611  0.70343631  0.70592807  1  0.046725  -3.4e-05  0.095919  0.088847  -4.9e-05  1.046768  0.0
H  H44  1  0.98207425  0.13150527  0.86570323  1  0.146358  0.00022  0.103351  0.121596  0.000115  1.052508  0.0
H  H45  1  0.97913539  0.86844932  0.13399152  1  0.151229  0.000218  0.103221  0.12189  0.000116  1.051447  0.0
H  H46  1  0.59788417  0.63433207  0.63130987  1  0.14234  0.000221  0.102921  0.120848  0.000116  1.053277  0.0
H  H47  1  0.86340835  0.36550883  0.36856525  1  0.150398  0.000217  0.102985  0.12163  0.000115  1.051673  0.0
H  H48  1  0.47913188  0.13399057  0.86844921  1  0.151253  0.000218  0.10323  0.121862  0.000116  1.051459  0.0
H  H49  1  0.48206588  0.86570960  0.13150468  1  0.146376  0.00022  0.103335  0.121556  0.000115  1.052463  0.0
H  H50  1  0.36340270  0.36855376  0.36552741  1  0.150611  0.000217  0.103053  0.121743  0.000115  1.051561  0.0
H  H51  1  0.09788137  0.63131213  0.63433340  1  0.142388  0.000221  0.102911  0.120813  0.000116  1.053264  0.0
H  H52  1  0.76740990  0.28222801  0.77281528  1  0.068105  2.3e-05  0.095939  0.092342  -1e-05  1.042789  0.0
H  H53  1  0.82189669  0.71804707  0.22737694  1  0.065414  2.4e-05  0.095045  0.090476  -1e-05  1.04299  0.0
H  H54  1  0.29036924  0.72725071  0.78185639  1  0.066984  2.4e-05  0.096144  0.092819  -9e-06  1.041761  0.0
H  H55  1  0.79957509  0.27263993  0.21772838  1  0.057801  2.3e-05  0.095993  0.091973  -1e-05  1.040792  0.0
H  H56  1  0.32190260  0.22737539  0.71803728  1  0.065646  2.4e-05  0.095006  0.090423  -1e-05  1.043016  0.0
H  H57  1  0.26741129  0.77281258  0.28222724  1  0.068332  2.3e-05  0.095917  0.092368  -1e-05  1.04272  0.0
H  H58  1  0.29956852  0.21773546  0.27264201  1  0.058047  2.3e-05  0.095985  0.091982  -1e-05  1.040893  0.0
H  H59  1  0.79036522  0.78185565  0.72725345  1  0.066909  2.4e-05  0.096128  0.09281  -9e-06  1.041726  0.0
H  H60  1  0.87276719  0.35507741  0.70231023  1  0.123717  0.000217  0.100707  0.108096  8.9e-05  1.019791  0.0
H  H61  1  0.92960957  0.64517541  0.29786523  1  0.101007  0.000216  0.101146  0.108784  8.7e-05  1.019481  0.0
H  H62  1  0.32502681  0.79798937  0.85460869  1  0.124194  0.000216  0.100803  0.107298  8.9e-05  1.01973  0.0
H  H63  1  0.97770673  0.20216242  0.14491727  1  0.094664  0.000222  0.100961  0.108666  9e-05  1.02106  0.0
H  H64  1  0.42961511  0.29786260  0.64517209  1  0.100978  0.000216  0.101149  0.108819  8.7e-05  1.019509  0.0
H  H65  1  0.37277526  0.70230770  0.35507312  1  0.123835  0.000217  0.100704  0.108116  8.9e-05  1.019809  0.0
H  H66  1  0.47769988  0.14491916  0.20216423  1  0.094659  0.000222  0.101002  0.108749  9e-05  1.020925  0.0
H  H67  1  0.82502400  0.85460942  0.79798846  1  0.124109  0.000216  0.100889  0.107461  8.9e-05  1.019824  0.0
H  H68  1  0.82867076  0.14919836  0.97266882  1  0.100476  0.000857  0.112045  0.123877  0.000338  1.004784  0.0
H  H69  1  0.94989760  0.85080439  0.02727272  1  0.101864  0.000843  0.11208  0.124803  0.000334  1.004108  0.0
H  H70  1  0.55130142  0.52747036  0.64874698  1  0.118422  0.000829  0.111957  0.124384  0.000333  1.00471  0.0
H  H71  1  0.72755055  0.47247448  0.35077503  1  0.111877  0.000841  0.111616  0.123365  0.000335  1.003963  0.0
H  H72  1  0.44990071  0.02727046  0.85080171  1  0.101911  0.000843  0.112132  0.124925  0.000334  1.004067  0.0
H  H73  1  0.32866809  0.97266932  0.14919728  1  0.100535  0.000857  0.112067  0.123934  0.000338  1.004713  0.0
H  H74  1  0.22754385  0.35077426  0.47248422  1  0.111688  0.000841  0.111618  0.123351  0.000335  1.003997  0.0
H  H75  1  0.05130147  0.64874483  0.52747746  1  0.118496  0.000829  0.111966  0.124343  0.000333  1.004594  0.0
H  H76  1  0.72525151  0.07411912  0.04114255  1  0.12775  0.00209  0.114053  0.079049  0.000776  1.031213  0.001
H  H77  1  0.83967293  0.92620539  0.95906413  1  0.092168  0.002123  0.114201  0.079489  0.000793  1.030543  0.001
H  H78  1  0.51629771  0.45911760  0.57362072  1  0.092558  0.002096  0.114115  0.079186  0.000776  1.031639  0.001
H  H79  1  0.54914390  0.54085235  0.42593791  1  0.089239  0.002109  0.113956  0.079125  0.00078  1.032402  0.001
H  H80  1  0.33967426  0.95906355  0.92620696  1  0.092157  0.002124  0.114185  0.079496  0.000793  1.030508  0.001
H  H81  1  0.22525070  0.04114337  0.07411551  1  0.127671  0.00209  0.114035  0.078997  0.000776  1.031351  0.001
H  H82  1  0.04913722  0.42594197  0.54085356  1  0.089195  0.002109  0.113926  0.079091  0.000781  1.032405  0.001
H  H83  1  0.01629625  0.57362120  0.45912095  1  0.092617  0.002097  0.114117  0.079188  0.000777  1.031638  0.001
H  H84  1  0.66533158  0.07560569  0.85138730  1  0.106318  0.001748  0.124244  0.100189  0.000386  0.985562  0.001
H  H85  1  0.59168238  0.92486946  0.14894792  1  0.108593  0.001761  0.124787  0.100653  0.000389  0.987102  0.001
H  H86  1  0.26653296  0.64876463  0.57539521  1  0.115747  0.001741  0.124524  0.099999  0.000384  0.988188  0.001
H  H87  1  0.49065489  0.35117369  0.42443264  1  0.12822  0.001733  0.124639  0.09983  0.000385  0.989167  0.001
H  H88  1  0.09168202  0.14894954  0.92487097  1  0.108632  0.001762  0.124771  0.100616  0.00039  0.987108  0.001
H  H89  1  0.16532350  0.85139136  0.07560439  1  0.106434  0.001749  0.124222  0.100098  0.000387  0.985652  0.001
H  H90  1  0.99065929  0.42443604  0.35116653  1  0.127895  0.001733  0.124634  0.099906  0.000385  0.989078  0.001
H  H91  1  0.76652653  0.57539910  0.64876683  1  0.115656  0.001741  0.124504  0.10007  0.000384  0.988283  0.001
H  H92  1  0.76340310  0.15488780  0.77529523  1  0.074639  0.000909  0.110543  0.118748  0.000401  0.995315  0.0
H  H93  1  0.69311581  0.84522919  0.22484150  1  0.102163  0.000892  0.110999  0.119021  0.000404  0.995348  0.0
H  H94  1  0.28843568  0.72472594  0.65482988  1  0.079321  0.000901  0.110824  0.119117  0.0004  0.995473  0.0
H  H95  1  0.66791702  0.27510542  0.34506459  1  0.070251  0.000911  0.111016  0.119542  0.000401  0.994469  0.0
H  H96  1  0.19311835  0.22483869  0.84522714  1  0.102333  0.000892  0.110968  0.119003  0.000404  0.995352  0.0
H  H97  1  0.26339418  0.77530214  0.15488966  1  0.074734  0.000909  0.110568  0.118763  0.000401  0.995409  0.0
H  H98  1  0.16792740  0.34506281  0.27510678  1  0.070455  0.000911  0.111  0.119567  0.000401  0.99448  0.0
H  H99  1  0.78843027  0.65482835  0.72473188  1  0.079141  0.000901  0.110812  0.119076  0.0004  0.995528  0.0
C  C100  1  0.24520589  0.44787395  0.59054739  1  1.511288  -0.002349  0.19297  0.550919  -0.003268  4.211989  -0.004
C  C101  1  0.28374528  0.55233068  0.40914393  1  1.539294  -0.002232  0.193706  0.553237  -0.003298  4.206051  -0.004
C  C102  1  0.58588979  0.90954096  0.94778592  1  1.510032  -0.002365  0.193504  0.552467  -0.00329  4.205005  -0.004
C  C103  1  0.44319417  0.09084121  0.05226972  1  1.494191  -0.002261  0.192388  0.550467  -0.003299  4.208235  -0.004
C  C104  1  0.78374494  0.40914530  0.55232657  1  1.536702  -0.002231  0.193669  0.55311  -0.0033  4.205898  -0.004
C  C105  1  0.74520465  0.59055428  0.44787489  1  1.511245  -0.002348  0.193041  0.551045  -0.003267  4.211982  -0.004
C  C106  1  0.94318546  0.05227176  0.09084395  1  1.493922  -0.00226  0.192368  0.550571  -0.0033  4.208101  -0.004
C  C107  1  0.08589568  0.94778903  0.90953514  1  1.51033  -0.002365  0.193599  0.552667  -0.003289  4.204955  -0.004
C  C108  1  0.17859693  0.40616380  0.63051054  1  0.037036  0.002315  -0.019676  -0.032663  0.001279  3.980019  0.001
C  C109  1  0.21526535  0.59409410  0.36931335  1  0.036166  0.002299  -0.018821  -0.031815  0.001276  3.97672  0.001
C  C110  1  0.55932169  0.86959197  0.90598309  1  -0.07072  0.002371  -0.019979  -0.034267  0.001277  3.978086  0.001
C  C111  1  0.33488685  0.13061351  0.09399667  1  0.041623  0.002296  -0.018912  -0.032815  0.001275  3.976142  0.001
C  C112  1  0.71527095  0.36931386  0.59408654  1  0.036104  0.002298  -0.018802  -0.031912  0.001275  3.977036  0.001
C  C113  1  0.67859218  0.63051890  0.40616766  1  0.03665  0.002315  -0.019648  -0.032611  0.001279  3.980109  0.001
C  C114  1  0.83488247  0.09399651  0.13061704  1  0.041569  0.002293  -0.018896  -0.032831  0.001274  3.976213  0.001
C  C115  1  0.05932397  0.90598360  0.86958969  1  -0.070795  0.002371  -0.02002  -0.034445  0.001277  3.978045  0.001
C  C116  1  0.21694667  0.32559520  0.63139361  1  -0.136431  0.000604  -0.085553  -0.095297  0.000196  3.998617  0.0
C  C117  1  0.17383797  0.67466414  0.36846279  1  -0.091854  0.000573  -0.085982  -0.096332  0.000184  4.002978  0.0
C  C118  1  0.59863970  0.86869229  0.82541779  1  -0.025713  0.000566  -0.08563  -0.09412  0.000189  4.00034  0.0
C  C119  1  0.29266599  0.13136860  0.17455902  1  -0.0316  0.000582  -0.086024  -0.094142  0.00019  3.998899  0.0
C  C120  1  0.67384183  0.36846498  0.67466117  1  -0.091551  0.000573  -0.086059  -0.096385  0.000184  4.002806  0.0
C  C121  1  0.71694521  0.63139681  0.32559770  1  -0.136098  0.000604  -0.08551  -0.095164  0.000196  3.998598  0.0
C  C122  1  0.79266007  0.17455499  0.13137580  1  -0.032127  0.000582  -0.085871  -0.093854  0.000189  3.998394  0.0
C  C123  1  0.09864244  0.82541622  0.86869065  1  -0.025659  0.000566  -0.085615  -0.094055  0.000189  4.000256  0.0
C  C124  1  0.15472982  0.28657035  0.66778771  1  -0.044578  0.000149  -0.093626  -0.145439  -2.5e-05  3.99395  0.0
C  C125  1  0.10894579  0.71363319  0.33209207  1  -0.06988  0.000151  -0.093763  -0.145445  -2.3e-05  3.999517  0.0
C  C126  1  0.57279507  0.83236200  0.78632625  1  -0.056134  0.000152  -0.093304  -0.144484  -2.3e-05  3.997056  0.0
C  C127  1  0.19142161  0.16765921  0.21357990  1  -0.076902  0.000152  -0.093684  -0.146318  -2.4e-05  3.994464  0.0
C  C128  1  0.60894687  0.33209550  0.71363297  1  -0.070058  0.000151  -0.093713  -0.145324  -2.3e-05  3.999308  0.0
C  C129  1  0.65472939  0.66779329  0.28657358  1  -0.044559  0.000149  -0.093629  -0.145473  -2.5e-05  3.994006  0.0
C  C130  1  0.69141073  0.21358108  0.16766756  1  -0.076953  0.000152  -0.09376  -0.146464  -2.4e-05  3.994208  0.0
C  C131  1  0.07279739  0.78632342  0.83236377  1  -0.055778  0.000151  -0.093315  -0.144502  -2.3e-05  3.997094  0.0
C  C132  1  0.05224976  0.32702789  0.70337387  1  0.024763  -0.001002  -0.002642  0.07829  -0.00107  4.001045  -0.001
C  C133  1  0.08246074  0.67315878  0.29655334  1  0.036228  -0.001008  -0.003638  0.077815  -0.001079  4.003256  -0.001
C  C134  1  0.50581782  0.79683173  0.82668432  1  0.014333  -0.001006  -0.003088  0.079641  -0.001077  4.003516  -0.001
C  C135  1  0.12932868  0.20315132  0.17316368  1  -0.091999  -0.001011  -0.003001  0.079102  -0.001081  3.998216  -0.001
C  C136  1  0.58246152  0.29655508  0.67315921  1  0.036572  -0.001009  -0.003635  0.077787  -0.00108  4.003304  -0.001
C  C137  1  0.55225561  0.70337548  0.32702553  1  0.024722  -0.001001  -0.002585  0.078357  -0.001069  4.001036  -0.001
C  C138  1  0.62932178  0.17316318  0.20315999  1  -0.092181  -0.001011  -0.003087  0.078832  -0.001081  3.998178  -0.001
C  C139  1  0.00581923  0.82667901  0.79683323  1  0.014136  -0.001006  -0.003084  0.079719  -0.001077  4.003458  -0.001
C  C140  1  0.01408296  0.40785694  0.70081710  1  -0.131138  0.000511  -0.091094  -0.137737  0.000168  3.979929  0.0
C  C141  1  0.12268242  0.59231900  0.29904193  1  -0.101754  0.00051  -0.091379  -0.139394  0.000168  3.983413  0.0
C  C142  1  0.46519837  0.79922035  0.90752280  1  -0.124673  0.000512  -0.089536  -0.136391  0.00017  3.975965  0.0
C  C143  1  0.17201851  0.20074680  0.09232596  1  -0.008696  0.00051  -0.090715  -0.137728  0.000169  3.979156  0.0
C  C144  1  0.62268124  0.29904527  0.59231903  1  -0.101903  0.00051  -0.091423  -0.139398  0.000169  3.98334  0.0
C  C145  1  0.51408206  0.70082109  0.40785463  1  -0.131627  0.000511  -0.091053  -0.137671  0.000168  3.979831  0.0
C  C146  1  0.67201107  0.09232071  0.20075727  1  -0.008787  0.00051  -0.090732  -0.137671  0.000169  3.978708  0.0
C  C147  1  0.96519945  0.90752026  0.79922054  1  -0.124815  0.000511  -0.089532  -0.136436  0.00017  3.975925  0.0
C  C148  1  0.07650905  0.44692838  0.66540321  1  -0.039412  0.000332  -0.084481  -0.088942  -4e-05  3.981253  0.0
C  C149  1  0.18881240  0.55330176  0.33442589  1  -0.04197  0.000323  -0.083489  -0.087223  -3.9e-05  3.982073  0.0
C  C150  1  0.49215615  0.83462281  0.94667829  1  -0.021975  0.000329  -0.084841  -0.090329  -4.4e-05  3.978326  0.0
C  C151  1  0.27352343  0.16550949  0.05324452  1  -0.035851  0.000325  -0.083993  -0.08873  -4.4e-05  3.977595  0.0
C  C152  1  0.68881505  0.33442771  0.55329949  1  -0.042033  0.000322  -0.083391  -0.087131  -4e-05  3.982062  0.0
C  C153  1  0.57650774  0.66540776  0.44692828  1  -0.038982  0.000332  -0.084527  -0.088968  -4e-05  3.9814  0.0
C  C154  1  0.77352233  0.05324349  0.16551293  1  -0.035462  0.000324  -0.083994  -0.088782  -4.5e-05  3.977389  0.0
C  C155  1  0.99216241  0.94667697  0.83461918  1  -0.02219  0.00033  -0.084941  -0.090396  -4.3e-05  3.978304  0.0
C  C156  1  0.98753446  0.28496867  0.74415628  1  -0.006524  -0.00105  -0.007913  0.068083  -0.00111  4.006243  -0.001
C  C157  1  0.01628023  0.71521619  0.25588014  1  -0.030249  -0.001063  -0.007452  0.066914  -0.001122  4.00972  -0.001
C  C158  1  0.48172089  0.75614763  0.78459444  1  -0.081534  -0.001049  -0.008276  0.06356  -0.001108  4.011499  -0.001
C  C159  1  0.02244527  0.24377523  0.21521286  1  0.0201  -0.001056  -0.007601  0.067599  -0.001115  4.00426  -0.001
C  C160  1  0.51628188  0.25588159  0.71521665  1  -0.030665  -0.001063  -0.007415  0.066941  -0.001123  4.009595  -0.001
C  C161  1  0.48753536  0.74415840  0.28496504  1  -0.006607  -0.001049  -0.007974  0.067971  -0.001109  4.006274  -0.001
C  C162  1  0.52244269  0.21520830  0.24378126  1  0.020596  -0.001057  -0.007458  0.067643  -0.001116  4.004167  -0.001
C  C163  1  0.98171770  0.78459528  0.75615168  1  -0.081073  -0.001049  -0.008257  0.063616  -0.001108  4.011293  -0.001
C  C164  1  0.01702939  0.22135976  0.79004883  1  -0.066771  0.000288  -0.094435  -0.129023  0.000102  3.994185  0.0
C  C165  1  0.02812220  0.77875860  0.20983348  1  -0.042943  0.000288  -0.092883  -0.126041  0.000104  3.992228  0.0
C  C166  1  0.55709867  0.71013228  0.72105878  1  -0.019583  0.000284  -0.094333  -0.128426  0.000102  3.990325  0.0
C  C167  1  0.98820635  0.28970971  0.27885822  1  -0.103514  0.000283  -0.092905  -0.125944  0.000102  3.994209  0.0
C  C168  1  0.52811800  0.20983439  0.77875984  1  -0.042971  0.000288  -0.092918  -0.126048  0.000103  3.99245  0.0
C  C169  1  0.51702989  0.79005085  0.22135492  1  -0.066708  0.000287  -0.094372  -0.128981  0.000102  3.994047  0.0
C  C170  1  0.48820443  0.27885242  0.28972213  1  -0.103196  0.000283  -0.092909  -0.125753  0.000102  3.993909  0.0
C  C171  1  0.05709799  0.72105884  0.71013309  1  -0.019626  0.000284  -0.094306  -0.128392  0.000102  3.990282  0.0
C  C172  1  0.95721229  0.18131326  0.83106609  1  -0.100873  -0.000878  -0.08906  -0.125226  -0.000948  3.95973  -0.001
C  C173  1  0.96931667  0.81872197  0.16877106  1  -0.081051  -0.000882  -0.091186  -0.128304  -0.000953  3.961123  -0.001
C  C174  1  0.53832796  0.66900774  0.68106617  1  -0.076962  -0.000868  -0.090118  -0.124892  -0.00094  3.955655  -0.001
C  C175  1  0.88834285  0.33080686  0.31876945  1  -0.049831  -0.000876  -0.090466  -0.127683  -0.000949  3.961756  -0.001
C  C176  1  0.46931423  0.16877293  0.81872001  1  -0.081039  -0.000882  -0.091192  -0.128227  -0.000953  3.961384  -0.001
C  C177  1  0.45720607  0.83106537  0.18131246  1  -0.101103  -0.000877  -0.089161  -0.125291  -0.000946  3.959902  -0.001
C  C178  1  0.38833677  0.31876408  0.33082079  1  -0.050557  -0.000878  -0.090533  -0.12783  -0.000951  3.961883  -0.001
C  C179  1  0.03832425  0.68106517  0.66900985  1  -0.076922  -0.000868  -0.090093  -0.124844  -0.00094  3.955725  -0.001
C  C180  1  0.86649645  0.20287878  0.82512911  1  0.035827  0.000467  -0.014332  0.051026  3.8e-05  4.013508  0.001
C  C181  1  0.89411535  0.79723438  0.17486444  1  -0.032738  0.000468  -0.013336  0.052202  3.9e-05  4.013568  0.001
C  C182  1  0.44170535  0.67493720  0.70258331  1  0.003527  0.000459  -0.012857  0.052407  3.8e-05  4.012108  0.001
C  C183  1  0.81920055  0.32489613  0.29717240  1  -0.009237  0.000461  -0.013464  0.052004  3.8e-05  4.01412  0.001
C  C184  1  0.39411665  0.17486326  0.79723012  1  -0.032166  0.000467  -0.013288  0.0522  3.9e-05  4.013645  0.001
C  C185  1  0.36649580  0.82512828  0.20287497  1  0.03576  0.000466  -0.014234  0.051114  3.8e-05  4.013628  0.001
C  C186  1  0.31919416  0.29717461  0.32490387  1  -0.009355  0.000461  -0.013387  0.051943  3.8e-05  4.01433  0.001
C  C187  1  0.94170178  0.70258053  0.67494252  1  0.003713  0.000459  -0.012815  0.052455  3.8e-05  4.01222  0.001
C  C188  1  0.83743340  0.26537149  0.77803654  1  -0.068032  -0.001063  -0.090755  -0.121309  -0.001122  3.9897  -0.001
C  C189  1  0.88037171  0.73483821  0.22211338  1  -0.038676  -0.001074  -0.091212  -0.122226  -0.00113  3.988573  -0.001
C  C190  1  0.36558923  0.72211037  0.76503612  1  -0.065624  -0.001058  -0.091664  -0.125215  -0.001115  3.991645  -0.001
C  C191  1  0.85275359  0.27778502  0.23467196  1  -0.05753  -0.001065  -0.091795  -0.12301  -0.001123  3.987986  -0.001
C  C192  1  0.38037292  0.22211304  0.73483458  1  -0.039203  -0.001074  -0.0912  -0.122155  -0.001131  3.988582  -0.001
C  C193  1  0.33743942  0.77803426  0.26536699  1  -0.068186  -0.001062  -0.090763  -0.121431  -0.00112  3.989891  -0.001
C  C194  1  0.35274884  0.23467280  0.27778674  1  -0.0576  -0.001066  -0.091864  -0.123044  -0.001124  3.988158  -0.001
C  C195  1  0.86558769  0.76503574  0.72211389  1  -0.065375  -0.001057  -0.091671  -0.125257  -0.001115  3.991959  -0.001
C  C196  1  0.89634450  0.30677907  0.73889128  1  -0.053341  0.000477  -0.090549  -0.129081  0.000207  3.96699  0.0
C  C197  1  0.94154138  0.69344320  0.26127094  1  -0.049751  0.000478  -0.089273  -0.125713  0.000207  3.967853  0.0
C  C198  1  0.38527025  0.76139466  0.80637247  1  -0.050269  0.000476  -0.089665  -0.12341  0.000206  3.967286  0.0
C  C199  1  0.95307047  0.23857252  0.19330686  1  -0.052984  0.000477  -0.089827  -0.127493  0.000208  3.969451  0.0
C  C200  1  0.44154220  0.26127227  0.69344159  1  -0.049706  0.000478  -0.089336  -0.125854  0.000207  3.96783  0.0
C  C201  1  0.39634873  0.73889048  0.30677509  1  -0.053192  0.000477  -0.090568  -0.129053  0.000207  3.967288  0.0
C  C202  1  0.45306348  0.19330663  0.23857917  1  -0.053205  0.000477  -0.08987  -0.127536  0.000208  3.969574  0.0
C  C203  1  0.88526208  0.80637366  0.76139815  1  -0.050915  0.000476  -0.089683  -0.12352  0.000206  3.967466  0.0
C  C204  1  0.80437268  0.15934886  0.86777969  1  -0.06472  -0.006647  0.014765  0.113919  -0.007059  3.989718  -0.004
C  C205  1  0.83096307  0.84080987  0.13231997  1  -0.052858  -0.006686  0.015143  0.114965  -0.007097  3.990951  -0.004
C  C206  1  0.42211019  0.63235797  0.65905200  1  -0.083177  -0.006593  0.014649  0.114774  -0.007006  3.989128  -0.004
C  C207  1  0.71352114  0.36750368  0.34068858  1  -2e-05  -0.006666  0.014717  0.114516  -0.007079  3.987706  -0.004
C  C208  1  0.33096385  0.13231696  0.84080696  1  -0.052693  -0.006688  0.015145  0.114977  -0.0071  3.990885  -0.004
C  C209  1  0.30436597  0.86778397  0.15934648  1  -0.064385  -0.00664  0.01475  0.114005  -0.007053  3.989888  -0.004
C  C210  1  0.21352313  0.34069053  0.36750602  1  -0.000256  -0.006668  0.014695  0.114543  -0.007081  3.98757  -0.004
C  C211  1  0.92210834  0.65904808  0.63236436  1  -0.083066  -0.006592  0.014524  0.114581  -0.007004  3.989357  -0.004
C  C212  1  0.79308960  0.13503305  0.94358217  1  -0.01882  0.004629  -0.076478  -0.161721  0.002086  3.926286  0.004
C  C213  1  0.87107640  0.86512670  0.05650761  1  -0.069014  0.00461  -0.077167  -0.164399  0.002068  3.927324  0.004
C  C214  1  0.48663379  0.55660032  0.63461404  1  -0.083368  0.00461  -0.078004  -0.16465  0.002065  3.924859  0.004
C  C215  1  0.67788235  0.44331525  0.36500317  1  -0.136935  0.004643  -0.076403  -0.160601  0.002076  3.924361  0.004
C  C216  1  0.37108054  0.05650513  0.86512515  1  -0.069275  0.004611  -0.077189  -0.164499  0.002068  3.927332  0.004
C  C217  1  0.29308670  0.94358072  0.13503160  1  -0.018669  0.00463  -0.076452  -0.161813  0.002086  3.926286  0.004
C  C218  1  0.17787725  0.36500622  0.44332183  1  -0.136549  0.004643  -0.076409  -0.160579  0.002076  3.924034  0.004
C  C219  1  0.98663320  0.63460924  0.55660618  1  -0.084344  0.004609  -0.077876  -0.16434  0.002064  3.924874  0.004
C  C220  1  0.73589014  0.09261892  0.98193322  1  0.468089  -0.003396  0.046121  0.094268  -0.003792  3.95497  -0.002
C  C221  1  0.80971869  0.90768478  0.01828830  1  0.504254  -0.003408  0.047078  0.095365  -0.00379  3.952242  -0.002
C  C222  1  0.46774599  0.51829117  0.59218342  1  0.51364  -0.003363  0.047589  0.09581  -0.003744  3.950836  -0.002
C  C223  1  0.57828441  0.48165854  0.40743464  1  0.543385  -0.003481  0.045588  0.092332  -0.003779  3.953815  -0.002
C  C224  1  0.30971963  0.01828992  0.90768507  1  0.504596  -0.003409  0.047053  0.095299  -0.003791  3.952272  -0.002
C  C225  1  0.23588397  0.98193758  0.09261454  1  0.468225  -0.003397  0.046113  0.094288  -0.003792  3.954944  -0.002
C  C226  1  0.07828063  0.40743779  0.48165832  1  0.543378  -0.00348  0.045584  0.092298  -0.003778  3.954075  -0.002
C  C227  1  0.96774322  0.59218479  0.51829809  1  0.514418  -0.00336  0.047444  0.095584  -0.003741  3.951051  -0.002
C  C228  1  0.70159152  0.09472174  0.87594833  1  0.506113  -0.00336  0.047816  0.096722  -0.003862  3.941993  -0.002
C  C229  1  0.67164106  0.90566788  0.12433229  1  0.492985  -0.003393  0.048464  0.097635  -0.003872  3.946378  -0.002
C  C230  1  0.32740590  0.62419757  0.59444070  1  0.474571  -0.003301  0.048395  0.097427  -0.003806  3.944272  -0.002
C  C231  1  0.54606276  0.37570007  0.40534320  1  0.506416  -0.003364  0.049106  0.099948  -0.003866  3.945668  -0.002
C  C232  1  0.17164484  0.12433103  0.90566885  1  0.49305  -0.003396  0.048436  0.097668  -0.003874  3.946485  -0.002
C  C233  1  0.20158169  0.87595481  0.09471970  1  0.505926  -0.003357  0.047855  0.096839  -0.003858  3.942093  -0.002
C  C234  1  0.04606327  0.40534843  0.37569557  1  0.507058  -0.003364  0.049085  0.099919  -0.003868  3.945612  -0.002
C  C235  1  0.82740020  0.59444055  0.62419986  1  0.474604  -0.003301  0.048448  0.097312  -0.003807  3.944417  -0.002
C  C236  1  0.75592191  0.13868846  0.83444077  1  -0.062265  0.004075  -0.083379  -0.183123  0.001893  3.954042  0.003
C  C237  1  0.72850373  0.86154732  0.16573975  1  -0.021222  0.004126  -0.084796  -0.184477  0.001909  3.956242  0.003
C  C238  1  0.34023562  0.66565907  0.63847828  1  0.002151  0.004076  -0.083771  -0.183825  0.001891  3.951645  0.003
C  C239  1  0.64434879  0.33419051  0.36135943  1  -0.048577  0.004104  -0.084366  -0.185557  0.001902  3.952163  0.003
C  C240  1  0.22850571  0.16573895  0.86154481  1  -0.02137  0.004127  -0.084778  -0.184511  0.001909  3.956232  0.003
C  C241  1  0.25591362  0.83444536  0.13868940  1  -0.062722  0.004075  -0.083419  -0.18323  0.001893  3.954079  0.003
C  C242  1  0.14434908  0.36136267  0.33419187  1  -0.048927  0.004104  -0.084352  -0.185639  0.001902  3.95234  0.003
C  C243  1  0.84023312  0.63847598  0.66566659  1  0.002447  0.004076  -0.083716  -0.183699  0.001891  3.951524  0.003
N  N244  1  0.69135319  0.07164210  0.94880167  1  -1.23993  0.061877  -0.340802  -0.257236  0.033292  3.635629  0.045
N  N245  1  0.71109361  0.92879458  0.05150240  1  -1.253799  0.061675  -0.342139  -0.258673  0.033267  3.637538  0.045
N  N246  1  0.39004985  0.55140178  0.57124610  1  -1.221942  0.061587  -0.341792  -0.258199  0.033166  3.63288  0.045
N  N247  1  0.51275894  0.44854522  0.42843665  1  -1.254313  0.061795  -0.340584  -0.257525  0.033242  3.632593  0.045
N  N248  1  0.21109465  0.05150358  0.92879667  1  -1.254181  0.061676  -0.342088  -0.258577  0.033266  3.637742  0.045
N  N249  1  0.19134917  0.94880516  0.07164017  1  -1.240098  0.06188  -0.34078  -0.257101  0.033295  3.635972  0.045
N  N250  1  0.01275777  0.42844373  0.44854367  1  -1.254532  0.061795  -0.340585  -0.257524  0.033243  3.632761  0.045
N  N251  1  0.89004626  0.57124743  0.55140534  1  -1.222267  0.061594  -0.341836  -0.258176  0.033168  3.633008  0.045
O  O252  1  0.33857248  0.40839524  0.55671108  1  -1.147422  0.097227  -0.330247  -0.553032  0.050352  2.239176  0.079
O  O253  1  0.30403378  0.59176272  0.44289272  1  -1.133071  0.097243  -0.33131  -0.554447  0.05039  2.234512  0.079
O  O254  1  0.64557437  0.94329861  0.90834940  1  -1.14131  0.097225  -0.330663  -0.553947  0.05037  2.2337  0.079
O  O255  1  0.49715107  0.05710127  0.09174136  1  -1.134939  0.097264  -0.329612  -0.552356  0.050431  2.238198  0.079
O  O256  1  0.80403084  0.44290054  0.59175779  1  -1.133146  0.097244  -0.331283  -0.554368  0.050391  2.234486  0.079
O  O257  1  0.83857183  0.55671327  0.40839508  1  -1.147327  0.097231  -0.330216  -0.553061  0.050355  2.239247  0.079
O  O258  1  0.99714734  0.09174889  0.05710158  1  -1.135041  0.097293  -0.329563  -0.55241  0.05044  2.237802  0.079
O  O259  1  0.14558190  0.90835433  0.94329000  1  -1.141268  0.097225  -0.330666  -0.553938  0.050367  2.233821  0.079
O  O260  1  0.21094818  0.52061182  0.58718572  1  -1.116139  0.057275  -0.309107  -0.539588  0.028706  2.200856  0.05
O  O261  1  0.31874955  0.47959059  0.41253097  1  -1.182869  0.057284  -0.30971  -0.54159  0.028762  2.201205  0.05
O  O262  1  0.54815270  0.91294121  0.02051882  1  -1.114797  0.057287  -0.309044  -0.539386  0.028782  2.200315  0.05
O  O263  1  0.48164754  0.08751117  0.97952200  1  -1.132358  0.057306  -0.309079  -0.539218  0.028729  2.200028  0.05
O  O264  1  0.81875248  0.41253197  0.47958329  1  -1.179994  0.057284  -0.309664  -0.541502  0.02876  2.200966  0.05
O  O265  1  0.71094719  0.58719874  0.52061352  1  -1.116125  0.057276  -0.309236  -0.539775  0.028706  2.200894  0.05
O  O266  1  0.98164671  0.97952423  0.08750845  1  -1.132049  0.057291  -0.309105  -0.539262  0.028722  2.200147  0.05
O  O267  1  0.04815223  0.02051880  0.91293641  1  -1.114949  0.057276  -0.309088  -0.53948  0.028776  2.200329  0.05
