# generated using pymatgen
data_MnH7C8NO5
_symmetry_space_group_name_H-M   'P 1'
_cell_length_a   7.50811889
_cell_length_b   8.12420210
_cell_length_c   8.57091167
_cell_angle_alpha   81.09505799
_cell_angle_beta   67.03792606
_cell_angle_gamma   84.65783115
_symmetry_Int_Tables_number   1
_chemical_formula_structural   MnH7C8NO5
_chemical_formula_sum   'Mn2 H14 C16 N2 O10'
_cell_volume   475.26877597
_cell_formula_units_Z   2
loop_
 _symmetry_equiv_pos_site_id
 _symmetry_equiv_pos_as_xyz
  1  'x, y, z'
loop_
 _atom_site_type_symbol
 _atom_site_label
 _atom_site_symmetry_multiplicity
 _atom_site_fract_x
 _atom_site_fract_y
 _atom_site_fract_z
 _atom_site_occupancy
 _atom_site_pbe_bader_charge
 _atom_site_pbe_bader_spin_density
 _atom_site_pbe_cm5_charge
 _atom_site_pbe_ddec_charge
 _atom_site_pbe_ddec_spin_density
 _atom_site_pbe_ddec_sum_bond_order
 _atom_site_pbe_magmom
Mn  Mn0  1  0.35691854  0.72287439  0.63957589  1  1.483549  4.561165  0.603116  0.989468  4.686893  2.186533  4.468
Mn  Mn1  1  0.64308488  0.27713235  0.36042332  1  1.483507  4.561142  0.603133  0.989532  4.686823  2.186564  4.468
H  H2  1  0.94442710  0.21523280  0.56417429  1  0.134487  0.000484  0.107562  0.112688  -0.000136  1.02322  0.0
H  H3  1  0.05556896  0.78476371  0.43582353  1  0.134509  0.000484  0.107578  0.112672  -0.000136  1.023204  0.0
H  H4  1  0.45506967  0.34589223  0.00270352  1  0.130843  0.000381  0.114926  0.131566  -0.000465  0.997757  0.0
H  H5  1  0.54493264  0.65410827  0.99728924  1  0.13084  0.000381  0.114921  0.131524  -0.000465  0.997766  0.0
H  H6  1  0.80762093  0.90408401  0.04826497  1  0.088666  0.000761  0.110723  0.125877  -1e-06  1.002597  0.0
H  H7  1  0.19237928  0.09591664  0.95173548  1  0.088652  0.000761  0.110723  0.125888  -1e-06  1.002572  0.0
H  H8  1  0.70577917  0.84656893  0.41405124  1  0.642014  0.001358  0.29224  0.379538  0.000714  0.970428  0.002
H  H9  1  0.29422028  0.15343323  0.58594791  1  0.64173  0.00136  0.29225  0.379532  0.000714  0.970432  0.002
H  H10  1  0.68079439  0.64923177  0.41583918  1  0.650595  0.000911  0.299595  0.383913  0.00049  0.95109  0.001
H  H11  1  0.31920601  0.35077114  0.58415485  1  0.650604  0.000911  0.299608  0.383959  0.000489  0.951038  0.001
H  H12  1  0.37618861  0.14352731  0.25980101  1  0.466189  0.00043  0.312505  0.305317  -0.000175  0.92455  0.001
H  H13  1  0.62381501  0.85647923  0.74019178  1  0.466218  0.00043  0.312546  0.305358  -0.000175  0.924528  0.001
H  H14  1  0.51924717  0.97976678  0.27933495  1  0.482644  0.000593  0.303406  0.303616  2.1e-05  0.960845  0.001
H  H15  1  0.48075227  0.02023661  0.72066421  1  0.482583  0.000593  0.303397  0.303608  2.1e-05  0.96083  0.001
C  C16  1  0.05984714  0.93329832  0.72208495  1  1.525681  0.01111  0.20949  0.559067  0.012569  4.191395  0.009
C  C17  1  0.94014627  0.06669448  0.27792183  1  1.52526  0.011111  0.20952  0.559184  0.012569  4.191422  0.009
C  C18  1  0.63511818  0.43362766  0.66561399  1  1.516306  0.029407  0.228744  0.598209  0.028214  4.13918  0.025
C  C19  1  0.36488472  0.56636785  0.33438648  1  1.516367  0.029405  0.228689  0.59813  0.028213  4.139229  0.025
C  C20  1  0.89323997  0.04874893  0.79919950  1  -0.061878  -0.003587  -0.022854  -0.036314  -0.005055  4.029746  -0.004
C  C21  1  0.10675115  0.95124469  0.20080340  1  -0.061436  -0.003587  -0.022871  -0.036338  -0.005055  4.029663  -0.004
C  C22  1  0.85406650  0.18933538  0.69908100  1  -0.095193  0.01946  -0.083749  -0.125639  0.014946  3.954788  0.012
C  C23  1  0.14592688  0.81066381  0.30091679  1  -0.095188  0.019458  -0.083789  -0.125619  0.014945  3.954753  0.012
C  C24  1  0.69257712  0.29301987  0.77266000  1  0.080458  -0.0012  -0.017257  -0.032848  -0.002141  4.007425  -0.002
C  C25  1  0.30742576  0.70698055  0.22734048  1  0.08044  -0.0012  -0.017241  -0.032793  -0.002142  4.007239  -0.002
C  C26  1  0.57855802  0.26229845  0.94731610  1  -0.055126  0.015977  -0.075899  -0.171415  0.011926  3.881571  0.01
C  C27  1  0.42144827  0.73770271  0.05268571  1  -0.055315  0.015977  -0.07587  -0.171367  0.011927  3.881434  0.01
C  C28  1  0.62258594  0.12557661  0.04879591  1  0.329183  -0.000413  0.090727  0.270205  -7.9e-05  4.060077  -0.001
C  C29  1  0.37741369  0.87442881  0.95120582  1  0.329356  -0.000414  0.090736  0.270245  -7.9e-05  4.05996  -0.001
C  C30  1  0.77643416  0.01557426  0.97299638  1  0.011212  0.016991  -0.081503  -0.184415  0.012535  3.905688  0.01
C  C31  1  0.22356416  0.98442511  0.02700533  1  0.011262  0.016991  -0.081463  -0.184412  0.012536  3.905619  0.01
N  N32  1  0.51676685  0.10185971  0.22745746  1  -1.269313  0.04228  -0.585553  -0.612527  0.030927  3.352685  0.017
N  N33  1  0.48323259  0.89814368  0.77254170  1  -1.26926  0.042277  -0.585593  -0.612586  0.03093  3.352593  0.017
O  O34  1  0.61824104  0.76268507  0.40844713  1  -1.302315  0.06186  -0.569683  -0.768846  0.043635  2.147529  0.029
O  O35  1  0.38176107  0.23731833  0.59154306  1  -1.301975  0.061856  -0.56974  -0.768906  0.043639  2.147511  0.029
O  O36  1  0.06453540  0.78477393  0.79556012  1  -1.171306  0.056391  -0.309835  -0.527247  0.036246  2.170091  0.021
O  O37  1  0.93546728  0.21522646  0.20445578  1  -1.171165  0.056393  -0.309904  -0.527397  0.036248  2.170139  0.021
O  O38  1  0.20074600  0.98511798  0.58302491  1  -1.208269  0.043389  -0.311216  -0.57713  0.030948  2.252771  0.023
O  O39  1  0.79924568  0.01487826  0.41697671  1  -1.20844  0.043393  -0.311177  -0.577069  0.030945  2.252919  0.023
O  O40  1  0.71717372  0.44294846  0.50156164  1  -1.18301  0.059466  -0.309745  -0.577343  0.040728  2.282673  0.023
O  O41  1  0.28283585  0.55704156  0.49843891  1  -1.183115  0.059487  -0.30971  -0.577292  0.040723  2.282617  0.023
O  O42  1  0.50371420  0.53675841  0.74309358  1  -1.195381  0.082782  -0.305749  -0.545793  0.057294  2.321495  0.041
O  O43  1  0.49629249  0.46323965  0.25690437  1  -1.195471  0.082794  -0.305735  -0.545799  0.057296  2.321561  0.041
