# generated using pymatgen
data_GdH19C24Cl6O11
_symmetry_space_group_name_H-M   'P 1'
_cell_length_a   8.83823802
_cell_length_b   13.65891969
_cell_length_c   31.64003874
_cell_angle_alpha   90.00040836
_cell_angle_beta   90.00021100
_cell_angle_gamma   93.87675416
_symmetry_Int_Tables_number   1
_chemical_formula_structural   GdH19C24Cl6O11
_chemical_formula_sum   'Gd4 H76 C96 Cl24 O44'
_cell_volume   3810.87019429
_cell_formula_units_Z   4
loop_
 _symmetry_equiv_pos_site_id
 _symmetry_equiv_pos_as_xyz
  1  'x, y, z'
loop_
 _atom_site_type_symbol
 _atom_site_label
 _atom_site_symmetry_multiplicity
 _atom_site_fract_x
 _atom_site_fract_y
 _atom_site_fract_z
 _atom_site_occupancy
 _atom_site_pbe_bader_charge
 _atom_site_pbe_bader_spin_density
 _atom_site_pbe_cm5_charge
 _atom_site_pbe_ddec_charge
 _atom_site_pbe_ddec_spin_density
 _atom_site_pbe_ddec_sum_bond_order
 _atom_site_pbe_magmom
Gd  Gd0  1  0.76684641  0.00848246  0.00230665  1  2.181182  0  1.467275  2.045522  0  2.179327  0
Gd  Gd1  1  0.26684616  0.50848313  0.49769342  1  2.181134  0  1.467319  2.045559  0  2.179396  0
Gd  Gd2  1  0.23315415  0.99151299  0.99769322  1  2.181133  0  1.467247  2.045502  0  2.179382  0
Gd  Gd3  1  0.73315151  0.49151744  0.50230771  1  2.18111  0  1.467273  2.04559  0  2.179347  0
H  H4  1  0.70458151  0.82079575  0.03543141  1  0.625118  0  0.314952  0.403891  0  0.899209  0
H  H5  1  0.20458063  0.32079020  0.46457146  1  0.625211  0  0.314909  0.403874  0  0.899236  0
H  H6  1  0.29541694  0.17920116  0.96456972  1  0.625145  0  0.314952  0.403954  0  0.899136  0
H  H7  1  0.79541887  0.67920598  0.53543220  1  0.625098  0  0.315005  0.403967  0  0.899123  0
H  H8  1  0.54650481  0.83158405  0.01412985  1  0.652495  0  0.302826  0.410076  0  0.915857  0
H  H9  1  0.04650137  0.33158399  0.48587194  1  0.652329  0  0.302825  0.410158  0  0.915768  0
H  H10  1  0.45349590  0.16841286  0.98587033  1  0.6525  0  0.302834  0.410127  0  0.915802  0
H  H11  1  0.95349517  0.66841658  0.51412983  1  0.652462  0  0.30283  0.410104  0  0.915814  0
H  H12  1  0.84717521  0.94868537  0.09439210  1  0.612748  0  0.327278  0.411205  0  0.884459  0
H  H13  1  0.34716833  0.44867292  0.40560846  1  0.612871  0  0.327278  0.411196  0  0.884405  0
H  H14  1  0.15282543  0.05131081  0.90560840  1  0.612716  0  0.327297  0.41124  0  0.884541  0
H  H15  1  0.65282580  0.55131444  0.59439236  1  0.61274  0  0.327223  0.411156  0  0.884519  0
H  H16  1  0.95748480  0.89143379  0.06503685  1  0.672927  0  0.309552  0.420304  0  0.904063  0
H  H17  1  0.45748021  0.39142919  0.43496585  1  0.673069  0  0.30955  0.420311  0  0.904056  0
H  H18  1  0.04251245  0.10856238  0.93496207  1  0.67294  0  0.309561  0.420292  0  0.904079  0
H  H19  1  0.54251696  0.60856625  0.56503749  1  0.672919  0  0.309529  0.420281  0  0.904105  0
H  H20  1  0.17562063  0.16295095  0.08749359  1  0.118256  0  0.114077  0.107595  0  1.025847  0
H  H21  1  0.67561139  0.66295044  0.41250717  1  0.118228  0  0.113998  0.107485  0  1.025774  0
H  H22  1  0.82437329  0.83704595  0.91250659  1  0.118345  0  0.114056  0.107544  0  1.02595  0
H  H23  1  0.32437758  0.33705377  0.58749617  1  0.118108  0  0.114076  0.107562  0  1.025947  0
H  H24  1  0.14741104  0.26087436  0.05267393  1  0.116063  0  0.13011  0.136544  0  0.928897  0
H  H25  1  0.64739569  0.76087590  0.44732775  1  0.116322  0  0.13007  0.136407  0  0.928887  0
H  H26  1  0.85259201  0.73912330  0.94732689  1  0.116226  0  0.130127  0.136555  0  0.928832  0
H  H27  1  0.35258769  0.23912903  0.55267465  1  0.116145  0  0.130131  0.136573  0  0.928872  0
H  H28  1  0.68835865  0.26069255  0.21416483  1  0.141226  0  0.101311  0.131868  0  1.01749  0
H  H29  1  0.18834848  0.76069103  0.28583435  1  0.141501  0  0.101301  0.131879  0  1.017506  0
H  H30  1  0.31164050  0.73931170  0.78583440  1  0.141257  0  0.101356  0.1319  0  1.017399  0
H  H31  1  0.81165795  0.23930664  0.71416140  1  0.141566  0  0.1013  0.131828  0  1.017567  0
H  H32  1  0.88619916  0.98836239  0.18531842  1  0.077481  0  0.094321  0.109114  0  1.036982  0
H  H33  1  0.38619442  0.48836160  0.31467913  1  0.077367  0  0.094284  0.109071  0  1.036985  0
H  H34  1  0.11379073  0.01163962  0.81468144  1  0.077422  0  0.094303  0.109091  0  1.036884  0
H  H35  1  0.61380424  0.51163751  0.68532358  1  0.077297  0  0.0943  0.109087  0  1.037016  0
H  H36  1  0.03425263  0.06980986  0.12747374  1  0.068925  0  0.107466  0.122809  0  1.010006  0
H  H37  1  0.53425318  0.56981091  0.37252313  1  0.068943  0  0.107522  0.122923  0  1.009878  0
H  H38  1  0.96573563  0.93018701  0.87252487  1  0.069025  0  0.10748  0.122839  0  1.009979  0
H  H39  1  0.46574485  0.43019334  0.62747832  1  0.068873  0  0.107507  0.122889  0  1.009903  0
H  H40  1  0.63174646  0.25891838  0.90557135  1  0.08797  0  0.114195  0.101359  0  0.969078  0
H  H41  1  0.13175379  0.75892611  0.59442465  1  0.088201  0  0.114223  0.101447  0  0.969081  0
H  H42  1  0.36825014  0.74107119  0.09442662  1  0.088244  0  0.114217  0.101424  0  0.969165  0
H  H43  1  0.86824352  0.24107079  0.40557837  1  0.088168  0  0.114264  0.101551  0  0.969071  0
H  H44  1  0.73826455  0.33438224  0.94207527  1  0.122724  0  0.126189  0.127942  0  0.939753  0
H  H45  1  0.23828738  0.83439160  0.55792392  1  0.122584  0  0.126204  0.127987  0  0.939796  0
H  H46  1  0.26172293  0.66560657  0.05792492  1  0.122681  0  0.126191  0.127959  0  0.939833  0
H  H47  1  0.76170894  0.16560677  0.44207879  1  0.122655  0  0.126144  0.127943  0  0.939842  0
H  H48  1  0.07083254  0.22603576  0.76727536  1  0.110444  0  0.091606  0.117024  0  1.061345  0
H  H49  1  0.57083808  0.72602636  0.73272459  1  0.11048  0  0.091659  0.117072  0  1.061205  0
H  H50  1  0.92916980  0.77397803  0.23272419  1  0.110866  0  0.091623  0.117054  0  1.061367  0
H  H51  1  0.42916914  0.27396764  0.26727433  1  0.110539  0  0.091633  0.11705  0  1.06128  0
H  H52  1  0.71850859  0.01685777  0.81219534  1  0.133954  0  0.096751  0.111672  0  1.056791  0
H  H53  1  0.21849338  0.51686482  0.68780379  1  0.134073  0  0.096763  0.111746  0  1.056796  0
H  H54  1  0.28151044  0.98314141  0.18780199  1  0.133902  0  0.096751  0.111689  0  1.056865  0
H  H55  1  0.78150839  0.48313136  0.31219829  1  0.134058  0  0.096755  0.11174  0  1.0568  0
H  H56  1  0.69868404  0.11299506  0.87733510  1  0.074242  0  0.103421  0.114922  0  1.034803  0
H  H57  1  0.19867271  0.61300468  0.62266400  1  0.074097  0  0.103413  0.114902  0  1.034852  0
H  H58  1  0.30133081  0.88699604  0.12266319  1  0.074047  0  0.103428  0.114908  0  1.034948  0
H  H59  1  0.80132241  0.38699295  0.37733903  1  0.07386  0  0.103426  0.114928  0  1.034804  0
H  H60  1  0.56900902  0.99485718  0.13198554  1  0.062345  0  0.121555  0.119902  0  0.943315  0
H  H61  1  0.06899541  0.49485067  0.36801299  1  0.062345  0  0.121562  0.119884  0  0.943455  0
H  H62  1  0.43098752  0.00514339  0.86801243  1  0.0623  0  0.121542  0.119866  0  0.943421  0
H  H63  1  0.93101217  0.50515874  0.63199067  1  0.062161  0  0.121606  0.119933  0  0.94337  0
H  H64  1  0.64559911  0.10942408  0.11234959  1  0.126047  0  0.113503  0.105088  0  1.022484  0
H  H65  1  0.14559320  0.60941698  0.38764719  1  0.126225  0  0.113527  0.105078  0  1.022466  0
H  H66  1  0.35440443  0.89057871  0.88764869  1  0.126105  0  0.113499  0.105077  0  1.022482  0
H  H67  1  0.85440284  0.39059019  0.61235647  1  0.126235  0  0.113507  0.105146  0  1.022247  0
H  H68  1  0.21935155  0.37635385  0.19051689  1  0.120032  0  0.105505  0.13528  0  0.994868  0
H  H69  1  0.71933917  0.87634717  0.30947921  1  0.119835  0  0.105536  0.135344  0  0.994851  0
H  H70  1  0.78066366  0.62365265  0.80948234  1  0.119996  0  0.105503  0.135252  0  0.99488  0
H  H71  1  0.28065737  0.12365340  0.69052129  1  0.119842  0  0.105507  0.135287  0  0.994898  0
H  H72  1  0.48392024  0.40292221  0.07611012  1  0.077472  0  0.105671  0.11877  0  0.984713  0
H  H73  1  0.98390983  0.90291969  0.42388695  1  0.077115  0  0.105625  0.118713  0  0.984736  0
H  H74  1  0.51607616  0.59707690  0.92388690  1  0.077578  0  0.105729  0.118837  0  0.984708  0
H  H75  1  0.01609307  0.09708823  0.57611134  1  0.077041  0  0.105668  0.118798  0  0.984675  0
H  H76  1  0.54657530  0.23060275  0.08260166  1  0.077642  0  0.114553  0.137466  0  0.986948  0
H  H77  1  0.04656002  0.73059980  0.41739508  1  0.077867  0  0.114559  0.137504  0  0.986777  0
H  H78  1  0.45341855  0.76939341  0.91739441  1  0.077623  0  0.114579  0.137499  0  0.986979  0
H  H79  1  0.95343928  0.26940591  0.58260637  1  0.077869  0  0.114552  0.13742  0  0.986923  0
C  C80  1  0.97885660  0.14124949  0.04824622  1  1.562578  0  0.212941  0.630769  0  4.159152  0
C  C81  1  0.47884375  0.64124347  0.45175352  1  1.562551  0  0.212855  0.63055  0  4.159479  0
C  C82  1  0.02114885  0.85874964  0.95175080  1  1.562589  0  0.212991  0.630768  0  4.159049  0
C  C83  1  0.52114840  0.35875856  0.54824824  1  1.562649  0  0.212992  0.630756  0  4.15909  0
C  C84  1  0.08827086  0.20734958  0.07389661  1  0.416889  0  -0.057065  -0.126554  0  3.875714  0
C  C85  1  0.58825618  0.70734929  0.42610295  1  0.416534  0  -0.056976  -0.126277  0  3.87533  0
C  C86  1  0.91172666  0.79264952  0.92610326  1  0.416061  0  -0.057035  -0.126475  0  3.875613  0
C  C87  1  0.41173060  0.29265564  0.57389755  1  0.416594  0  -0.057086  -0.126581  0  3.875807  0
C  C88  1  0.94063274  0.21097276  0.13637863  1  0.517933  0  0.075156  0.186963  0  4.05935  0
C  C89  1  0.44061967  0.71097697  0.36361876  1  0.51813  0  0.075088  0.186825  0  4.059288  0
C  C90  1  0.05936457  0.78902414  0.86361871  1  0.518135  0  0.075115  0.186871  0  4.059226  0
C  C91  1  0.55937736  0.28902874  0.63637921  1  0.517965  0  0.075136  0.186978  0  4.059143  0
C  C92  1  0.84464215  0.26398515  0.16201422  1  0.0508  0  0.004318  0.06393  0  4.033351  0
C  C93  1  0.34462841  0.76398598  0.33798324  1  0.050608  0  0.004352  0.064139  0  4.033339  0
C  C94  1  0.15535764  0.73601396  0.83798438  1  0.05061  0  0.004262  0.06395  0  4.033575  0
C  C95  1  0.65537153  0.23601460  0.66201189  1  0.050725  0  0.004374  0.063961  0  4.033452  0
C  C96  1  0.76259558  0.21839689  0.19499700  1  0.039577  0  -0.101903  -0.198416  0  3.967999  0
C  C97  1  0.26258811  0.71839717  0.30500181  1  0.039041  0  -0.101923  -0.198558  0  3.968021  0
C  C98  1  0.23740223  0.78160516  0.80500318  1  0.039337  0  -0.101909  -0.198424  0  3.968038  0
C  C99  1  0.73742073  0.28160197  0.69499363  1  0.039437  0  -0.101925  -0.198451  0  3.968106  0
C  C100  1  0.77608748  0.11866728  0.20274305  1  0.05213  0  -0.000549  0.145258  0  4.073139  0
C  C101  1  0.27608648  0.61866526  0.29725610  1  0.052094  0  -0.000476  0.145308  0  4.073  0
C  C102  1  0.22390820  0.88133622  0.79725713  1  0.052314  0  -0.000571  0.145187  0  4.073178  0
C  C103  1  0.72391536  0.38133166  0.70274471  1  0.051682  0  -0.000482  0.145318  0  4.073112  0
C  C104  1  0.87270035  0.06526886  0.17826802  1  -0.009112  0  -0.111037  -0.166405  0  4.066425  0
C  C105  1  0.37269880  0.56526945  0.32173043  1  -0.008727  0  -0.110956  -0.166229  0  4.066355  0
C  C106  1  0.12729180  0.93473316  0.82173311  1  -0.009134  0  -0.111008  -0.166313  0  4.066381  0
C  C107  1  0.62730474  0.43473334  0.67827070  1  -0.008726  0  -0.110997  -0.166313  0  4.06655  0
C  C108  1  0.95488222  0.11150677  0.14531368  1  -0.028949  0  -0.115316  -0.212668  0  4.048329  0
C  C109  1  0.45488019  0.61150939  0.35468626  1  -0.028987  0  -0.115388  -0.212881  0  4.048263  0
C  C110  1  0.04510731  0.88849158  0.85468524  1  -0.029181  0  -0.115357  -0.212764  0  4.048425  0
C  C111  1  0.54511903  0.38849559  0.64531550  1  -0.02887  0  -0.115422  -0.212883  0  4.048416  0
C  C112  1  0.75383291  0.18090757  0.95183577  1  1.571067  0  0.206113  0.605004  0  4.178142  0
C  C113  1  0.25384540  0.68091674  0.54816232  1  1.570657  0  0.206123  0.605059  0  4.178247  0
C  C114  1  0.24616065  0.81908565  0.04816188  1  1.571237  0  0.206175  0.605065  0  4.178326  0
C  C115  1  0.74615106  0.31908310  0.45183975  1  1.570589  0  0.206158  0.605063  0  4.178347  0
C  C116  1  0.74073598  0.26787501  0.92259794  1  0.416618  0  -0.059028  -0.121989  0  3.910053  0
C  C117  1  0.24074885  0.76788394  0.57740041  1  0.416598  0  -0.059111  -0.122127  0  3.910107  0
C  C118  1  0.25925956  0.73211528  0.07740129  1  0.416276  0  -0.059114  -0.122103  0  3.910249  0
C  C119  1  0.75924875  0.23211590  0.42260325  1  0.416524  0  -0.05906  -0.122189  0  3.910416  0
C  C120  1  0.86953214  0.22639072  0.85940776  1  0.439348  0  0.069763  0.176626  0  4.057224  0
C  C121  1  0.36953282  0.72639335  0.64059249  1  0.439759  0  0.069666  0.176518  0  4.05733  0
C  C122  1  0.13046963  0.77360547  0.14059306  1  0.439765  0  0.069671  0.176542  0  4.057218  0
C  C123  1  0.63047114  0.27360210  0.35940832  1  0.439382  0  0.069803  0.176755  0  4.056961  0
C  C124  1  0.97629501  0.25601813  0.82805423  1  0.110533  0  -0.000711  0.060117  0  4.05407  0
C  C125  1  0.47629759  0.75601251  0.67194748  1  0.110548  0  -0.000681  0.060086  0  4.053967  0
C  C126  1  0.02370973  0.74398540  0.17194785  1  0.110586  0  -0.000663  0.060179  0  4.054051  0
C  C127  1  0.52370616  0.24398075  0.32805302  1  0.110537  0  -0.000696  0.060134  0  4.053979  0
C  C128  1  0.98864061  0.20118874  0.79123782  1  0.067163  0  -0.109476  -0.216598  0  4.008031  0
C  C129  1  0.48864029  0.70118300  0.70876310  1  0.0673  0  -0.109595  -0.216666  0  4.008033  0
C  C130  1  0.01136930  0.79882141  0.20876236  1  0.06672  0  -0.109502  -0.216686  0  4.008096  0
C  C131  1  0.51136473  0.29881173  0.29123803  1  0.0669  0  -0.109503  -0.216581  0  4.008291  0
C  C132  1  0.89468481  0.11579520  0.78549777  1  -0.019272  0  0.000686  0.141052  0  4.069817  0
C  C133  1  0.39468034  0.61579248  0.71450122  1  -0.019351  0  0.000761  0.141247  0  4.069811  0
C  C134  1  0.10533471  0.88420911  0.21450084  1  -0.019397  0  0.000825  0.141365  0  4.069713  0
C  C135  1  0.60533098  0.38419714  0.28549865  1  -0.018902  0  0.000767  0.141107  0  4.070066  0
C  C136  1  0.78936469  0.08448598  0.81625995  1  -0.012407  0  -0.103047  -0.136809  0  3.998944  0
C  C137  1  0.28935260  0.58449078  0.68374041  1  -0.012571  0  -0.103112  -0.136953  0  3.999211  0
C  C138  1  0.21065193  0.91551172  0.18373960  1  -0.012804  0  -0.103077  -0.136886  0  3.999277  0
C  C139  1  0.71065136  0.41550468  0.31626040  1  -0.012885  0  -0.103087  -0.136787  0  3.999074  0
C  C140  1  0.77793782  0.13998149  0.85303590  1  0.009451  0  -0.110588  -0.188037  0  4.00614  0
C  C141  1  0.27792495  0.63998345  0.64696430  1  0.009487  0  -0.110499  -0.187945  0  4.006066  0
C  C142  1  0.22208432  0.86001476  0.14696270  1  0.00971  0  -0.110643  -0.188137  0  4.006219  0
C  C143  1  0.72207569  0.36001273  0.35303714  1  0.010067  0  -0.110614  -0.188222  0  4.006107  0
C  C144  1  0.47117155  0.03762769  0.07372207  1  1.618347  0  0.229002  0.654548  0  4.148195  0
C  C145  1  0.97117264  0.53762672  0.42627607  1  1.6182  0  0.229061  0.654633  0  4.1481  0
C  C146  1  0.52882619  0.96237362  0.92627621  1  1.618392  0  0.228941  0.654509  0  4.148293  0
C  C147  1  0.02882637  0.46237605  0.57372537  1  1.618284  0  0.229095  0.65464  0  4.147923  0
C  C148  1  0.53949030  0.06365651  0.11693259  1  0.407386  0  -0.061105  -0.137322  0  3.888037  0
C  C149  1  0.03948333  0.56365079  0.38306489  1  0.407197  0  -0.0612  -0.137303  0  3.888145  0
C  C150  1  0.46050857  0.93634480  0.88306412  1  0.407436  0  -0.061048  -0.137214  0  3.888061  0
C  C151  1  0.96051943  0.43635566  0.61693813  1  0.407346  0  -0.061166  -0.137266  0  3.887863  0
C  C152  1  0.41639701  0.20364041  0.14006641  1  0.497897  0  0.07521  0.181589  0  4.054383  0
C  C153  1  0.91638413  0.70363313  0.35993094  1  0.498334  0  0.075133  0.181519  0  4.054161  0
C  C154  1  0.58360385  0.79636971  0.85993125  1  0.497749  0  0.075296  0.181679  0  4.054385  0
C  C155  1  0.08362174  0.29637040  0.64007336  1  0.497743  0  0.075296  0.181802  0  4.054088  0
C  C156  1  0.32580774  0.24690073  0.17059768  1  0.068713  0  0.002004  0.054164  0  4.03242  0
C  C157  1  0.82579651  0.74689146  0.32939907  1  0.067519  0  0.001975  0.054199  0  4.032163  0
C  C158  1  0.67419729  0.75310574  0.82940155  1  0.068775  0  0.002033  0.054368  0  4.032275  0
C  C159  1  0.17419967  0.25310544  0.67060427  1  0.06758  0  0.001859  0.053958  0  4.032677  0
C  C160  1  0.29065497  0.34423197  0.16693789  1  0.049381  0  -0.102522  -0.205753  0  4.012553  0
C  C161  1  0.79064189  0.84422643  0.33305849  1  0.049671  0  -0.102556  -0.205813  0  4.012377  0
C  C162  1  0.70935345  0.65577450  0.83306134  1  0.049478  0  -0.102547  -0.205748  0  4.012443  0
C  C163  1  0.20935606  0.15577708  0.66694201  1  0.049731  0  -0.10247  -0.205594  0  4.01249  0
C  C164  1  0.34651210  0.39945742  0.13254898  1  0.037006  0  0.001359  0.144284  0  4.083906  0
C  C165  1  0.84650161  0.89945027  0.36744826  1  0.037402  0  0.001263  0.144109  0  4.083832  0
C  C166  1  0.65349511  0.60054832  0.86745025  1  0.037118  0  0.001345  0.144254  0  4.083676  0
C  C167  1  0.15349486  0.10054956  0.63255161  1  0.037177  0  0.001253  0.144037  0  4.083913  0
C  C168  1  0.43904412  0.35885082  0.10251645  1  0.076023  0  -0.099847  -0.143119  0  4.031305  0
C  C169  1  0.93903500  0.85884199  0.39748171  1  0.076538  0  -0.099686  -0.142915  0  4.031385  0
C  C170  1  0.56094945  0.64115414  0.89748152  1  0.075938  0  -0.099827  -0.14312  0  4.03129  0
C  C171  1  0.06096302  0.14116225  0.60251784  1  0.076744  0  -0.099849  -0.143207  0  4.03146  0
C  C172  1  0.47399329  0.26111106  0.10635512  1  -0.046693  0  -0.103107  -0.186638  0  4.000928  0
C  C173  1  0.97397761  0.76110507  0.39364087  1  -0.046706  0  -0.103112  -0.186599  0  4.000929  0
C  C174  1  0.52599780  0.73889170  0.89364095  1  -0.046545  0  -0.103232  -0.186797  0  4.001047  0
C  C175  1  0.02601957  0.23890210  0.60635994  1  -0.046663  0  -0.103003  -0.186349  0  4.000814  0
Cl  Cl176  1  0.25627829  0.17786069  0.21294862  1  -0.194053  0  0.023568  -0.042421  0  1.664046  0
Cl  Cl177  1  0.75626308  0.67785142  0.28704816  1  -0.193796  0  0.023646  -0.042363  0  1.664012  0
Cl  Cl178  1  0.74373134  0.82214652  0.78705282  1  -0.194179  0  0.023554  -0.042519  0  1.664055  0
Cl  Cl179  1  0.24372984  0.32214694  0.71295202  1  -0.193802  0  0.02361  -0.042375  0  1.664189  0
Cl  Cl180  1  0.83083280  0.38698158  0.15192402  1  -0.184427  0  -0.008213  -0.06153  0  1.609938  0
Cl  Cl181  1  0.33082797  0.88697967  0.34807506  1  -0.184462  0  -0.00817  -0.061518  0  1.610013  0
Cl  Cl182  1  0.16916862  0.61302268  0.84807426  1  -0.184402  0  -0.008163  -0.061474  0  1.610036  0
Cl  Cl183  1  0.66917684  0.11302459  0.65191943  1  -0.184467  0  -0.008222  -0.061517  0  1.61009  0
Cl  Cl184  1  0.29642703  0.51927466  0.12754346  1  -0.220246  0  -0.022289  -0.105123  0  1.550177  0
Cl  Cl185  1  0.79642549  0.01927298  0.37245193  1  -0.220434  0  -0.022334  -0.105159  0  1.550097  0
Cl  Cl186  1  0.70357991  0.48072814  0.87245546  1  -0.220204  0  -0.022324  -0.105171  0  1.550097  0
Cl  Cl187  1  0.20358499  0.98073130  0.62754320  1  -0.220138  0  -0.022294  -0.105091  0  1.550152  0
Cl  Cl188  1  0.67143390  0.06158366  0.24319703  1  -0.214066  0  -0.020186  -0.090452  0  1.504263  0
Cl  Cl189  1  0.17141833  0.56157722  0.25680152  1  -0.214062  0  -0.020286  -0.090552  0  1.504141  0
Cl  Cl190  1  0.32857247  0.93842501  0.75680441  1  -0.213937  0  -0.020183  -0.090434  0  1.504188  0
Cl  Cl191  1  0.82858167  0.43841235  0.74319866  1  -0.214022  0  -0.020251  -0.090497  0  1.50426  0
Cl  Cl192  1  0.91270639  0.04785699  0.73970348  1  -0.210454  0  -0.004495  -0.076019  0  1.575123  0
Cl  Cl193  1  0.41269930  0.54785577  0.76029373  1  -0.210364  0  -0.004512  -0.076091  0  1.575234  0
Cl  Cl194  1  0.08730783  0.95215098  0.26029323  1  -0.210138  0  -0.004541  -0.076115  0  1.575178  0
Cl  Cl195  1  0.58731244  0.45213824  0.23970676  1  -0.210497  0  -0.004496  -0.076037  0  1.575265  0
Cl  Cl196  1  0.09206769  0.36151994  0.83491361  1  -0.187789  0  -0.020848  -0.0747  0  1.57904  0
Cl  Cl197  1  0.59208322  0.86151822  0.66508772  1  -0.187756  0  -0.020897  -0.074744  0  1.578756  0
Cl  Cl198  1  0.90792397  0.63848869  0.16508594  1  -0.187634  0  -0.020881  -0.074738  0  1.578989  0
Cl  Cl199  1  0.40791657  0.13848090  0.33491214  1  -0.187798  0  -0.020885  -0.074744  0  1.57887  0
O  O200  1  0.87235132  0.13291249  0.95212337  1  -1.196747  0  -0.355437  -0.614495  0  2.311203  0
O  O201  1  0.37235963  0.63291356  0.54787565  1  -1.19649  0  -0.355435  -0.614532  0  2.311178  0
O  O202  1  0.12764783  0.86708002  0.04787650  1  -1.196941  0  -0.355499  -0.614527  0  2.311321  0
O  O203  1  0.62763669  0.36708481  0.45212580  1  -1.196537  0  -0.355454  -0.614583  0  2.311114  0
O  O204  1  0.03583805  0.07820092  0.02364297  1  -1.219318  0  -0.448273  -0.740779  0  2.431957  0
O  O205  1  0.53583758  0.57820007  0.47635550  1  -1.219298  0  -0.448287  -0.740715  0  2.431933  0
O  O206  1  0.96416309  0.92180040  0.97635469  1  -1.219231  0  -0.448325  -0.740791  0  2.431557  0
O  O207  1  0.46415238  0.42180268  0.52364405  1  -1.219448  0  -0.448333  -0.740806  0  2.431764  0
O  O208  1  0.86428905  0.28526813  0.89435755  1  -1.067461  0  -0.183125  -0.169611  0  2.613683  0
O  O209  1  0.36429719  0.78527092  0.60564477  1  -1.068034  0  -0.183033  -0.169587  0  2.613806  0
O  O210  1  0.13570805  0.71472658  0.10564484  1  -1.067805  0  -0.183065  -0.169602  0  2.613842  0
O  O211  1  0.63569998  0.21472452  0.39435762  1  -1.067505  0  -0.183174  -0.169747  0  2.613773  0
O  O212  1  0.83745832  0.14566080  0.05080652  1  -1.174429  0  -0.352096  -0.59473  0  2.224734  0
O  O213  1  0.33744685  0.64565767  0.44919151  1  -1.174602  0  -0.352071  -0.594654  0  2.225023  0
O  O214  1  0.16254592  0.85433759  0.94918987  1  -1.174518  0  -0.352047  -0.594641  0  2.224925  0
O  O215  1  0.66254643  0.35434435  0.55081088  1  -1.174532  0  -0.352104  -0.59469  0  2.224884  0
O  O216  1  0.01400501  0.26236742  0.10466400  1  -1.072621  0  -0.176947  -0.165775  0  2.618341  0
O  O217  1  0.51399346  0.76236882  0.39533533  1  -1.072301  0  -0.176893  -0.165713  0  2.618194  0
O  O218  1  0.98598771  0.73762873  0.89533460  1  -1.072052  0  -0.176977  -0.165834  0  2.618132  0
O  O219  1  0.48599770  0.23763466  0.60466422  1  -1.07213  0  -0.176911  -0.165718  0  2.618203  0
O  O220  1  0.56553400  0.01282210  0.04606820  1  -1.219115  0  -0.428132  -0.714311  0  2.418823  0
O  O221  1  0.06553364  0.51281615  0.45393042  1  -1.219112  0  -0.428189  -0.714347  0  2.418783  0
O  O222  1  0.43447003  0.98717409  0.95393041  1  -1.219138  0  -0.428068  -0.714277  0  2.418953  0
O  O223  1  0.93445865  0.48718734  0.54607261  1  -1.219121  0  -0.428195  -0.714387  0  2.418806  0
O  O224  1  0.33008187  0.03764148  0.06737877  1  -1.194884  0  -0.362773  -0.616205  0  2.261413  0
O  O225  1  0.83008433  0.53763036  0.43262271  1  -1.194821  0  -0.362757  -0.616247  0  2.261467  0
O  O226  1  0.66991480  0.96236055  0.93261951  1  -1.194955  0  -0.362745  -0.616236  0  2.261553  0
O  O227  1  0.16991807  0.46236069  0.56737937  1  -1.194798  0  -0.362763  -0.616213  0  2.26137  0
O  O228  1  0.44051920  0.10666009  0.14579382  1  -1.080781  0  -0.177838  -0.171306  0  2.633852  0
O  O229  1  0.94050496  0.60665124  0.35420546  1  -1.080878  0  -0.17773  -0.171336  0  2.633748  0
O  O230  1  0.55947734  0.89334048  0.85420605  1  -1.081022  0  -0.177912  -0.171403  0  2.634342  0
O  O231  1  0.05949398  0.39335080  0.64579789  1  -1.080736  0  -0.177888  -0.171647  0  2.633873  0
O  O232  1  0.64309099  0.15641537  0.97616782  1  -1.195768  0  -0.348311  -0.613959  0  2.26756  0
O  O233  1  0.14310176  0.65642191  0.52383040  1  -1.195525  0  -0.348263  -0.613952  0  2.267625  0
O  O234  1  0.35690681  0.84357493  0.02383173  1  -1.195646  0  -0.348259  -0.613947  0  2.267615  0
O  O235  1  0.85689683  0.34357647  0.47617104  1  -1.195444  0  -0.348298  -0.61393  0  2.267648  0
O  O236  1  0.65760645  0.83564126  0.00838245  1  -1.254302  0  -0.620401  -0.812713  0  1.985682  0
O  O237  1  0.15760310  0.33564130  0.49161978  1  -1.254176  0  -0.620348  -0.812767  0  1.985695  0
O  O238  1  0.34239192  0.16435492  0.99161805  1  -1.254311  0  -0.620392  -0.812808  0  1.985609  0
O  O239  1  0.84239351  0.66436001  0.50838262  1  -1.254267  0  -0.620454  -0.812819  0  1.985551  0
O  O240  1  0.85352248  0.91596677  0.06718475  1  -1.265165  0  -0.597542  -0.828164  0  2.020364  0
O  O241  1  0.35351659  0.41596066  0.43281571  1  -1.265507  0  -0.597575  -0.828187  0  2.020388  0
O  O242  1  0.14647603  0.08403087  0.93281385  1  -1.265153  0  -0.5976  -0.828218  0  2.020534  0
O  O243  1  0.64647711  0.58403403  0.56718542  1  -1.265132  0  -0.597494  -0.828118  0  2.020473  0
