# generated using pymatgen
data_Zn4H9C21IO14
_symmetry_space_group_name_H-M   'P 1'
_cell_length_a   13.13893236
_cell_length_b   13.21942815
_cell_length_c   16.04553585
_cell_angle_alpha   79.28324008
_cell_angle_beta   81.11812353
_cell_angle_gamma   90.46096503
_symmetry_Int_Tables_number   1
_chemical_formula_structural   Zn4H9C21IO14
_chemical_formula_sum   'Zn4 H9 C21 I1 O14'
_cell_volume   2703.55141939
_cell_formula_units_Z   1
loop_
 _symmetry_equiv_pos_site_id
 _symmetry_equiv_pos_as_xyz
  1  'x, y, z'
loop_
 _atom_site_type_symbol
 _atom_site_label
 _atom_site_symmetry_multiplicity
 _atom_site_fract_x
 _atom_site_fract_y
 _atom_site_fract_z
 _atom_site_occupancy
 _atom_site_pbe_bader_charge
 _atom_site_pbe_bader_spin_density
 _atom_site_pbe_cm5_charge
 _atom_site_pbe_ddec_charge
 _atom_site_pbe_ddec_spin_density
 _atom_site_pbe_ddec_sum_bond_order
 _atom_site_pbe_magmom
Zn  Zn0  1  0.42772161  0.40508879  0.44920607  1  1.317335  0  0.675345  0.9608  0  2.390483  0
Zn  Zn1  1  0.59395778  0.41494463  0.57062327  1  1.322378  0  0.676835  0.974273  0  2.353536  0
Zn  Zn2  1  0.40249933  0.56958954  0.57283212  1  1.313989  0  0.674321  0.968785  0  2.344459  0
Zn  Zn3  1  0.58121917  0.60263305  0.41141805  1  1.316494  0  0.673949  0.968314  0  2.348521  0
H  H4  1  0.56397516  0.58317477  0.97634216  1  0.134634  0  0.126898  0.143613  0  0.946637  0
H  H5  1  0.44585042  0.91990760  0.39521573  1  0.129095  0  0.120351  0.149305  0  0.988025  0
H  H6  1  0.91407993  0.42840513  0.53628004  1  0.093983  0  0.113625  0.112404  0  0.97569  0
H  H7  1  0.08309444  0.60647736  0.50079006  1  0.097646  0  0.115052  0.114605  0  0.966886  0
H  H8  1  0.90568962  0.65802012  0.45389398  1  0.064988  0  0.11445  0.13574  0  0.977169  0
H  H9  1  0.08855112  0.36897697  0.54222674  1  0.071033  0  0.115433  0.13286  0  0.974559  0
H  H10  1  0.49092495  0.90113526  0.58070890  1  0.081324  0  0.113965  0.117169  0  0.974336  0
H  H11  1  0.56490418  0.06862151  0.59896807  1  0.096452  0  0.115475  0.141075  0  0.975321  0
H  H12  1  0.33978330  0.14568394  0.46692097  1  0.074492  0  0.1065  0.04484  0  0.950799  0
C  C13  1  0.77138540  0.55092603  0.47989382  1  1.543623  0  0.219525  0.644993  0  4.172501  0
C  C14  1  0.47226943  0.94024552  0.51889416  1  -0.085981  0  -0.069239  -0.075947  0  3.959243  0
C  C15  1  0.52145879  0.10693880  0.55018117  1  0.009047  0  -0.083865  -0.274098  0  3.841478  0
C  C16  1  0.22868435  0.46402152  0.52823809  1  1.539284  0  0.221252  0.646894  0  4.169964  0
C  C17  1  0.47061239  0.05226016  0.50469034  1  0.025864  0  0.010686  0.08971  0  3.9556  0
C  C18  1  0.52545538  0.22036329  0.53328347  1  1.474782  0  0.221472  0.643342  0  4.179356  0
C  C19  1  0.46913717  0.77072257  0.47455254  1  1.555613  0  0.222658  0.646195  0  4.170388  0
C  C20  1  0.48342348  0.47403669  0.72867472  1  1.689146  0  0.234691  0.674119  0  4.238836  0
C  C21  1  0.51105780  0.51119350  0.27559677  1  1.63855  0  0.232038  0.676971  0  4.23049  0
C  C22  1  0.47612502  0.46441582  0.82042846  1  0.068762  0  -0.021927  -0.144055  0  3.875956  0
C  C23  1  0.46714757  0.45246321  0.98608341  1  -0.125524  0  -0.023431  0.081731  0  4.017202  0
C  C24  1  0.51528138  0.51673764  0.10883380  1  -0.442593  0  -0.026146  0.030319  0  4.165587  0
C  C25  1  0.51782967  0.52084797  0.02102100  1  0.138184  0  -0.076447  -0.110766  0  4.057093  0
C  C26  1  0.40701792  0.10487158  0.43943516  1  0.989467  0  0.110021  0.295477  0  3.937165  0
C  C27  1  0.47168575  0.45871479  0.89773761  1  -0.25078  0  -0.02275  -0.013252  0  4.133597  0
C  C28  1  0.51473763  0.51536093  0.18521195  1  0.189138  0  -0.034879  -0.184899  0  3.926637  0
C  C29  1  0.11655385  0.44901035  0.53193622  1  -0.043036  0  -0.080706  -0.215473  0  3.869924  0
C  C30  1  0.05231119  0.52693928  0.51517574  1  -0.014171  0  -0.066805  -0.028801  0  3.994586  0
C  C31  1  0.88020266  0.57842615  0.48139254  1  -0.014714  0  -0.08839  -0.235207  0  3.877329  0
C  C32  1  0.94499174  0.50736809  0.51256378  1  0.003469  0  -0.066115  -0.018251  0  4.000772  0
C  C33  1  0.45772565  0.88363339  0.45962628  1  0.009009  0  -0.076841  -0.199884  0  3.849471  0
I  I34  1  0.37691333  0.32769081  0.06305337  1  0.189337  0  0.115247  0.028175  0  1.254831  0
O  O35  1  0.50224707  0.49792332  0.50240072  1  -1.231731  0  -0.574846  -1.038422  0  2.546793  0
O  O36  1  0.56335885  0.43782233  0.69063851  1  -1.149039  0  -0.304053  -0.532519  0  2.265339  0
O  O37  1  0.57727178  0.56800847  0.29789412  1  -1.146865  0  -0.310343  -0.538543  0  2.26645  0
O  O38  1  0.40917719  0.51831265  0.69564399  1  -1.151751  0  -0.305067  -0.532237  0  2.258809  0
O  O39  1  0.44122230  0.45045091  0.32492313  1  -1.140134  0  -0.310814  -0.536377  0  2.272764  0
O  O40  1  0.42146799  0.09650865  0.36406724  1  -1.077645  0  -0.261266  -0.351296  0  2.105254  0
O  O41  1  0.48105529  0.26541527  0.47137756  1  -1.154553  0  -0.301704  -0.541646  0  2.35372  0
O  O42  1  0.51065406  0.73468089  0.40934178  1  -1.160546  0  -0.314326  -0.543683  0  2.271607  0
O  O43  1  0.73584765  0.46217269  0.52116824  1  -1.182092  0  -0.322948  -0.563549  0  2.318195  0
O  O44  1  0.26301351  0.54682309  0.54628033  1  -1.159521  0  -0.31545  -0.549303  0  2.276279  0
O  O45  1  0.72147979  0.61924618  0.43659560  1  -1.167447  0  -0.316938  -0.545347  0  2.267541  0
O  O46  1  0.28291757  0.39038208  0.50596631  1  -1.162465  0  -0.323094  -0.558848  0  2.279063  0
O  O47  1  0.57333980  0.26508221  0.58073666  1  -1.147231  0  -0.313624  -0.537784  0  2.268355  0
O  O48  1  0.43729644  0.71860986  0.54982329  1  -1.1693  0  -0.317775  -0.551523  0  2.277301  0
