# generated using pymatgen
data_CuH12C19NO4
_symmetry_space_group_name_H-M   'P 1'
_cell_length_a   13.95119633
_cell_length_b   15.22293073
_cell_length_c   15.19318962
_cell_angle_alpha   81.85581937
_cell_angle_beta   86.65736774
_cell_angle_gamma   87.22144460
_symmetry_Int_Tables_number   1
_chemical_formula_structural   CuH12C19NO4
_chemical_formula_sum   'Cu4 H48 C76 N4 O16'
_cell_volume   3186.08280794
_cell_formula_units_Z   4
loop_
 _symmetry_equiv_pos_site_id
 _symmetry_equiv_pos_as_xyz
  1  'x, y, z'
loop_
 _atom_site_type_symbol
 _atom_site_label
 _atom_site_symmetry_multiplicity
 _atom_site_fract_x
 _atom_site_fract_y
 _atom_site_fract_z
 _atom_site_occupancy
 _atom_site_pbe_bader_charge
 _atom_site_pbe_bader_spin_density
 _atom_site_pbe_cm5_charge
 _atom_site_pbe_ddec_charge
 _atom_site_pbe_ddec_spin_density
 _atom_site_pbe_ddec_sum_bond_order
 _atom_site_pbe_magmom
Cu  Cu0  1  0.79827064  0.16519505  0.37808805  1  1.076988  0.586364  0.688545  0.768519  0.740894  2.412947  0.587
Cu  Cu1  1  0.61483767  0.17058443  0.38695246  1  1.081346  0.584904  0.685846  0.765528  0.739511  2.375513  0.586
Cu  Cu2  1  0.20172916  0.83480470  0.62191207  1  1.076978  0.586361  0.688551  0.76852  0.740891  2.412931  0.587
Cu  Cu3  1  0.38516213  0.82941532  0.61304766  1  1.081323  0.584902  0.685842  0.765504  0.739509  2.375513  0.586
H  H4  1  0.86092776  0.15749381  0.65138374  1  0.102902  0.000353  0.104501  0.112067  0.000278  0.995659  0.0
H  H5  1  0.86192078  0.16314757  0.81418058  1  0.044834  0.000245  0.100934  0.099763  0.000122  1.006983  0.0
H  H6  1  0.55366606  0.14578727  0.83471225  1  0.038039  0.000257  0.10467  0.105324  0.000128  0.997483  0.0
H  H7  1  0.55390221  0.14080442  0.67249088  1  0.055646  0.000322  0.102879  0.104417  0.000242  1.038493  0.0
H  H8  1  0.84074474  0.08450258  0.95240047  1  0.060034  0.000288  0.10053  0.099239  0.00015  1.006749  0.0
H  H9  1  0.84332603  0.09955037  0.11326183  1  0.087332  0.000406  0.105635  0.112709  0.000312  0.993287  0.0
H  H10  1  0.57698940  0.25292977  0.09734684  1  0.098934  0.000392  0.107209  0.114162  0.000292  0.988374  0.0
H  H11  1  0.57661701  0.24353715  0.93503588  1  0.076216  0.000293  0.101878  0.100714  0.000153  1.00428  0.0
H  H12  1  0.55588146  0.89566008  0.40717932  1  0.085786  0.000294  0.105606  0.109569  0.00026  1.023214  0.0
H  H13  1  0.55276104  0.73397055  0.40556535  1  0.073792  0.000186  0.104458  0.106494  7.5e-05  1.005779  0.0
H  H14  1  0.86254550  0.72073432  0.37510172  1  0.041319  0.000255  0.101783  0.101875  0.00012  1.003402  0.0
H  H15  1  0.86389983  0.88402520  0.37278229  1  0.0917  0.000277  0.10548  0.110053  0.000199  0.997188  0.0
H  H16  1  0.58172142  0.59915258  0.47925618  1  0.05518  0.000284  0.099441  0.096366  0.000147  1.029378  0.0
H  H17  1  0.57656449  0.43722982  0.47216029  1  0.093052  0.000391  0.101646  0.104107  0.000285  1.01765  0.0
H  H18  1  0.82838419  0.45084154  0.29525690  1  0.078884  0.000386  0.105634  0.110082  0.000285  0.995555  0.0
H  H19  1  0.83026694  0.61383396  0.29631054  1  0.067344  0.000298  0.101602  0.100061  0.000155  1.00706  0.0
H  H20  1  0.44756934  0.30838858  0.37089842  1  0.093813  -7.3e-05  0.117859  0.091379  -5.8e-05  0.991474  0.0
H  H21  1  0.26823969  0.31569604  0.36384094  1  0.084485  -2.3e-05  0.110338  0.116296  -1.6e-05  0.992139  0.0
H  H22  1  0.28193596  0.02935840  0.38267052  1  0.086721  -3.4e-05  0.106492  0.114178  -3.6e-05  1.022864  0.0
H  H23  1  0.45980547  0.03460012  0.39016361  1  0.157394  -3.8e-05  0.119008  0.096861  -1.1e-05  1.00425  0.0
H  H24  1  0.13739211  0.28333802  0.26666811  1  0.066757  -1.7e-05  0.109902  0.1159  -1.2e-05  0.993183  0.0
H  H25  1  0.95784737  0.27536972  0.27217779  1  0.118195  -5.3e-05  0.121995  0.095136  -6e-05  0.974424  0.0
H  H26  1  0.96103061  0.06469306  0.47532712  1  0.106706  -8.3e-05  0.116215  0.083973  -9.9e-05  1.014513  0.0
H  H27  1  0.14081288  0.05985482  0.47723592  1  0.124102  0.000104  0.106176  0.119928  0.000167  1.045952  0.0
H  H28  1  0.13907129  0.84250661  0.34861698  1  0.1029  0.000353  0.104479  0.112038  0.000278  0.995678  0.0
H  H29  1  0.13807827  0.83685285  0.18582014  1  0.044837  0.000245  0.100937  0.099772  0.000122  1.006961  0.0
H  H30  1  0.44633373  0.85421249  0.16528853  1  0.038048  0.000257  0.104661  0.105337  0.000128  0.99747  0.0
H  H31  1  0.44609761  0.85919467  0.32750999  1  0.055634  0.000322  0.102871  0.10439  0.000242  1.038522  0.0
H  H32  1  0.15925506  0.91549718  0.04759965  1  0.060046  0.000288  0.100506  0.099167  0.00015  1.006776  0.0
H  H33  1  0.15667374  0.90045005  0.88673886  1  0.087333  0.000406  0.105639  0.11271  0.000312  0.993276  0.0
H  H34  1  0.42301036  0.74707065  0.90265385  1  0.098945  0.000392  0.107198  0.114161  0.000292  0.9884  0.0
H  H35  1  0.42338353  0.75646194  0.06496495  1  0.076204  0.000293  0.101878  0.100742  0.000153  1.004232  0.0
H  H36  1  0.44411981  0.10433902  0.59282017  1  0.085782  0.000294  0.105602  0.109545  0.00026  1.023193  0.0
H  H37  1  0.44724017  0.26602987  0.59443461  1  0.073769  0.000186  0.10448  0.106578  7.5e-05  1.005729  0.0
H  H38  1  0.13745355  0.27926610  0.62489900  1  0.041307  0.000255  0.101762  0.101837  0.00012  1.003381  0.0
H  H39  1  0.13610063  0.11597588  0.62721762  1  0.091719  0.000276  0.10548  0.110036  0.000199  0.997214  0.0
H  H40  1  0.41827833  0.40084851  0.52074244  1  0.05496  0.000284  0.099467  0.09639  0.000147  1.029371  0.0
H  H41  1  0.42343528  0.56277060  0.52784040  1  0.093017  0.000392  0.101642  0.104102  0.000285  1.017696  0.0
H  H42  1  0.17161775  0.54915821  0.70474509  1  0.078894  0.000386  0.105637  0.110123  0.000285  0.995515  0.0
H  H43  1  0.16973427  0.38616646  0.70368876  1  0.067241  0.000299  0.10161  0.100073  0.000155  1.007077  0.0
H  H44  1  0.55242904  0.69161051  0.62910384  1  0.093787  -7.3e-05  0.117858  0.091383  -5.8e-05  0.991466  0.0
H  H45  1  0.73175939  0.68430371  0.63616053  1  0.084484  -2.3e-05  0.110347  0.116315  -1.6e-05  0.992147  0.0
H  H46  1  0.71806384  0.97064136  0.61732895  1  0.086726  -3.4e-05  0.106496  0.114183  -3.6e-05  1.022877  0.0
H  H47  1  0.54019362  0.96539963  0.60983654  1  0.157386  -3.8e-05  0.119015  0.09686  -1.1e-05  1.004248  0.0
H  H48  1  0.86260841  0.71666174  0.73333131  1  0.066764  -1.7e-05  0.109884  0.115883  -1.2e-05  0.993201  0.0
H  H49  1  0.04215238  0.72463136  0.72782150  1  0.118201  -5.3e-05  0.121995  0.095111  -6e-05  0.974479  0.0
H  H50  1  0.03896777  0.93530670  0.52467044  1  0.106629  -8.3e-05  0.116188  0.083941  -9.9e-05  1.014525  0.0
H  H51  1  0.85918552  0.94014427  0.52276436  1  0.124109  0.000104  0.106177  0.119916  0.000167  1.045963  0.0
C  C52  1  0.70671511  0.15174066  0.55301613  1  1.551381  -0.001376  0.20694  0.564837  -0.00163  4.183872  -0.004
C  C53  1  0.70734137  0.14948594  0.65159748  1  -0.053273  0.015268  -0.022845  -0.03989  0.010653  3.982329  0.012
C  C54  1  0.79414779  0.15430899  0.69246509  1  -0.068505  0.000945  -0.085715  -0.088973  0.000489  3.990086  0.001
C  C55  1  0.79423028  0.15716620  0.78347058  1  -0.001795  0.000719  -0.092212  -0.137272  0.000401  3.994033  0.001
C  C56  1  0.70781044  0.15601116  0.83622200  1  -0.034  -0.000555  -0.002167  0.075524  -0.000661  4.003068  0.0
C  C57  1  0.62132527  0.14928794  0.79488118  1  0.02113  0.000612  -0.088649  -0.130135  0.000337  3.975332  0.0
C  C58  1  0.62113427  0.14577792  0.70393179  1  -0.041691  0.000977  -0.083707  -0.085881  0.00051  3.978115  0.001
C  C59  1  0.70839270  0.16292418  0.93207156  1  0.03362  -0.001046  -0.004999  0.070862  -0.001198  4.009606  -0.001
C  C60  1  0.78378035  0.12322292  0.98334306  1  -0.10608  0.000804  -0.092891  -0.138832  0.000428  4.000367  0.001
C  C61  1  0.78522188  0.13063560  0.07338051  1  0.009122  0.000644  -0.085035  -0.088987  0.000252  3.987529  0.001
C  C62  1  0.71034257  0.17688021  0.11500242  1  -0.017975  0.016127  -0.017061  -0.025037  0.011396  3.962949  0.013
C  C63  1  0.63470877  0.21660876  0.06471334  1  -0.047499  0.000551  -0.082672  -0.086812  0.00013  3.981283  0.0
C  C64  1  0.63424729  0.21023521  0.97426715  1  -0.063028  0.000928  -0.090345  -0.135607  0.000519  3.989448  0.001
C  C65  1  0.71048562  0.18056424  0.21275085  1  1.526309  -0.001134  0.210313  0.575638  -0.001632  4.164266  -0.004
C  C66  1  0.71041885  0.99845902  0.38776082  1  1.536024  -0.001126  0.21216  0.571608  -0.001533  4.172686  -0.004
C  C67  1  0.70991770  0.90043407  0.38834752  1  -0.036404  0.014736  -0.019742  -0.034679  0.010406  3.972652  0.012
C  C68  1  0.62275561  0.85722675  0.39840336  1  -0.016135  0.001828  -0.081446  -0.083108  0.00117  3.969743  0.001
C  C69  1  0.62157356  0.76599880  0.39872792  1  -0.025289  0.000415  -0.088897  -0.131437  0.000184  3.970334  0.0
C  C70  1  0.70754555  0.71517495  0.38904250  1  0.049782  0.00066  -0.005103  0.070112  0.000392  4.005349  0.0
C  C71  1  0.79481914  0.75905266  0.38012063  1  -0.110265  0.000435  -0.092748  -0.138051  0.000192  3.988576  0.0
C  C72  1  0.79613972  0.85040987  0.37963832  1  -0.029038  0.001881  -0.086536  -0.091792  0.001171  3.995943  0.001
C  C73  1  0.70598726  0.61856040  0.38780105  1  -0.038334  -0.000984  -0.005358  0.071507  -0.001143  4.004371  -0.001
C  C74  1  0.63461655  0.56732823  0.43701142  1  -0.060517  0.000971  -0.092019  -0.136496  0.000543  3.984902  0.001
C  C75  1  0.63183267  0.47661657  0.43377532  1  -0.049319  0.000582  -0.086354  -0.091405  0.000191  3.987567  0.0
C  C76  1  0.70173054  0.43417308  0.38267373  1  -0.067724  0.015749  -0.016504  -0.024575  0.010993  3.963153  0.012
C  C77  1  0.77411552  0.48426590  0.33468981  1  -0.024391  0.000633  -0.083461  -0.085723  0.000233  3.986728  0.001
C  C78  1  0.77552342  0.57520709  0.33647928  1  0.002662  0.001034  -0.091034  -0.134881  0.000589  3.99268  0.001
C  C79  1  0.70096963  0.33648406  0.38007165  1  1.55747  -0.00118  0.213423  0.580207  -0.00148  4.159893  -0.004
C  C80  1  0.40737633  0.24829029  0.37285668  1  0.549493  -0.000643  0.04968  0.101221  -0.000756  3.961217  0.0
C  C81  1  0.30796711  0.25190266  0.36806222  1  -0.054751  0.000165  -0.08237  -0.178188  9.8e-05  3.956833  0.0
C  C82  1  0.25982268  0.17250039  0.37262876  1  -0.050504  -0.000647  0.012341  0.102487  -0.000716  3.989536  0.0
C  C83  1  0.31538245  0.09284153  0.38041892  1  -0.011138  0.000183  -0.079185  -0.163425  9.7e-05  3.92693  0.0
C  C84  1  0.41446331  0.09532319  0.38416957  1  0.441256  -0.000569  0.052683  0.108891  -0.000672  3.927059  0.0
C  C85  1  0.15420445  0.17173150  0.37162379  1  0.008603  -0.000681  0.012526  0.108635  -0.00076  3.98284  0.0
C  C86  1  0.10128963  0.23355509  0.31416996  1  -0.039125  0.000294  -0.082544  -0.181586  0.000183  3.954031  0.0
C  C87  1  0.00165689  0.22938643  0.31662226  1  0.456747  -0.000805  0.051752  0.104089  -0.000904  3.958429  -0.001
C  C88  1  0.00367929  0.11069749  0.42918692  1  0.495206  -0.000774  0.046781  0.099848  -0.000873  3.954055  0.0
C  C89  1  0.10334441  0.10841327  0.42996300  1  -0.047333  0.000547  -0.083023  -0.179894  0.000342  3.93481  0.0
C  C90  1  0.29328472  0.84825844  0.44698409  1  1.551382  -0.001376  0.206918  0.564768  -0.00163  4.18396  -0.004
C  C91  1  0.29265771  0.85051381  0.34840268  1  -0.053422  0.015268  -0.022831  -0.039812  0.010653  3.982324  0.012
C  C92  1  0.20585274  0.84569077  0.30753434  1  -0.068369  0.000945  -0.085702  -0.088994  0.000489  3.990249  0.001
C  C93  1  0.20576949  0.84283422  0.21653011  1  -0.001535  0.000719  -0.09215  -0.137231  0.000401  3.994111  0.001
C  C94  1  0.29218867  0.84398794  0.16377825  1  -0.034278  -0.000555  -0.00218  0.075581  -0.000661  4.003079  0.0
C  C95  1  0.37867456  0.85071115  0.20511903  1  0.021151  0.000612  -0.088734  -0.130281  0.000337  3.975194  0.0
C  C96  1  0.37886624  0.85422184  0.29606896  1  -0.041679  0.000977  -0.083634  -0.085781  0.00051  3.977939  0.001
C  C97  1  0.29160710  0.83707558  0.06792922  1  0.033601  -0.001046  -0.004981  0.070851  -0.001199  4.009769  -0.001
C  C98  1  0.21622092  0.87677617  0.01665708  1  -0.106077  0.000804  -0.092893  -0.138793  0.000428  4.000495  0.001
C  C99  1  0.21477716  0.86936482  0.92662087  1  0.009112  0.000644  -0.085013  -0.088935  0.000252  3.987445  0.001
C  C100  1  0.28965726  0.82311888  0.88499714  1  -0.017775  0.016127  -0.01707  -0.025042  0.011397  3.962908  0.013
C  C101  1  0.36529103  0.78339099  0.93528744  1  -0.047689  0.000551  -0.082667  -0.086784  0.000129  3.98134  0.0
C  C102  1  0.36575255  0.78976388  0.02573241  1  -0.063023  0.000928  -0.090363  -0.135685  0.000519  3.989517  0.001
C  C103  1  0.28951346  0.81943552  0.78724930  1  1.52629  -0.001134  0.210248  0.575492  -0.001631  4.164306  -0.004
C  C104  1  0.28958020  0.00154139  0.61223991  1  1.53597  -0.001126  0.21221  0.57175  -0.001533  4.172492  -0.004
C  C105  1  0.29008347  0.09956702  0.61165366  1  -0.036403  0.014736  -0.019721  -0.034654  0.010406  3.972567  0.012
C  C106  1  0.37724412  0.14277433  0.60159723  1  -0.016151  0.001828  -0.081459  -0.083125  0.00117  3.969769  0.001
C  C107  1  0.37842768  0.23400096  0.60127148  1  -0.025304  0.000415  -0.088902  -0.131517  0.000184  3.970359  0.0
C  C108  1  0.29245425  0.28482481  0.61095630  1  0.04979  0.00066  -0.005093  0.070116  0.000392  4.005261  0.0
C  C109  1  0.20518279  0.24094776  0.61987864  1  -0.110245  0.000435  -0.092722  -0.137981  0.000192  3.988517  0.0
C  C110  1  0.20386076  0.14959055  0.62036234  1  -0.029036  0.001881  -0.086562  -0.091816  0.001171  3.995908  0.001
C  C111  1  0.29401464  0.38144069  0.61219747  1  -0.038323  -0.000984  -0.005351  0.07154  -0.001143  4.004302  -0.001
C  C112  1  0.36538322  0.43267220  0.56298795  1  -0.060324  0.000971  -0.092051  -0.136555  0.000543  3.984872  0.001
C  C113  1  0.36816923  0.52338452  0.56622451  1  -0.049302  0.000581  -0.08636  -0.091427  0.000191  3.987479  0.0
C  C114  1  0.29826925  0.56582668  0.61732837  1  -0.067784  0.015752  -0.016499  -0.024449  0.010994  3.963094  0.012
C  C115  1  0.22588572  0.51573386  0.66531024  1  -0.024475  0.000633  -0.083475  -0.085835  0.000233  3.986861  0.001
C  C116  1  0.22447704  0.42479400  0.66351997  1  0.002799  0.001034  -0.091046  -0.134899  0.000589  3.992768  0.001
C  C117  1  0.29903295  0.66351769  0.61992937  1  1.557565  -0.001181  0.213351  0.580076  -0.00148  4.159946  -0.004
C  C118  1  0.59262269  0.75171080  0.62714395  1  0.549567  -0.000642  0.04967  0.101201  -0.000756  3.961285  0.0
C  C119  1  0.69203200  0.74809644  0.63193868  1  -0.054733  0.000165  -0.082377  -0.178202  9.8e-05  3.956808  0.0
C  C120  1  0.74017715  0.82749871  0.62737145  1  -0.050524  -0.000646  0.01237  0.102477  -0.000716  3.989481  0.0
C  C121  1  0.68461735  0.90715823  0.61958120  1  -0.011111  0.000183  -0.07921  -0.163444  9.7e-05  3.92685  0.0
C  C122  1  0.58553577  0.90467656  0.61583124  1  0.441261  -0.000569  0.052686  0.108929  -0.000672  3.92709  0.0
C  C123  1  0.84579466  0.82826759  0.62837514  1  0.008614  -0.000681  0.012533  0.108639  -0.00076  3.982876  0.0
C  C124  1  0.89871092  0.76644401  0.68583022  1  -0.039112  0.000294  -0.082516  -0.181558  0.000183  3.953953  0.0
C  C125  1  0.99834438  0.77061266  0.68337722  1  0.45672  -0.000805  0.05169  0.104053  -0.000904  3.958359  -0.001
C  C126  1  0.99632117  0.88930360  0.57081233  1  0.495215  -0.000774  0.046823  0.099893  -0.000873  3.953975  0.0
C  C127  1  0.89665393  0.89158715  0.57003710  1  -0.047345  0.000548  -0.082996  -0.179847  0.000342  3.934727  0.0
N  N128  1  0.46003664  0.17156892  0.38114898  1  -1.221565  -0.000538  -0.33288  -0.237341  1e-05  3.507874  0.001
N  N129  1  0.95335492  0.16932891  0.37337543  1  -1.199116  -0.000882  -0.333241  -0.230196  -0.000219  3.507597  0.001
N  N130  1  0.53996315  0.82843084  0.61885180  1  -1.22166  -0.000538  -0.332886  -0.237354  1e-05  3.508065  0.001
N  N131  1  0.04664493  0.83067019  0.62662149  1  -1.199084  -0.000881  -0.333232  -0.230186  -0.000218  3.507516  0.001
O  O132  1  0.78647615  0.16698674  0.50901783  1  -1.107169  0.093345  -0.317405  -0.523911  0.058782  2.363622  0.085
O  O133  1  0.62709870  0.13931165  0.52007630  1  -1.115662  0.090757  -0.313385  -0.523129  0.057161  2.338242  0.082
O  O134  1  0.79030928  0.15975296  0.24947497  1  -1.096178  0.105565  -0.318641  -0.521429  0.0665  2.345587  0.095
O  O135  1  0.63173854  0.20204917  0.25243717  1  -1.111392  0.093287  -0.31391  -0.519956  0.058688  2.313394  0.084
O  O136  1  0.63093925  0.04207178  0.37386800  1  -1.107217  0.094586  -0.309663  -0.516624  0.059623  2.373509  0.086
O  O137  1  0.78986572  0.03157885  0.40118926  1  -1.115805  0.091666  -0.31345  -0.527924  0.057964  2.358047  0.083
O  O138  1  0.62165464  0.29827083  0.40206902  1  -1.108151  0.099371  -0.314925  -0.521773  0.062846  2.339814  0.09
O  O139  1  0.77987478  0.29856911  0.35663196  1  -1.109909  0.090695  -0.312739  -0.525212  0.05722  2.348356  0.082
O  O140  1  0.21352365  0.83301302  0.49098229  1  -1.107179  0.093349  -0.3174  -0.523892  0.058784  2.363664  0.085
O  O141  1  0.37290110  0.86068811  0.47992383  1  -1.115653  0.090756  -0.313378  -0.523112  0.05716  2.338266  0.082
O  O142  1  0.20968980  0.84024679  0.75052650  1  -1.096188  0.105563  -0.318609  -0.521357  0.066499  2.345546  0.095
O  O143  1  0.36826051  0.79795125  0.74756355  1  -1.111342  0.093288  -0.313885  -0.519894  0.058689  2.313375  0.084
O  O144  1  0.36906126  0.95792798  0.62613209  1  -1.107137  0.094597  -0.309672  -0.516696  0.05963  2.373407  0.086
O  O145  1  0.21013474  0.96842224  0.59881064  1  -1.115798  0.091658  -0.313491  -0.527976  0.057959  2.358004  0.083
O  O146  1  0.37834587  0.70172893  0.59793172  1  -1.108155  0.09936  -0.314854  -0.521659  0.062839  2.339797  0.09
O  O147  1  0.22012717  0.70143064  0.64336937  1  -1.109878  0.090703  -0.312735  -0.525212  0.057225  2.348425  0.082
