# generated using pymatgen
data_CuH9C9SIN2
_symmetry_space_group_name_H-M   'P 1'
_cell_length_a   8.56463123
_cell_length_b   9.93579324
_cell_length_c   12.14834379
_cell_angle_alpha   91.69305069
_cell_angle_beta   89.99948447
_cell_angle_gamma   89.99940771
_symmetry_Int_Tables_number   1
_chemical_formula_structural   CuH9C9SIN2
_chemical_formula_sum   'Cu4 H36 C36 S4 I4 N8'
_cell_volume   1033.32908771
_cell_formula_units_Z   4
loop_
 _symmetry_equiv_pos_site_id
 _symmetry_equiv_pos_as_xyz
  1  'x, y, z'
loop_
 _atom_site_type_symbol
 _atom_site_label
 _atom_site_symmetry_multiplicity
 _atom_site_fract_x
 _atom_site_fract_y
 _atom_site_fract_z
 _atom_site_occupancy
 _atom_site_pbe_bader_spin_density
 _atom_site_pbe_cm5_charge
 _atom_site_pbe_ddec_charge
 _atom_site_pbe_ddec_spin_density
 _atom_site_pbe_ddec_sum_bond_order
 _atom_site_pbe_magmom
Cu  Cu0  1  0.11630595  0.40598139  0.03065213  1  0  0.35392  0.213874  0  2.584649  0
Cu  Cu1  1  0.38369125  0.90598924  0.53065701  1  0  0.35388  0.213839  0  2.584549  0
Cu  Cu2  1  0.88369076  0.59400899  0.96934656  1  0  0.353855  0.21384  0  2.584555  0
Cu  Cu3  1  0.61630312  0.09401624  0.46934366  1  0  0.353937  0.213892  0  2.584672  0
H  H4  1  0.85540093  0.21962270  0.98933276  1  0  0.09624  0.062632  0  1.064536  0
H  H5  1  0.64459937  0.71963225  0.48932889  1  0  0.096203  0.062547  0  1.064633  0
H  H6  1  0.14459227  0.78037071  0.01067094  1  0  0.096243  0.062579  0  1.064583  0
H  H7  1  0.35539617  0.28038026  0.51066453  1  0  0.096259  0.06263  0  1.064508  0
H  H8  1  0.74114406  0.01360053  0.06743111  1  0  0.092021  0.094902  0  1.074285  0
H  H9  1  0.75886654  0.51361250  0.56742204  1  0  0.092003  0.094862  0  1.074351  0
H  H10  1  0.25884681  0.98640096  0.93258018  1  0  0.092063  0.094933  0  1.074281  0
H  H11  1  0.24115002  0.48640908  0.43257241  1  0  0.092024  0.09492  0  1.074332  0
H  H12  1  0.89385314  0.89206484  0.21261611  1  0  0.091367  0.093363  0  1.032362  0
H  H13  1  0.60617089  0.39207164  0.71261037  1  0  0.091366  0.09345  0  1.032275  0
H  H14  1  0.10614006  0.10793362  0.78739018  1  0  0.091373  0.093358  0  1.032374  0
H  H15  1  0.39385851  0.60794592  0.28738728  1  0  0.091362  0.093366  0  1.032357  0
H  H16  1  0.15740138  0.98459674  0.26706425  1  0  0.092329  0.111095  0  1.037128  0
H  H17  1  0.34261748  0.48459434  0.76706260  1  0  0.09233  0.111076  0  1.037238  0
H  H18  1  0.84259533  0.01539968  0.73293541  1  0  0.092358  0.111171  0  1.037043  0
H  H19  1  0.65740841  0.51540813  0.23293884  1  0  0.092333  0.111121  0  1.037154  0
H  H20  1  0.69823785  0.68381207  0.81207846  1  0  0.093589  0.114813  0  1.042717  0
H  H21  1  0.80176285  0.18382267  0.31207613  1  0  0.093616  0.11487  0  1.042711  0
H  H22  1  0.30175886  0.31617931  0.18791861  1  0  0.093596  0.114818  0  1.042718  0
H  H23  1  0.19824670  0.81618182  0.68792700  1  0  0.093624  0.114863  0  1.042643  0
H  H24  1  0.66498099  0.82737177  0.73007747  1  0  0.095891  0.129094  0  1.016335  0
H  H25  1  0.83502024  0.32738410  0.23008073  1  0  0.095875  0.129022  0  1.016426  0
H  H26  1  0.33501339  0.17262061  0.26992044  1  0  0.095881  0.129038  0  1.016366  0
H  H27  1  0.16499282  0.67261534  0.76991816  1  0  0.095903  0.129059  0  1.016421  0
H  H28  1  0.28759395  0.21634539  0.94506416  1  0  0.094016  0.118063  0  1.036339  0
H  H29  1  0.21241528  0.71635937  0.44506573  1  0  0.094015  0.118112  0  1.036224  0
H  H30  1  0.71240742  0.78364398  0.05493534  1  0  0.093999  0.118043  0  1.036222  0
H  H31  1  0.78757793  0.28364812  0.55493088  1  0  0.093986  0.118068  0  1.036223  0
H  H32  1  0.48323861  0.17262940  0.90768404  1  0  0.090181  0.125924  0  1.02539  0
H  H33  1  0.01677397  0.67264014  0.40768510  1  0  0.090095  0.125759  0  1.025568  0
H  H34  1  0.51675460  0.82735997  0.09231711  1  0  0.09015  0.125857  0  1.025449  0
H  H35  1  0.98321807  0.32736436  0.59232131  1  0  0.090089  0.125777  0  1.025526  0
H  H36  1  0.69555014  0.34273213  0.93143999  1  0  0.103418  0.087603  0  1.052182  0
H  H37  1  0.80445645  0.84274021  0.43143509  1  0  0.103427  0.087591  0  1.052247  0
H  H38  1  0.30444657  0.65725320  0.06855613  1  0  0.103387  0.087576  0  1.0523  0
H  H39  1  0.19553909  0.15726527  0.56856394  1  0  0.103433  0.087608  0  1.052275  0
C  C40  1  0.91598439  0.16595852  0.05348361  1  0  0.031704  0.088994  0  3.955062  0
C  C41  1  0.58401873  0.66596405  0.55347878  1  0  0.031657  0.08905  0  3.955224  0
C  C42  1  0.08400648  0.83403591  0.94652176  1  0  0.031737  0.089211  0  3.955014  0
C  C43  1  0.41598615  0.33404545  0.44651705  1  0  0.031706  0.089019  0  3.954979  0
C  C44  1  0.85402300  0.04989267  0.09662614  1  0  -0.092139  -0.130409  0  3.981789  0
C  C45  1  0.64598912  0.54990165  0.59661771  1  0  -0.091988  -0.130303  0  3.981706  0
C  C46  1  0.14596904  0.95010377  0.90338010  1  0  -0.092127  -0.130498  0  3.981885  0
C  C47  1  0.35402277  0.45011388  0.40337578  1  0  -0.092123  -0.130416  0  3.9816  0
C  C48  1  0.93879697  0.98350478  0.17667693  1  0  -0.076676  -0.020971  0  3.969715  0
C  C49  1  0.56121593  0.48350394  0.67667048  1  0  -0.076771  -0.021156  0  3.969666  0
C  C50  1  0.06119857  0.01649467  0.82332608  1  0  -0.076691  -0.020952  0  3.969688  0
C  C51  1  0.43880063  0.51650454  0.32332286  1  0  -0.076652  -0.021  0  3.969823  0
C  C52  1  0.08369498  0.03507743  0.20782283  1  0  -0.090978  -0.173586  0  3.920504  0
C  C53  1  0.41631718  0.53507691  0.70781991  1  0  -0.090988  -0.173609  0  3.920448  0
C  C54  1  0.91629940  0.96491899  0.79217847  1  0  -0.091098  -0.173827  0  3.92049  0
C  C55  1  0.58369587  0.46493058  0.29217752  1  0  -0.091045  -0.173639  0  3.920676  0
C  C56  1  0.13892521  0.15302458  0.16092959  1  0  0.11148  0.262139  0  3.940274  0
C  C57  1  0.36108031  0.65302556  0.66092705  1  0  0.11153  0.262211  0  3.940025  0
C  C58  1  0.86107383  0.84696781  0.83906915  1  0  0.11161  0.262335  0  3.940198  0
C  C59  1  0.63892691  0.34698091  0.33906788  1  0  0.111534  0.26216  0  3.940205  0
C  C60  1  0.29780020  0.20585260  0.18879095  1  0  -0.156512  -0.270262  0  3.909243  0
C  C61  1  0.20220082  0.70585404  0.68879106  1  0  -0.156579  -0.270358  0  3.909376  0
C  C62  1  0.70219183  0.79414080  0.81120781  1  0  -0.156561  -0.270429  0  3.909209  0
C  C63  1  0.79780523  0.29414842  0.31120791  1  0  -0.156547  -0.27033  0  3.909302  0
C  C64  1  0.41069069  0.22554392  0.96976433  1  0  -0.156672  -0.276975  0  3.93642  0
C  C65  1  0.08931928  0.72555499  0.46976330  1  0  -0.15665  -0.276868  0  3.936417  0
C  C66  1  0.58930602  0.77444445  0.03023762  1  0  -0.156655  -0.276907  0  3.936473  0
C  C67  1  0.91067743  0.27445050  0.53023985  1  0  -0.156551  -0.27667  0  3.93629  0
C  C68  1  0.45543189  0.36991829  0.98288243  1  0  0.109323  0.217646  0  3.944973  0
C  C69  1  0.04456918  0.86992877  0.48288332  1  0  0.109314  0.217639  0  3.94503  0
C  C70  1  0.54456598  0.63007310  0.01711711  1  0  0.109319  0.217616  0  3.945026  0
C  C71  1  0.95542636  0.13007773  0.51711820  1  0  0.109293  0.217553  0  3.945068  0
C  C72  1  0.39240311  0.58706143  0.03650312  1  0  0.039741  -0.006497  0  3.898037  0
C  C73  1  0.10758730  0.08706926  0.53651056  1  0  0.039677  -0.006625  0  3.898333  0
C  C74  1  0.60759243  0.41292693  0.96349389  1  0  0.039702  -0.006598  0  3.898097  0
C  C75  1  0.89240824  0.91293522  0.46349339  1  0  0.03967  -0.006659  0  3.898244  0
S  S76  1  0.44610184  0.13464354  0.09600803  1  0  -0.013115  0.017269  0  2.682449  0
S  S77  1  0.05390241  0.63465037  0.59600753  1  0  -0.01309  0.017301  0  2.682407  0
S  S78  1  0.55389136  0.86534986  0.90399155  1  0  -0.013121  0.017284  0  2.682332  0
S  S79  1  0.94610130  0.36535210  0.40399555  1  0  -0.013113  0.017202  0  2.682412  0
I  I80  1  0.00110807  0.59159251  0.17080427  1  0  -0.209986  -0.403493  0  1.850543  0
I  I81  1  0.49889105  0.09159472  0.67080422  1  0  -0.20998  -0.403477  0  1.850576  0
I  I82  1  0.99889214  0.40840391  0.82919456  1  0  -0.209973  -0.403465  0  1.850569  0
I  I83  1  0.50110216  0.90841177  0.32919566  1  0  -0.209991  -0.403506  0  1.85061  0
N  N84  1  0.05393974  0.22000602  0.08577242  1  0  -0.354716  -0.251148  0  3.567827  0
N  N85  1  0.44606596  0.72000723  0.58576935  1  0  -0.354671  -0.251119  0  3.567764  0
N  N86  1  0.94605814  0.77998940  0.91422804  1  0  -0.354791  -0.251281  0  3.567761  0
N  N87  1  0.55394242  0.27999421  0.41422547  1  0  -0.354773  -0.251179  0  3.567843  0
N  N88  1  0.34485145  0.45902797  0.01915789  1  0  -0.344367  -0.203912  0  3.586895  0
N  N89  1  0.15514176  0.95903792  0.51916423  1  0  -0.344324  -0.203858  0  3.587032  0
N  N90  1  0.65514176  0.54095938  0.98083910  1  0  -0.344318  -0.203862  0  3.586955  0
N  N91  1  0.84485028  0.04096656  0.48083807  1  0  -0.344303  -0.20379  0  3.586912  0
