# generated using pymatgen
data_CdH8C9(NCl)2
_symmetry_space_group_name_H-M   'P 1'
_cell_length_a   7.35226771
_cell_length_b   12.37642926
_cell_length_c   12.37633062
_cell_angle_alpha   80.74399015
_cell_angle_beta   81.38662368
_cell_angle_gamma   81.38882188
_symmetry_Int_Tables_number   1
_chemical_formula_structural   CdH8C9(NCl)2
_chemical_formula_sum   'Cd4 H32 C36 N8 Cl8'
_cell_volume   1089.83569269
_cell_formula_units_Z   4
loop_
 _symmetry_equiv_pos_site_id
 _symmetry_equiv_pos_as_xyz
  1  'x, y, z'
loop_
 _atom_site_type_symbol
 _atom_site_label
 _atom_site_symmetry_multiplicity
 _atom_site_fract_x
 _atom_site_fract_y
 _atom_site_fract_z
 _atom_site_occupancy
 _atom_site_hle17_bader_spin_density
 _atom_site_hle17_ddec_charge
 _atom_site_hle17_ddec_spin_density
 _atom_site_hle17_ddec_sum_bond_order
 _atom_site_hle17_magmom
 _atom_site_hse06_10hf_bader_spin_density
 _atom_site_hse06_10hf_ddec_charge
 _atom_site_hse06_10hf_ddec_spin_density
 _atom_site_hse06_10hf_ddec_sum_bond_order
 _atom_site_hse06_10hf_magmom
 _atom_site_hse06_bader_spin_density
 _atom_site_hse06_ddec_charge
 _atom_site_hse06_ddec_spin_density
 _atom_site_hse06_ddec_sum_bond_order
 _atom_site_hse06_magmom
 _atom_site_pbe_bader_spin_density
 _atom_site_pbe_cm5_charge
 _atom_site_pbe_ddec_charge
 _atom_site_pbe_ddec_spin_density
 _atom_site_pbe_ddec_sum_bond_order
 _atom_site_pbe_magmom
Cd  Cd0  1  0.45137418  0.73349035  0.34607417  1  0  0.957791  0  1.940866  0  0  0.788889  0  2.402242  0  0  0.833776  0  2.361925  0  0  0.600466  0.757151  0  2.429964  0
Cd  Cd1  1  0.04864419  0.65393331  0.26652377  1  0  0.957913  0  1.940767  0  0  0.788962  0  2.402214  0  0  0.833849  0  2.361891  0  0  0.600499  0.75722  0  2.429958  0
Cd  Cd2  1  0.54863006  0.26650991  0.65393750  1  0  0.957905  0  1.940728  0  0  0.788916  0  2.402174  0  0  0.833799  0  2.361861  0  0  0.600492  0.75718  0  2.429901  0
Cd  Cd3  1  0.95136300  0.34604969  0.73348213  1  0  0.957847  0  1.940851  0  0  0.788846  0  2.402301  0  0  0.833729  0  2.361988  0  0  0.600473  0.757108  0  2.430049  0
H  H4  1  0.57723306  0.61471531  0.55600345  1  0  0.304953  0  0.932484  0  0  0.29282  0  0.995152  0  0  0.299659  0  0.989618  0  0  0.264868  0.287906  0  0.999132  0
H  H5  1  0.92275993  0.44400154  0.38528285  1  0  0.305025  0  0.932361  0  0  0.292892  0  0.995026  0  0  0.29973  0  0.989489  0  0  0.264871  0.287976  0  0.999016  0
H  H6  1  0.42274582  0.38529923  0.44402234  1  0  0.30509  0  0.932286  0  0  0.292948  0  0.994952  0  0  0.299787  0  0.989418  0  0  0.264948  0.288037  0  0.998934  0
H  H7  1  0.07726342  0.55597037  0.61470614  1  0  0.305095  0  0.93228  0  0  0.293011  0  0.994851  0  0  0.29985  0  0.989315  0  0  0.264993  0.288099  0  0.998836  0
H  H8  1  0.71811016  0.70432615  0.49381932  1  0  0.293366  0  0.929634  0  0  0.28236  0  0.994475  0  0  0.288118  0  0.990345  0  0  0.267764  0.278194  0  0.997477  0
H  H9  1  0.78190485  0.50619189  0.29567247  1  0  0.293433  0  0.929548  0  0  0.282417  0  0.994398  0  0  0.288171  0  0.990273  0  0  0.267807  0.27825  0  0.997403  0
H  H10  1  0.28186521  0.29569160  0.50620957  1  0  0.293474  0  0.929452  0  0  0.282396  0  0.994362  0  0  0.288152  0  0.990236  0  0  0.267805  0.278229  0  0.997366  0
H  H11  1  0.21812735  0.49377770  0.70431518  1  0  0.293456  0  0.929454  0  0  0.282363  0  0.994382  0  0  0.288115  0  0.99026  0  0  0.267798  0.2782  0  0.997378  0
H  H12  1  0.60008445  0.67979859  0.73337498  1  0  0.105132  0  0.963253  0  0  0.112856  0  1.03031  0  0  0.115293  0  1.030055  0  0  0.098028  0.111014  0  1.030692  0
H  H13  1  0.89994725  0.26663270  0.32019231  1  0  0.105192  0  0.96328  0  0  0.112837  0  1.030422  0  0  0.115275  0  1.030165  0  0  0.098069  0.111017  0  1.030782  0
H  H14  1  0.39987237  0.32023134  0.26664827  1  0  0.105159  0  0.96324  0  0  0.1128  0  1.030395  0  0  0.115239  0  1.030137  0  0  0.097965  0.110958  0  1.030779  0
H  H15  1  0.10008692  0.73334295  0.67977725  1  0  0.105238  0  0.963114  0  0  0.112814  0  1.030315  0  0  0.11526  0  1.030048  0  0  0.09795  0.110972  0  1.030697  0
H  H16  1  0.45240126  0.81609448  0.85826493  1  0  0.093605  0  0.943479  0  0  0.108541  0  0.994864  0  0  0.110796  0  0.994876  0  0  0.104402  0.10687  0  0.995019  0
H  H17  1  0.04763425  0.14175791  0.18388517  1  0  0.093834  0  0.943198  0  0  0.10871  0  0.994653  0  0  0.111007  0  0.994615  0  0  0.104475  0.107035  0  0.994816  0
H  H18  1  0.54751603  0.18394240  0.14174506  1  0  0.093693  0  0.9432  0  0  0.108571  0  0.994661  0  0  0.110828  0  0.994671  0  0  0.104463  0.106922  0  0.994797  0
H  H19  1  0.95242371  0.85823146  0.81607750  1  0  0.093876  0  0.943431  0  0  0.108752  0  0.994869  0  0  0.111077  0  0.994793  0  0  0.10452  0.107078  0  0.995028  0
H  H20  1  0.26781433  0.99081544  0.78372276  1  0  0.10966  0  0.952941  0  0  0.120313  0  1.012184  0  0  0.123449  0  1.010322  0  0  0.100472  0.117964  0  1.013704  0
H  H21  1  0.23220244  0.21631830  0.00916254  1  0  0.109851  0  0.952819  0  0  0.120444  0  1.012142  0  0  0.123559  0  1.010302  0  0  0.100461  0.118108  0  1.013648  0
H  H22  1  0.73208248  0.00920882  0.21627746  1  0  0.109887  0  0.952793  0  0  0.120491  0  1.012086  0  0  0.123605  0  1.010249  0  0  0.100575  0.118191  0  1.013551  0
H  H23  1  0.76786847  0.78368107  0.99081186  1  0  0.109835  0  0.95275  0  0  0.120416  0  1.012088  0  0  0.123527  0  1.010258  0  0  0.100517  0.118116  0  1.013555  0
H  H24  1  0.13927262  0.11017179  0.62190133  1  0  0.099689  0  0.969081  0  0  0.105787  0  1.040744  0  0  0.108268  0  1.038906  0  0  0.095027  0.103899  0  1.042183  0
H  H25  1  0.36074948  0.37814930  0.88980871  1  0  0.099898  0  0.969  0  0  0.106058  0  1.040437  0  0  0.108552  0  1.03857  0  0  0.095069  0.104124  0  1.041949  0
H  H26  1  0.86062921  0.88983700  0.37808618  1  0  0.099744  0  0.968915  0  0  0.105804  0  1.040635  0  0  0.108275  0  1.038816  0  0  0.095002  0.103924  0  1.042065  0
H  H27  1  0.63933360  0.62185833  0.11018181  1  0  0.099906  0  0.968944  0  0  0.105966  0  1.040566  0  0  0.108457  0  1.038703  0  0  0.095084  0.104071  0  1.042027  0
H  H28  1  0.10826102  0.13808557  0.42128915  1  0  0.103651  0  0.969892  0  0  0.111601  0  1.03483  0  0  0.114532  0  1.034719  0  0  0.097002  0.109495  0  1.03508  0
H  H29  1  0.39174920  0.57876174  0.86190964  1  0  0.103574  0  0.969989  0  0  0.111484  0  1.034987  0  0  0.114412  0  1.034879  0  0  0.096966  0.109377  0  1.035216  0
H  H30  1  0.89168762  0.86191248  0.57869287  1  0  0.103572  0  0.970022  0  0  0.111599  0  1.034841  0  0  0.114535  0  1.034721  0  0  0.097069  0.109492  0  1.035082  0
H  H31  1  0.60831166  0.42124860  0.13809886  1  0  0.103507  0  0.969998  0  0  0.111462  0  1.034941  0  0  0.114376  0  1.034872  0  0  0.096993  0.10937  0  1.035147  0
H  H32  1  0.24233564  0.98423321  0.30934237  1  0  0.077116  0  0.941814  0  0  0.08526  0  1.008137  0  0  0.087744  0  1.00533  0  0  0.108363  0.08344  0  1.010111  0
H  H33  1  0.25767328  0.69069387  0.01577673  1  0  0.077279  0  0.941665  0  0  0.085307  0  1.008115  0  0  0.087781  0  1.005305  0  0  0.108387  0.083489  0  1.010091  0
H  H34  1  0.75764742  0.01576115  0.69064969  1  0  0.077009  0  0.94181  0  0  0.085157  0  1.008108  0  0  0.087626  0  1.005316  0  0  0.108377  0.083338  0  1.010076  0
H  H35  1  0.74236957  0.30930199  0.98424062  1  0  0.077155  0  0.941749  0  0  0.085233  0  1.008161  0  0  0.087708  0  1.005356  0  0  0.108391  0.083414  0  1.010139  0
C  C36  1  0.49248124  0.77113673  0.59008519  1  0  0.192868  0  3.749312  0  0  0.192021  0  3.997157  0  0  0.194444  0  4.020456  0  0  0.080876  0.190074  0  3.981442  0
C  C37  1  0.00753328  0.40992565  0.22885840  1  0  0.192576  0  3.749505  0  0  0.191818  0  3.997391  0  0  0.19424  0  4.020688  0  0  0.080815  0.189873  0  3.981682  0
C  C38  1  0.50747299  0.22887586  0.40993124  1  0  0.192498  0  3.749148  0  0  0.191592  0  3.997274  0  0  0.194008  0  4.020576  0  0  0.080657  0.189653  0  3.981552  0
C  C39  1  0.99251564  0.59004913  0.77113325  1  0  0.192683  0  3.748907  0  0  0.191698  0  3.997137  0  0  0.194115  0  4.020437  0  0  0.080663  0.189757  0  3.981417  0
C  C40  1  0.51381181  0.75396635  0.70105458  1  0  -0.144054  0  3.72404  0  0  -0.168346  0  3.982015  0  0  -0.170674  0  4.003298  0  0  -0.090781  -0.166538  0  3.967644  0
C  C41  1  0.98621798  0.29896041  0.24602392  1  0  -0.144036  0  3.724091  0  0  -0.168238  0  3.982041  0  0  -0.170568  0  4.003334  0  0  -0.090735  -0.166448  0  3.967665  0
C  C42  1  0.48613467  0.24606017  0.29896294  1  0  -0.144025  0  3.724105  0  0  -0.16821  0  3.982102  0  0  -0.170534  0  4.003382  0  0  -0.090721  -0.166409  0  3.967741  0
C  C43  1  0.01383299  0.70102040  0.75395206  1  0  -0.144125  0  3.72411  0  0  -0.16821  0  3.982169  0  0  -0.17055  0  4.003479  0  0  -0.090626  -0.166403  0  3.967793  0
C  C44  1  0.43040693  0.83173548  0.77160232  1  0  -0.057085  0  3.781639  0  0  -0.069963  0  4.034995  0  0  -0.073241  0  4.058589  0  0  -0.087309  -0.067731  0  4.01892  0
C  C45  1  0.06962681  0.22842029  0.16824854  1  0  -0.057227  0  3.781801  0  0  -0.070034  0  4.035098  0  0  -0.073342  0  4.058678  0  0  -0.087398  -0.067796  0  4.019028  0
C  C46  1  0.56952189  0.16829416  0.22840681  1  0  -0.056929  0  3.781868  0  0  -0.06973  0  4.035163  0  0  -0.073006  0  4.058752  0  0  -0.087233  -0.067516  0  4.019098  0
C  C47  1  0.93042876  0.77156891  0.83172410  1  0  -0.057243  0  3.782155  0  0  -0.070073  0  4.035425  0  0  -0.073402  0  4.05901  0  0  -0.087391  -0.067839  0  4.019358  0
C  C48  1  0.32706492  0.92815031  0.73118511  1  0  -0.105972  0  3.731375  0  0  -0.129796  0  3.980883  0  0  -0.131952  0  4.002625  0  0  -0.086144  -0.128121  0  3.966132  0
C  C49  1  0.17295666  0.26884734  0.07183294  1  0  -0.106188  0  3.73166  0  0  -0.129892  0  3.981262  0  0  -0.132031  0  4.003034  0  0  -0.086142  -0.128231  0  3.966503  0
C  C50  1  0.67284300  0.07186910  0.26882039  1  0  -0.106435  0  3.731995  0  0  -0.130278  0  3.981435  0  0  -0.132414  0  4.003189  0  0  -0.086417  -0.128653  0  3.966674  0
C  C51  1  0.82711511  0.73114448  0.92814979  1  0  -0.106208  0  3.731419  0  0  -0.129928  0  3.980932  0  0  -0.132074  0  4.00272  0  0  -0.08623  -0.128299  0  3.966157  0
C  C52  1  0.30123706  0.94878904  0.61807569  1  0  0.026918  0  3.783956  0  0  0.04583  0  4.013344  0  0  0.042656  0  4.038178  0  0  -0.003854  0.047755  0  3.996554  0
C  C53  1  0.19877875  0.38195910  0.05120067  1  0  0.027032  0  3.784017  0  0  0.045718  0  4.013831  0  0  0.042534  0  4.038671  0  0  -0.003821  0.047649  0  3.997028  0
C  C54  1  0.69868884  0.05121914  0.38192567  1  0  0.027174  0  3.783978  0  0  0.046432  0  4.013074  0  0  0.043255  0  4.037894  0  0  -0.003669  0.048359  0  3.996303  0
C  C55  1  0.80129171  0.61803418  0.94879572  1  0  0.027131  0  3.784066  0  0  0.046137  0  4.013504  0  0  0.042957  0  4.038339  0  0  -0.003815  0.048066  0  3.99672  0
C  C56  1  0.20135802  0.04729228  0.57021091  1  0  -0.035371  0  3.668964  0  0  -0.061228  0  3.91848  0  0  -0.057835  0  3.9358  0  0  -0.06559  -0.063195  0  3.906648  0
C  C57  1  0.29865641  0.42983212  0.95269252  1  0  -0.036172  0  3.669081  0  0  -0.061847  0  3.918537  0  0  -0.058454  0  3.935865  0  0  -0.065778  -0.063787  0  3.90671  0
C  C58  1  0.79856440  0.95271262  0.42978402  1  0  -0.035888  0  3.669108  0  0  -0.06179  0  3.91858  0  0  -0.058412  0  3.935935  0  0  -0.065772  -0.063747  0  3.906709  0
C  C59  1  0.70141369  0.57016777  0.04730370  1  0  -0.036196  0  3.668887  0  0  -0.061985  0  3.918471  0  0  -0.058589  0  3.935798  0  0  -0.065797  -0.063959  0  3.906636  0
C  C60  1  0.18396230  0.06271638  0.45929640  1  0  -0.127161  0  3.753604  0  0  -0.139274  0  4.008025  0  0  -0.147127  0  4.029902  0  0  -0.091993  -0.134215  0  3.993236  0
C  C61  1  0.31604321  0.54074905  0.93727840  1  0  -0.126488  0  3.753209  0  0  -0.138554  0  4.007437  0  0  -0.146406  0  4.029317  0  0  -0.091697  -0.133475  0  3.99262  0
C  C62  1  0.81597379  0.93728377  0.54069868  1  0  -0.126891  0  3.753849  0  0  -0.138994  0  4.008122  0  0  -0.146848  0  4.029992  0  0  -0.091835  -0.133925  0  3.99333  0
C  C63  1  0.68402285  0.45925150  0.06272622  1  0  -0.126474  0  3.753026  0  0  -0.138547  0  4.00732  0  0  -0.146401  0  4.029192  0  0  -0.091617  -0.13348  0  3.992535  0
C  C64  1  0.26053509  0.97803589  0.39619724  1  0  0.155663  0  3.704544  0  0  0.120932  0  3.961323  0  0  0.1309  0  3.977703  0  0  0.056704  0.11454  0  3.949932  0
C  C65  1  0.23947273  0.60383882  0.02196579  1  0  0.15535  0  3.704805  0  0  0.120668  0  3.96151  0  0  0.13065  0  3.977881  0  0  0.056606  0.114273  0  3.950116  0
C  C66  1  0.73942776  0.02196223  0.60379790  1  0  0.155795  0  3.704332  0  0  0.121066  0  3.961109  0  0  0.131045  0  3.977474  0  0  0.056573  0.114676  0  3.949711  0
C  C67  1  0.76058492  0.39615740  0.97804274  1  0  0.15561  0  3.704665  0  0  0.120891  0  3.961421  0  0  0.13087  0  3.977795  0  0  0.056484  0.114502  0  3.950027  0
C  C68  1  0.38175950  0.86887324  0.54697286  1  0  0.112647  0  3.757377  0  0  0.107383  0  3.989389  0  0  0.111854  0  4.013404  0  0  0.105442  0.104477  0  3.973139  0
C  C69  1  0.11825262  0.45305388  0.13112254  1  0  0.112983  0  3.757138  0  0  0.10745  0  3.98961  0  0  0.111923  0  4.013626  0  0  0.105336  0.104543  0  3.973364  0
C  C70  1  0.61818387  0.13113763  0.45303522  1  0  0.113108  0  3.757008  0  0  0.107407  0  3.989542  0  0  0.111879  0  4.01356  0  0  0.10557  0.104498  0  3.973291  0
C  C71  1  0.88180714  0.54693261  0.86887271  1  0  0.112853  0  3.757283  0  0  0.107195  0  3.989912  0  0  0.111672  0  4.013925  0  0  0.105363  0.104293  0  3.973661  0
N  N72  1  0.35497403  0.88498595  0.43851809  1  0  -0.355114  0  3.294371  0  0  -0.280464  0  3.557378  0  0  -0.301633  0  3.578411  0  0  -0.335212  -0.266113  0  3.5428  0
N  N73  1  0.14503447  0.56150781  0.11501456  1  0  -0.355248  0  3.294468  0  0  -0.280428  0  3.557477  0  0  -0.301596  0  3.578497  0  0  -0.335127  -0.266072  0  3.542897  0
N  N74  1  0.64498418  0.11501527  0.56148673  1  0  -0.355466  0  3.294246  0  0  -0.280693  0  3.557393  0  0  -0.301863  0  3.578423  0  0  -0.335267  -0.266343  0  3.542816  0
N  N75  1  0.85501835  0.43848010  0.88499088  1  0  -0.355225  0  3.294369  0  0  -0.280372  0  3.557402  0  0  -0.301544  0  3.578432  0  0  -0.33502  -0.266023  0  3.542832  0
N  N76  1  0.57962994  0.69465734  0.51632042  1  0  -0.65444  0  3.127961  0  0  -0.602605  0  3.354831  0  0  -0.621585  0  3.354196  0  0  -0.614435  -0.589091  0  3.355141  0
N  N77  1  0.92037904  0.48368747  0.30534149  1  0  -0.654675  0  3.128059  0  0  -0.602793  0  3.35488  0  0  -0.621773  0  3.354246  0  0  -0.614512  -0.589277  0  3.3552  0
N  N78  1  0.42034340  0.30535712  0.48370432  1  0  -0.654781  0  3.127803  0  0  -0.602616  0  3.354399  0  0  -0.621595  0  3.353766  0  0  -0.614499  -0.589106  0  3.354716  0
N  N79  1  0.07965140  0.51628373  0.69464771  1  0  -0.654871  0  3.127728  0  0  -0.602713  0  3.354345  0  0  -0.621689  0  3.35371  0  0  -0.614586  -0.5892  0  3.354658  0
Cl  Cl80  1  0.45244105  0.53427915  0.31653092  1  0  -0.58824  0  0.949521  0  0  -0.523501  0  1.208813  0  0  -0.540097  0  1.189351  0  0  -0.294267  -0.511321  0  1.222041  0
Cl  Cl81  1  0.04754291  0.68347554  0.46573720  1  0  -0.58821  0  0.949605  0  0  -0.523459  0  1.208866  0  0  -0.540078  0  1.189445  0  0  -0.294228  -0.511281  0  1.222103  0
Cl  Cl82  1  0.54759273  0.46571910  0.68348132  1  0  -0.58824  0  0.94956  0  0  -0.523474  0  1.208834  0  0  -0.540073  0  1.189365  0  0  -0.294258  -0.511302  0  1.222088  0
Cl  Cl83  1  0.95243387  0.31651276  0.53426773  1  0  -0.588236  0  0.949668  0  0  -0.523481  0  1.208982  0  0  -0.540082  0  1.189523  0  0  -0.294233  -0.511297  0  1.222227  0
Cl  Cl84  1  0.75001024  0.78127984  0.21871783  1  0  -0.557649  0  1.026449  0  0  -0.492292  0  1.315501  0  0  -0.509417  0  1.291093  0  0  -0.294543  -0.480002  0  1.332696  0
Cl  Cl85  1  0.24999999  0.21871309  0.78129192  1  0  -0.557669  0  1.026473  0  0  -0.492338  0  1.315585  0  0  -0.509474  0  1.291185  0  0  -0.29456  -0.480033  0  1.332759  0
Cl  Cl86  1  0.25000473  0.81306698  0.18694991  1  0  -0.57356  0  0.928819  0  0  -0.506624  0  1.175071  0  0  -0.525315  0  1.154305  0  0  -0.325195  -0.493025  0  1.189539  0
Cl  Cl87  1  0.74999789  0.18691835  0.81306176  1  0  -0.573508  0  0.928685  0  0  -0.506555  0  1.174898  0  0  -0.525243  0  1.154133  0  0  -0.325195  -0.492961  0  1.189387  0
