# generated using pymatgen
data_Ag5H12C22N2(O5F6)2
_symmetry_space_group_name_H-M   'P 1'
_cell_length_a   11.30874092
_cell_length_b   11.62490089
_cell_length_c   14.12647572
_cell_angle_alpha   96.22166532
_cell_angle_beta   105.28703599
_cell_angle_gamma   116.02529524
_symmetry_Int_Tables_number   1
_chemical_formula_structural   Ag5H12C22N2(O5F6)2
_chemical_formula_sum   'Ag10 H24 C44 N4 O20 F24'
_cell_volume   1555.04364049
_cell_formula_units_Z   2
loop_
 _symmetry_equiv_pos_site_id
 _symmetry_equiv_pos_as_xyz
  1  'x, y, z'
loop_
 _atom_site_type_symbol
 _atom_site_label
 _atom_site_symmetry_multiplicity
 _atom_site_fract_x
 _atom_site_fract_y
 _atom_site_fract_z
 _atom_site_occupancy
 _atom_site_hle17_bader_spin_density
 _atom_site_hle17_ddec_charge
 _atom_site_hle17_ddec_spin_density
 _atom_site_hle17_ddec_sum_bond_order
 _atom_site_hle17_magmom
 _atom_site_hse06_10hf_bader_spin_density
 _atom_site_hse06_10hf_ddec_charge
 _atom_site_hse06_10hf_ddec_spin_density
 _atom_site_hse06_10hf_ddec_sum_bond_order
 _atom_site_hse06_10hf_magmom
 _atom_site_hse06_bader_spin_density
 _atom_site_hse06_ddec_charge
 _atom_site_hse06_ddec_spin_density
 _atom_site_hse06_ddec_sum_bond_order
 _atom_site_hse06_magmom
 _atom_site_pbe_bader_spin_density
 _atom_site_pbe_cm5_charge
 _atom_site_pbe_ddec_charge
 _atom_site_pbe_ddec_spin_density
 _atom_site_pbe_ddec_sum_bond_order
 _atom_site_pbe_magmom
Ag  Ag0  1  0.82048229  0.47728921  0.57791216  1  0  0.448892  0  2.020394  0  0  0.345552  0  2.524334  0  0  0.366016  0  2.470485  0  0  0.42647  0.33202  0  2.560591  0
Ag  Ag1  1  0.17951574  0.52271034  0.42208334  1  0  0.448894  0  2.020405  0  0  0.345558  0  2.524318  0  0  0.366011  0  2.470492  0  0  0.426492  0.332026  0  2.56057  0
Ag  Ag2  1  0.58413778  0.44321458  0.41310995  1  0  0.640675  0  1.455613  0  0  0.55376  0  1.886562  0  0  0.575733  0  1.836371  0  0  0.444736  0.538303  0  1.920921  0
Ag  Ag3  1  0.41586196  0.55678299  0.58689140  1  0  0.640672  0  1.455564  0  0  0.553758  0  1.8865  0  0  0.575733  0  1.836314  0  0  0.444725  0.538305  0  1.920859  0
Ag  Ag4  1  0.94443346  0.36091823  0.48382967  1  0  0.502186  0  1.85072  0  0  0.411195  0  2.343768  0  0  0.433798  0  2.286216  0  0  0.37139  0.395973  0  2.382772  0
Ag  Ag5  1  0.05556555  0.63908329  0.51617118  1  0  0.502177  0  1.850726  0  0  0.411212  0  2.343764  0  0  0.433812  0  2.286216  0  0  0.371384  0.395989  0  2.382766  0
Ag  Ag6  1  0.64983812  0.22283582  0.43158216  1  0  0.607522  0  1.502352  0  0  0.507126  0  1.950049  0  0  0.537027  0  1.889679  0  0  0.38719  0.485902  0  1.991928  0
Ag  Ag7  1  0.35016223  0.77716472  0.56841818  1  0  0.60755  0  1.502368  0  0  0.507166  0  1.950062  0  0  0.537064  0  1.889695  0  0  0.387199  0.485944  0  1.991941  0
Ag  Ag8  1  0.56807964  0.03279994  0.80128131  1  0  0.587938  0  1.670471  0  0  0.47353  0  2.163942  0  0  0.493515  0  2.110284  0  0  0.434971  0.459504  0  2.200659  0
Ag  Ag9  1  0.43191827  0.96719762  0.19871753  1  0  0.587898  0  1.67036  0  0  0.473467  0  2.163822  0  0  0.493459  0  2.110159  0  0  0.434948  0.459437  0  2.200538  0
H  H10  1  0.74037962  0.68011459  0.65258888  1  0  0.421102  0  0.876498  0  0  0.391894  0  0.938258  0  0  0.401078  0  0.924905  0  0  0.286016  0.385343  0  0.947806  0
H  H11  1  0.25961971  0.31988397  0.34741247  1  0  0.421105  0  0.876504  0  0  0.391898  0  0.938258  0  0  0.401082  0  0.924904  0  0  0.286019  0.385345  0  0.947808  0
H  H12  1  0.88541137  0.74219648  0.63256398  1  0  0.421279  0  0.872065  0  0  0.391561  0  0.938484  0  0  0.401453  0  0.923731  0  0  0.2858  0.384435  0  0.949117  0
H  H13  1  0.11458806  0.25780406  0.36743686  1  0  0.421293  0  0.872051  0  0  0.39158  0  0.938455  0  0  0.401472  0  0.923702  0  0  0.285806  0.384455  0  0.949087  0
H  H14  1  0.38035564  0.97133357  0.39472437  1  0  0.422326  0  0.873712  0  0  0.392984  0  0.940882  0  0  0.40316  0  0.9262  0  0  0.289554  0.385736  0  0.951264  0
H  H15  1  0.61964227  0.02866399  0.60527588  1  0  0.422364  0  0.873664  0  0  0.393019  0  0.940835  0  0  0.403194  0  0.926153  0  0  0.289576  0.385772  0  0.951216  0
H  H16  1  0.48934406  0.92373310  0.39739202  1  0  0.418573  0  0.878244  0  0  0.38952  0  0.946552  0  0  0.399469  0  0.932278  0  0  0.28782  0.382598  0  0.956465  0
H  H17  1  0.51065527  0.07626545  0.60260863  1  0  0.418596  0  0.878229  0  0  0.389537  0  0.946535  0  0  0.399487  0  0.932259  0  0  0.287836  0.382616  0  0.956448  0
H  H18  1  0.80109129  0.68129088  0.27151662  1  0  0.113982  0  0.972655  0  0  0.116977  0  1.044285  0  0  0.121162  0  1.040661  0  0  0.099543  0.113795  0  1.04724  0
H  H19  1  0.19891049  0.31871066  0.72848340  1  0  0.113971  0  0.97265  0  0  0.117002  0  1.044253  0  0  0.12119  0  1.040621  0  0  0.099544  0.113819  0  1.047206  0
H  H20  1  0.75695765  0.69672990  0.09267524  1  0  0.110119  0  0.939679  0  0  0.115578  0  1.002117  0  0  0.119383  0  0.999481  0  0  0.102995  0.112763  0  1.004251  0
H  H21  1  0.24304149  0.30327361  0.90732156  1  0  0.110115  0  0.939539  0  0  0.115527  0  1.002027  0  0  0.119335  0  0.99939  0  0  0.102964  0.112711  0  1.004162  0
H  H22  1  0.67626595  0.49738568  0.95351438  1  0  0.122371  0  0.924057  0  0  0.132905  0  0.979994  0  0  0.136651  0  0.977593  0  0  0.113012  0.130115  0  0.981913  0
H  H23  1  0.32373307  0.50261584  0.04648576  1  0  0.122328  0  0.924079  0  0  0.132872  0  0.980002  0  0  0.136619  0  0.9776  0  0  0.113  0.130081  0  0.981919  0
H  H24  1  0.67221636  0.26639018  0.17392425  1  0  0.13398  0  0.951909  0  0  0.141074  0  1.01645  0  0  0.144541  0  1.014777  0  0  0.110792  0.138492  0  1.017818  0
H  H25  1  0.32778500  0.73361235  0.82607648  1  0  0.133907  0  0.951957  0  0  0.141019  0  1.016477  0  0  0.144485  0  1.014807  0  0  0.110778  0.138437  0  1.017845  0
H  H26  1  0.92592574  0.67652814  0.77937998  1  0  0.082621  0  0.974723  0  0  0.086335  0  1.047664  0  0  0.089483  0  1.044076  0  0  0.112386  0.083854  0  1.050538  0
H  H27  1  0.07407084  0.32347041  0.22061867  1  0  0.082661  0  0.974709  0  0  0.086311  0  1.047703  0  0  0.089459  0  1.044113  0  0  0.112395  0.083832  0  1.050573  0
H  H28  1  0.01464384  0.70007363  0.96288072  1  0  0.117058  0  0.943515  0  0  0.128656  0  0.998886  0  0  0.131629  0  0.997943  0  0  0.11142  0.126485  0  0.99975  0
H  H29  1  0.98536223  0.29993090  0.03711836  1  0  0.117102  0  0.943547  0  0  0.12873  0  0.998885  0  0  0.131704  0  0.99794  0  0  0.111463  0.126559  0  0.99975  0
H  H30  1  0.91497521  0.28808426  0.89026820  1  0  0.107946  0  0.956429  0  0  0.117597  0  1.018212  0  0  0.120957  0  1.016417  0  0  0.109311  0.115092  0  1.019786  0
H  H31  1  0.08502656  0.71191727  0.10973395  1  0  0.107935  0  0.956453  0  0  0.117589  0  1.018229  0  0  0.12095  0  1.016432  0  0  0.109303  0.115082  0  1.019805  0
H  H32  1  0.82739722  0.28246153  0.70969753  1  0  0.083158  0  0.962519  0  0  0.090566  0  1.030491  0  0  0.093042  0  1.028218  0  0  0.114686  0.088654  0  1.032288  0
H  H33  1  0.17260312  0.71753900  0.29030563  1  0  0.083188  0  0.962466  0  0  0.090574  0  1.030463  0  0  0.093048  0  1.02819  0  0  0.114691  0.088661  0  1.032257  0
C  C34  1  0.79881762  0.44382525  0.42328146  1  0  -0.621988  0  4.006075  0  0  -0.534267  0  4.338309  0  0  -0.553046  0  4.350056  0  0  -0.302991  -0.522623  0  4.330464  0
C  C35  1  0.20118263  0.55618221  0.57671735  1  0  -0.622026  0  4.006103  0  0  -0.534298  0  4.338326  0  0  -0.55309  0  4.350102  0  0  -0.302966  -0.522655  0  4.330488  0
C  C36  1  0.75913497  0.46248090  0.33694442  1  0  0.055702  0  3.78947  0  0  0.039246  0  4.046559  0  0  0.048949  0  4.069678  0  0  -0.055643  0.032675  0  4.031014  0
C  C37  1  0.24086875  0.53752263  0.66305619  1  0  0.055682  0  3.789579  0  0  0.039227  0  4.046674  0  0  0.048933  0  4.06978  0  0  -0.0557  0.032655  0  4.031133  0
C  C38  1  0.73746375  0.47317751  0.23476553  1  0  0.105026  0  3.836106  0  0  0.129486  0  4.066602  0  0  0.126782  0  4.09076  0  0  0.000325  0.131001  0  4.050467  0
C  C39  1  0.26253825  0.52682799  0.76523136  1  0  0.105022  0  3.83604  0  0  0.129478  0  4.066575  0  0  0.12678  0  4.090728  0  0  0.000317  0.130993  0  4.050446  0
C  C40  1  0.76223856  0.59441377  0.21050461  1  0  -0.076053  0  3.664117  0  0  -0.107759  0  3.920479  0  0  -0.107215  0  3.938673  0  0  -0.076534  -0.108082  0  3.908465  0
C  C41  1  0.23776057  0.40558974  0.78949290  1  0  -0.076067  0  3.663905  0  0  -0.107809  0  3.920257  0  0  -0.107268  0  3.938452  0  0  -0.076525  -0.108128  0  3.908247  0
C  C42  1  0.73877680  0.60266675  0.11018103  1  0  -0.050229  0  3.756273  0  0  -0.064715  0  4.018355  0  0  -0.068012  0  4.038748  0  0  -0.084827  -0.06278  0  4.004959  0
C  C43  1  0.26122050  0.39733675  0.88981608  1  0  -0.050128  0  3.756011  0  0  -0.064559  0  4.018079  0  0  -0.067863  0  4.038482  0  0  -0.084751  -0.062623  0  4.004682  0
C  C44  1  0.69401755  0.49243714  0.03230087  1  0  -0.124917  0  3.693359  0  0  -0.154157  0  3.950115  0  0  -0.154275  0  3.967668  0  0  -0.076495  -0.153855  0  3.93855  0
C  C45  1  0.30598107  0.50756538  0.96769786  1  0  -0.124978  0  3.693365  0  0  -0.154225  0  3.950108  0  0  -0.154342  0  3.967664  0  0  -0.076551  -0.15392  0  3.938538  0
C  C46  1  0.67393108  0.37310625  0.05731645  1  0  0.212331  0  3.851732  0  0  0.208659  0  4.10168  0  0  0.212638  0  4.123142  0  0  0.10934  0.205795  0  4.087416  0
C  C47  1  0.32606979  0.62689529  0.94268197  1  0  0.212367  0  3.851644  0  0  0.208708  0  4.101612  0  0  0.212688  0  4.12307  0  0  0.109381  0.205845  0  4.087349  0
C  C48  1  0.69227448  0.36090745  0.15687302  1  0  -0.151701  0  3.605845  0  0  -0.180534  0  3.843136  0  0  -0.182523  0  3.862315  0  0  -0.070012  -0.178969  0  3.830245  0
C  C49  1  0.30772965  0.63909509  0.84312689  1  0  -0.151637  0  3.605871  0  0  -0.180474  0  3.843168  0  0  -0.182464  0  3.862345  0  0  -0.070012  -0.178908  0  3.830281  0
C  C50  1  0.61914831  0.17949783  0.91763501  1  0  -0.066851  0  3.233958  0  0  -0.095463  0  3.620117  0  0  -0.079189  0  3.610875  0  0  0.045495  -0.106718  0  3.626652  0
C  C51  1  0.38084992  0.82049677  0.08236293  1  0  -0.066856  0  3.234191  0  0  -0.095422  0  3.620342  0  0  -0.079153  0  3.6111  0  0  0.045523  -0.106672  0  3.626873  0
C  C52  1  0.92521453  0.59299502  0.80757210  1  0  0.137958  0  3.67608  0  0  0.105248  0  3.925503  0  0  0.112615  0  3.943317  0  0  0.045859  0.100409  0  3.913587  0
C  C53  1  0.07478674  0.40700552  0.19242773  1  0  0.137959  0  3.676004  0  0  0.105322  0  3.925436  0  0  0.112692  0  3.943244  0  0  0.045871  0.10048  0  3.913518  0
C  C54  1  0.97506663  0.60477348  0.91089347  1  0  -0.143435  0  3.682379  0  0  -0.16594  0  3.933845  0  0  -0.173718  0  3.955512  0  0  -0.078058  -0.160807  0  3.919247  0
C  C55  1  0.02493842  0.39522907  0.08910663  1  0  -0.143553  0  3.682397  0  0  -0.166098  0  3.933859  0  0  -0.173874  0  3.955523  0  0  -0.078128  -0.160966  0  3.919267  0
C  C56  1  0.97370069  0.49556656  0.94527897  1  0  0.090583  0  3.757212  0  0  0.102176  0  3.989027  0  0  0.105597  0  4.012499  0  0  0.013248  0.100029  0  3.973011  0
C  C57  1  0.02630630  0.50443797  0.05472101  1  0  0.090653  0  3.757002  0  0  0.102226  0  3.988853  0  0  0.105645  0  4.012328  0  0  0.013261  0.100075  0  3.972837  0
C  C58  1  0.91974826  0.37762837  0.87081028  1  0  -0.15376  0  3.719445  0  0  -0.174872  0  3.968814  0  0  -0.183565  0  3.992514  0  0  -0.077995  -0.169193  0  3.953036  0
C  C59  1  0.08025637  0.62237515  0.12919124  1  0  -0.15372  0  3.719343  0  0  -0.174824  0  3.968705  0  0  -0.183518  0  3.992406  0  0  -0.077965  -0.169145  0  3.952926  0
C  C60  1  0.87106085  0.37313195  0.76876100  1  0  0.121689  0  3.697785  0  0  0.094223  0  3.94272  0  0  0.100462  0  3.962843  0  0  0.045587  0.090103  0  3.929284  0
C  C61  1  0.12893908  0.62686958  0.23124075  1  0  0.121619  0  3.697768  0  0  0.094183  0  3.94269  0  0  0.100418  0  3.96282  0  0  0.045563  0.090064  0  3.929248  0
C  C62  1  0.36240374  0.21852844  0.22198777  1  0  0.504083  0  4.006372  0  0  0.451522  0  4.300817  0  0  0.480107  0  4.299346  0  0  0.196992  0.432173  0  4.301278  0
C  C63  1  0.63759609  0.78147110  0.77801378  1  0  0.504086  0  4.00656  0  0  0.451542  0  4.300947  0  0  0.480144  0  4.299453  0  0  0.197016  0.432194  0  4.30141  0
C  C64  1  0.24920297  0.15264243  0.11302274  1  0  0.671512  0  3.649351  0  0  0.600514  0  3.995692  0  0  0.627987  0  3.96849  0  0  0.291637  0.580712  0  4.015313  0
C  C65  1  0.75079554  0.84735809  0.88697862  1  0  0.671395  0  3.649657  0  0  0.600421  0  3.995937  0  0  0.627879  0  3.968763  0  0  0.291669  0.580623  0  4.015559  0
C  C66  1  0.48285636  0.29269206  0.57639438  1  0  0.505381  0  3.991863  0  0  0.450493  0  4.286267  0  0  0.480301  0  4.283201  0  0  0.199112  0.430171  0  4.28835  0
C  C67  1  0.51714093  0.70730253  0.42360689  1  0  0.50562  0  3.991771  0  0  0.450646  0  4.286206  0  0  0.480458  0  4.283135  0  0  0.199195  0.430335  0  4.28829  0
C  C68  1  0.39772992  0.25919464  0.64906308  1  0  0.668747  0  3.664001  0  0  0.597373  0  4.008632  0  0  0.624611  0  3.981689  0  0  0.294544  0.577637  0  4.028282  0
C  C69  1  0.60226534  0.74079598  0.35093740  1  0  0.668552  0  3.664204  0  0  0.597384  0  4.008564  0  0  0.624623  0  3.981617  0  0  0.29446  0.577605  0  4.028284  0
C  C70  1  0.87552145  0.13389335  0.58633522  1  0  0.489459  0  4.014174  0  0  0.435132  0  4.315245  0  0  0.464477  0  4.311958  0  0  0.193801  0.415311  0  4.316918  0
C  C71  1  0.12447739  0.86610422  0.41366382  1  0  0.489369  0  4.014099  0  0  0.435093  0  4.315126  0  0  0.464425  0  4.311837  0  0  0.193806  0.415275  0  4.316787  0
C  C72  1  0.90753141  0.04633434  0.65369736  1  0  0.673627  0  3.651457  0  0  0.601967  0  3.997529  0  0  0.629458  0  3.970449  0  0  0.29467  0.582103  0  4.017235  0
C  C73  1  0.09246457  0.95366124  0.34630019  1  0  0.673858  0  3.6513  0  0  0.602145  0  3.99746  0  0  0.629681  0  3.970316  0  0  0.294767  0.582295  0  4.017132  0
C  C74  1  0.80748734  0.13795037  0.27662709  1  0  0.5089  0  3.986104  0  0  0.457252  0  4.277921  0  0  0.486025  0  4.276765  0  0  0.198819  0.437791  0  4.278222  0
C  C75  1  0.19251718  0.86205117  0.72337705  1  0  0.508727  0  3.986055  0  0  0.45714  0  4.277808  0  0  0.485902  0  4.276662  0  0  0.198917  0.437689  0  4.278104  0
C  C76  1  0.79759235  0.05275804  0.17819757  1  0  0.670273  0  3.646437  0  0  0.597398  0  3.997398  0  0  0.62435  0  3.971441  0  0  0.291957  0.577923  0  4.016311  0
C  C77  1  0.20241228  0.94724549  0.82180395  1  0  0.670597  0  3.646056  0  0  0.597663  0  3.997099  0  0  0.624639  0  3.971093  0  0  0.291998  0.578164  0  4.016024  0
N  N78  1  0.63973047  0.26632546  0.98188456  1  0  -0.075851  0  3.649168  0  0  -0.008013  0  3.892134  0  0  -0.022218  0  3.914326  0  0  -0.214208  0.000949  0  3.877627  0
N  N79  1  0.36027100  0.73367905  0.01811425  1  0  -0.075811  0  3.649353  0  0  -0.008047  0  3.892392  0  0  -0.022251  0  3.914581  0  0  -0.214234  0.000912  0  3.877887  0
N  N80  1  0.87420450  0.47933517  0.73703118  1  0  -0.266198  0  3.308814  0  0  -0.182572  0  3.578513  0  0  -0.200397  0  3.595052  0  0  -0.348686  -0.170635  0  3.5672  0
N  N81  1  0.12579545  0.52066636  0.26296845  1  0  -0.266194  0  3.30886  0  0  -0.182569  0  3.578524  0  0  -0.200395  0  3.595064  0  0  -0.348708  -0.170631  0  3.567206  0
O  O82  1  0.78751615  0.67016050  0.60539119  1  0  -0.805968  0  1.898564  0  0  -0.752331  0  2.099436  0  0  -0.772515  0  2.067376  0  0  -0.600906  -0.738003  0  2.121982  0
O  O83  1  0.21248369  0.32983905  0.39460895  1  0  -0.805989  0  1.898542  0  0  -0.752343  0  2.099401  0  0  -0.772524  0  2.067343  0  0  -0.60091  -0.738016  0  2.121946  0
O  O84  1  0.36905964  0.31972832  0.27124681  1  0  -0.570576  0  2.084655  0  0  -0.517969  0  2.330363  0  0  -0.543501  0  2.32051  0  0  -0.314145  -0.500005  0  2.336454  0
O  O85  1  0.63093927  0.68027122  0.72875455  1  0  -0.570534  0  2.084729  0  0  -0.517946  0  2.33044  0  0  -0.543476  0  2.320567  0  0  -0.314146  -0.499981  0  2.336533  0
O  O86  1  0.43983866  0.16757104  0.24760082  1  0  -0.559977  0  2.164372  0  0  -0.503417  0  2.446257  0  0  -0.530945  0  2.43597  0  0  -0.318547  -0.484158  0  2.452561  0
O  O87  1  0.56016118  0.83242851  0.75239932  1  0  -0.560005  0  2.164406  0  0  -0.503473  0  2.446299  0  0  -0.531002  0  2.436  0  0  -0.318579  -0.484214  0  2.452604  0
O  O88  1  0.46078481  0.98720740  0.37141504  1  0  -0.793391  0  1.997284  0  0  -0.713507  0  2.22077  0  0  -0.738832  0  2.185565  0  0  -0.58918  -0.69546  0  2.244884  0
O  O89  1  0.53921502  0.01279214  0.62858652  1  0  -0.793465  0  1.997288  0  0  -0.713575  0  2.220757  0  0  -0.7389  0  2.185552  0  0  -0.589224  -0.69553  0  2.244872  0
O  O90  1  0.50476871  0.39951144  0.55169714  1  0  -0.550718  0  2.155056  0  0  -0.487027  0  2.427716  0  0  -0.515504  0  2.416517  0  0  -0.309121  -0.468108  0  2.435222  0
O  O91  1  0.49522951  0.60048316  0.44830292  1  0  -0.55076  0  2.155071  0  0  -0.487074  0  2.427782  0  0  -0.515539  0  2.416553  0  0  -0.30911  -0.468154  0  2.435282  0
O  O92  1  0.52103326  0.21130543  0.55081621  1  0  -0.567538  0  2.137347  0  0  -0.51319  0  2.389934  0  0  -0.540056  0  2.380147  0  0  -0.298616  -0.494489  0  2.395841  0
O  O93  1  0.47896556  0.78869213  0.44918566  1  0  -0.567597  0  2.137204  0  0  -0.513254  0  2.389854  0  0  -0.54011  0  2.380043  0  0  -0.298644  -0.494556  0  2.395764  0
O  O94  1  0.98168856  0.22192877  0.57469999  1  0  -0.507342  0  2.086761  0  0  -0.456185  0  2.341113  0  0  -0.484072  0  2.33517  0  0  -0.311193  -0.436647  0  2.344565  0
O  O95  1  0.01830935  0.77806879  0.42530026  1  0  -0.507266  0  2.086682  0  0  -0.45616  0  2.341053  0  0  -0.484046  0  2.335115  0  0  -0.311195  -0.436625  0  2.344506  0
O  O96  1  0.74999617  0.11081412  0.55556042  1  0  -0.579773  0  2.100859  0  0  -0.531425  0  2.352055  0  0  -0.556085  0  2.340845  0  0  -0.308914  -0.514066  0  2.359295  0
O  O97  1  0.25000358  0.88918346  0.44443810  1  0  -0.579791  0  2.100893  0  0  -0.531435  0  2.352054  0  0  -0.556093  0  2.340846  0  0  -0.308916  -0.51408  0  2.359296  0
O  O98  1  0.92945020  0.21672929  0.33851361  1  0  -0.559386  0  2.116243  0  0  -0.502736  0  2.366706  0  0  -0.52998  0  2.358281  0  0  -0.309934  -0.483574  0  2.371925  0
O  O99  1  0.07055566  0.78327128  0.66148861  1  0  -0.559402  0  2.116256  0  0  -0.502765  0  2.3667  0  0  -0.530008  0  2.358284  0  0  -0.309988  -0.483604  0  2.371914  0
O  O100  1  0.69205455  0.12132544  0.28175468  1  0  -0.559686  0  2.131862  0  0  -0.504829  0  2.404709  0  0  -0.531875  0  2.394318  0  0  -0.315822  -0.485836  0  2.411343  0
O  O101  1  0.30794896  0.87867412  0.71824836  1  0  -0.559624  0  2.131827  0  0  -0.504824  0  2.404687  0  0  -0.531865  0  2.394299  0  0  -0.315898  -0.485827  0  2.411305  0
F  F102  1  0.17511526  0.01830078  0.09430923  1  0  -0.253365  0  1.16623  0  0  -0.223897  0  1.341074  0  0  -0.231994  0  1.32144  0  0  -0.112901  -0.218025  0  1.354792  0
F  F103  1  0.82488325  0.98169975  0.90569142  1  0  -0.25332  0  1.166335  0  0  -0.223863  0  1.341173  0  0  -0.231961  0  1.321547  0  0  -0.112896  -0.217995  0  1.354891  0
F  F104  1  0.31419491  0.18044726  0.04274054  1  0  -0.25509  0  1.154277  0  0  -0.214205  0  1.314261  0  0  -0.224108  0  1.297716  0  0  -0.108353  -0.206948  0  1.325768  0
F  F105  1  0.68580400  0.81955228  0.95726152  1  0  -0.255074  0  1.154343  0  0  -0.214196  0  1.31432  0  0  -0.224098  0  1.29778  0  0  -0.108381  -0.206939  0  1.325826  0
F  F106  1  0.15491210  0.19749976  0.09491175  1  0  -0.243749  0  1.184814  0  0  -0.203566  0  1.349882  0  0  -0.213476  0  1.333455  0  0  -0.103143  -0.196344  0  1.361267  0
F  F107  1  0.84508733  0.80250078  0.90508909  1  0  -0.24373  0  1.184869  0  0  -0.203541  0  1.349917  0  0  -0.213447  0  1.333496  0  0  -0.103147  -0.196319  0  1.3613  0
F  F108  1  0.27223753  0.25437836  0.60822740  1  0  -0.230143  0  1.214369  0  0  -0.185657  0  1.383527  0  0  -0.195757  0  1.366603  0  0  -0.085161  -0.178523  0  1.395366  0
F  F109  1  0.72775733  0.74561325  0.39177097  1  0  -0.230118  0  1.214398  0  0  -0.185679  0  1.383483  0  0  -0.195781  0  1.36656  0  0  -0.085164  -0.178536  0  1.395337  0
F  F110  1  0.37143177  0.14083051  0.66947494  1  0  -0.231809  0  1.222269  0  0  -0.197929  0  1.405459  0  0  -0.20839  0  1.388773  0  0  -0.094902  -0.190662  0  1.417144  0
F  F111  1  0.62856686  0.85916310  0.33052583  1  0  -0.231746  0  1.222287  0  0  -0.197911  0  1.405408  0  0  -0.208377  0  1.38872  0  0  -0.094844  -0.190632  0  1.417106  0
F  F112  1  0.47007857  0.35385471  0.74005292  1  0  -0.25776  0  1.136169  0  0  -0.216826  0  1.29318  0  0  -0.227197  0  1.27833  0  0  -0.109903  -0.208307  0  1.302076  0
F  F113  1  0.52991588  0.64613789  0.25994616  1  0  -0.257769  0  1.136202  0  0  -0.21688  0  1.293149  0  0  -0.22725  0  1.278296  0  0  -0.109934  -0.208353  0  1.302062  0
F  F114  1  0.79018681  0.93225713  0.64335291  1  0  -0.244985  0  1.196667  0  0  -0.199013  0  1.360785  0  0  -0.210609  0  1.346576  0  0  -0.097644  -0.190647  0  1.370777  0
F  F115  1  0.20980766  0.06773548  0.35664263  1  0  -0.245039  0  1.196624  0  0  -0.199147  0  1.360843  0  0  -0.210743  0  1.346605  0  0  -0.097762  -0.190785  0  1.37083  0
F  F116  1  0.00099471  0.01325627  0.63400131  1  0  -0.22967  0  1.180744  0  0  -0.191165  0  1.339918  0  0  -0.200181  0  1.323272  0  0  -0.097528  -0.184595  0  1.351623  0
F  F117  1  0.99900372  0.98674228  0.36599702  1  0  -0.229814  0  1.180668  0  0  -0.191254  0  1.339831  0  0  -0.200284  0  1.323172  0  0  -0.097578  -0.184687  0  1.351531  0
F  F118  1  0.96358063  0.11529874  0.75426840  1  0  -0.26432  0  1.141852  0  0  -0.221889  0  1.301029  0  0  -0.232171  0  1.285097  0  0  -0.112184  -0.214284  0  1.312066  0
F  F119  1  0.03641443  0.88469684  0.24572895  1  0  -0.264286  0  1.141856  0  0  -0.221824  0  1.301051  0  0  -0.232121  0  1.285106  0  0  -0.112105  -0.214225  0  1.31208  0
F  F120  1  0.72404679  0.92075489  0.16930837  1  0  -0.243948  0  1.184582  0  0  -0.207079  0  1.35298  0  0  -0.216799  0  1.336715  0  0  -0.104777  -0.199937  0  1.364344  0
F  F121  1  0.27595785  0.07924864  0.83069244  1  0  -0.24404  0  1.184448  0  0  -0.207157  0  1.352862  0  0  -0.216883  0  1.336586  0  0  -0.104801  -0.200008  0  1.364229  0
F  F122  1  0.92527152  0.07908665  0.17332308  1  0  -0.248344  0  1.192672  0  0  -0.214209  0  1.365613  0  0  -0.222788  0  1.347912  0  0  -0.108446  -0.20803  0  1.378053  0
F  F123  1  0.07473119  0.92091489  0.82667643  1  0  -0.24839  0  1.192586  0  0  -0.21424  0  1.365547  0  0  -0.222826  0  1.347836  0  0  -0.108423  -0.208055  0  1.37799  0
F  F124  1  0.72985051  0.07848157  0.09431315  1  0  -0.268472  0  1.171326  0  0  -0.231113  0  1.346099  0  0  -0.241428  0  1.330055  0  0  -0.112693  -0.223494  0  1.357222  0
F  F125  1  0.27015228  0.92152194  0.90568939  1  0  -0.268543  0  1.171311  0  0  -0.231171  0  1.346108  0  0  -0.24149  0  1.330051  0  0  -0.112703  -0.223546  0  1.357233  0
