# generated using pymatgen
data_TbCuH22C18IN5O9
_symmetry_space_group_name_H-M   'P 1'
_cell_length_a   10.87910498
_cell_length_b   12.76897834
_cell_length_c   14.50703193
_cell_angle_alpha   92.17390067
_cell_angle_beta   95.62407669
_cell_angle_gamma   120.80309652
_symmetry_Int_Tables_number   1
_chemical_formula_structural   TbCuH22C18IN5O9
_chemical_formula_sum   'Tb2 Cu2 H44 C36 I2 N10 O18'
_cell_volume   1713.44924795
_cell_formula_units_Z   2
loop_
 _symmetry_equiv_pos_site_id
 _symmetry_equiv_pos_as_xyz
  1  'x, y, z'
loop_
 _atom_site_type_symbol
 _atom_site_label
 _atom_site_symmetry_multiplicity
 _atom_site_fract_x
 _atom_site_fract_y
 _atom_site_fract_z
 _atom_site_occupancy
 _atom_site_hle17_bader_spin_density
 _atom_site_hle17_ddec_charge
 _atom_site_hle17_ddec_spin_density
 _atom_site_hle17_ddec_sum_bond_order
 _atom_site_hle17_magmom
 _atom_site_hse06_10hf_bader_spin_density
 _atom_site_hse06_10hf_ddec_charge
 _atom_site_hse06_10hf_ddec_spin_density
 _atom_site_hse06_10hf_ddec_sum_bond_order
 _atom_site_hse06_10hf_magmom
 _atom_site_hse06_bader_spin_density
 _atom_site_hse06_ddec_charge
 _atom_site_hse06_ddec_spin_density
 _atom_site_hse06_ddec_sum_bond_order
 _atom_site_hse06_magmom
 _atom_site_pbe_bader_spin_density
 _atom_site_pbe_cm5_charge
 _atom_site_pbe_ddec_charge
 _atom_site_pbe_ddec_spin_density
 _atom_site_pbe_ddec_sum_bond_order
 _atom_site_pbe_magmom
Tb  Tb0  1  0.72199017  0.12443421  0.03617207  1  0  2.236187  0  1.691531  0  0  2.088439  0  2.16787  0  0  2.210936  0  1.986887  0  0  1.524307  2.050048  0  2.202825  0
Tb  Tb1  1  0.27800494  0.87556416  0.96382158  1  0  2.236143  0  1.69158  0  0  2.088484  0  2.167734  0  0  2.210863  0  1.986965  0  0  1.52418  2.05001  0  2.202847  0
Cu  Cu2  1  0.48832720  0.50306945  0.41224035  1  0  0.304484  0  2.21723  0  0  0.204756  0  2.717712  0  0  0.201162  0  2.673225  0  0  0.367413  0.211516  0  2.742778  0
Cu  Cu3  1  0.51167216  0.49693349  0.58776414  1  0  0.304489  0  2.217358  0  0  0.204792  0  2.717821  0  0  0.201204  0  2.67334  0  0  0.367415  0.211492  0  2.74292  0
H  H4  1  0.26552202  0.70513508  0.22413187  1  0  0.10104  0  0.954234  0  0  0.111396  0  1.01591  0  0  0.114875  0  1.013567  0  0  0.106672  0.108934  0  1.017584  0
H  H5  1  0.73448501  0.29487808  0.77586808  1  0  0.101033  0  0.954226  0  0  0.111398  0  1.015897  0  0  0.114877  0  1.013554  0  0  0.106694  0.108931  0  1.017572  0
H  H6  1  0.19951895  0.14750371  0.15974321  1  0  0.117861  0  0.949793  0  0  0.125064  0  1.01472  0  0  0.129132  0  1.012178  0  0  0.109871  0.121976  0  1.016927  0
H  H7  1  0.80048571  0.85250847  0.84025444  1  0  0.117874  0  0.94965  0  0  0.125055  0  1.014616  0  0  0.129128  0  1.012068  0  0  0.109859  0.121973  0  1.016818  0
H  H8  1  0.72778312  0.88616091  0.24622192  1  0  0.113448  0  0.957432  0  0  0.121418  0  1.021856  0  0  0.124841  0  1.020367  0  0  0.111042  0.118938  0  1.023087  0
H  H9  1  0.27222629  0.11383816  0.75377086  1  0  0.113525  0  0.957458  0  0  0.121396  0  1.022019  0  0  0.124803  0  1.020547  0  0  0.111057  0.118923  0  1.023249  0
H  H10  1  0.65901321  0.29045147  0.20145266  1  0  0.129556  0  0.950041  0  0  0.137927  0  1.01143  0  0  0.142057  0  1.008362  0  0  0.118491  0.134704  0  1.014338  0
H  H11  1  0.34097602  0.70952236  0.79856451  1  0  0.129669  0  0.94985  0  0  0.137993  0  1.011272  0  0  0.142134  0  1.00819  0  0  0.118533  0.134788  0  1.014174  0
H  H12  1  0.23874116  0.29462531  0.29445054  1  0  0.083477  0  0.972441  0  0  0.086854  0  1.044858  0  0  0.090407  0  1.041652  0  0  0.102941  0.084244  0  1.047234  0
H  H13  1  0.76125379  0.70538106  0.70554474  1  0  0.083477  0  0.972615  0  0  0.086848  0  1.04502  0  0  0.090404  0  1.041811  0  0  0.102933  0.084257  0  1.047406  0
H  H14  1  0.27265007  0.56676695  0.34154375  1  0  0.082069  0  0.953111  0  0  0.087864  0  1.018933  0  0  0.092018  0  1.015083  0  0  0.104079  0.084674  0  1.021992  0
H  H15  1  0.72735439  0.43324339  0.65845934  1  0  0.082074  0  0.953269  0  0  0.087853  0  1.019104  0  0  0.092004  0  1.01526  0  0  0.104078  0.08467  0  1.022171  0
H  H16  1  0.68056090  0.43672667  0.33164302  1  0  0.079722  0  0.96169  0  0  0.084938  0  1.028527  0  0  0.089106  0  1.02472  0  0  0.101173  0.081882  0  1.031297  0
H  H17  1  0.31943335  0.56324469  0.66837861  1  0  0.079681  0  0.96172  0  0  0.08487  0  1.028584  0  0  0.089032  0  1.024774  0  0  0.101115  0.081796  0  1.031352  0
H  H18  1  0.82447259  0.14759708  0.81223185  1  0  0.044242  0  0.921454  0  0  0.052849  0  0.989914  0  0  0.055214  0  0.983967  0  0  0.127862  0.050932  0  0.994374  0
H  H19  1  0.17553506  0.85240722  0.18776510  1  0  0.044239  0  0.921484  0  0  0.052835  0  0.989954  0  0  0.055222  0  0.983988  0  0  0.12787  0.050955  0  0.994374  0
H  H20  1  0.89567526  0.40166338  0.92731019  1  0  0.04078  0  0.926502  0  0  0.049501  0  0.996792  0  0  0.051747  0  0.991253  0  0  0.127046  0.047695  0  1.000845  0
H  H21  1  0.10432797  0.59833978  0.07269118  1  0  0.040727  0  0.926486  0  0  0.049459  0  0.996781  0  0  0.051704  0  0.991241  0  0  0.127034  0.047656  0  1.000832  0
H  H22  1  0.71644026  0.73728520  0.36093608  1  0  0.070208  0  0.98203  0  0  0.07382  0  1.056074  0  0  0.078038  0  1.051799  0  0  0.096229  0.07071  0  1.059149  0
H  H23  1  0.28356553  0.26272078  0.63906284  1  0  0.07018  0  0.982069  0  0  0.073794  0  1.056118  0  0  0.078011  0  1.051845  0  0  0.09623  0.070687  0  1.059193  0
H  H24  1  0.88775669  0.06784642  0.70814419  1  0  0.109397  0  0.920482  0  0  0.131533  0  0.976633  0  0  0.132365  0  0.976628  0  0  0.116391  0.130839  0  0.976732  0
H  H25  1  0.11223892  0.93216269  0.29184847  1  0  0.109389  0  0.920663  0  0  0.131528  0  0.976786  0  0  0.13236  0  0.976781  0  0  0.116337  0.130802  0  0.976884  0
H  H26  1  0.99249946  0.00228031  0.74611074  1  0  0.117089  0  0.948394  0  0  0.13173  0  1.017843  0  0  0.133282  0  1.016716  0  0  0.109353  0.130447  0  1.018829  0
H  H27  1  0.00749519  0.99772524  0.25387484  1  0  0.117101  0  0.948281  0  0  0.13175  0  1.01773  0  0  0.133302  0  1.0166  0  0  0.109362  0.130474  0  1.018707  0
H  H28  1  0.07863904  0.15319537  0.70919157  1  0  0.100824  0  0.938215  0  0  0.122576  0  0.998312  0  0  0.123199  0  0.998286  0  0  0.105507  0.122046  0  0.998292  0
H  H29  1  0.92135979  0.84681297  0.29080410  1  0  0.100857  0  0.938071  0  0  0.122579  0  0.998238  0  0  0.123205  0  0.998204  0  0  0.105504  0.122051  0  0.998213  0
H  H30  1  0.90991812  0.55087308  0.85317728  1  0  0.111503  0  0.92685  0  0  0.132882  0  0.98565  0  0  0.133739  0  0.985468  0  0  0.115196  0.132161  0  0.985841  0
H  H31  1  0.09009882  0.44912983  0.14682660  1  0  0.111435  0  0.927216  0  0  0.132876  0  0.985901  0  0  0.133735  0  0.985716  0  0  0.115195  0.132148  0  0.986103  0
H  H32  1  0.89311355  0.66205462  0.91941884  1  0  0.115679  0  0.960134  0  0  0.129265  0  1.032512  0  0  0.130809  0  1.032121  0  0  0.109378  0.12797  0  1.03327  0
H  H33  1  0.10689705  0.33794530  0.08058649  1  0  0.115698  0  0.959955  0  0  0.129202  0  1.032444  0  0  0.130752  0  1.032033  0  0  0.109337  0.127907  0  1.033207  0
H  H34  1  0.74300449  0.54827966  0.83853528  1  0  0.096295  0  0.94688  0  0  0.114869  0  1.012723  0  0  0.114987  0  1.014109  0  0  0.101254  0.114629  0  1.011852  0
H  H35  1  0.25701069  0.45172672  0.16146926  1  0  0.096256  0  0.946824  0  0  0.114849  0  1.012663  0  0  0.114965  0  1.014054  0  0  0.101238  0.114626  0  1.011764  0
H  H36  1  0.10770618  0.17124419  0.97784479  1  0  0.120528  0  0.936665  0  0  0.140462  0  0.996551  0  0  0.142447  0  0.994793  0  0  0.115723  0.138975  0  0.997763  0
H  H37  1  0.89227884  0.82874297  0.02215317  1  0  0.120462  0  0.9368  0  0  0.140385  0  0.996703  0  0  0.142366  0  0.994952  0  0  0.115734  0.138914  0  0.997902  0
H  H38  1  0.22949344  0.22196460  0.89212934  1  0  0.087971  0  0.937212  0  0  0.106929  0  1.004202  0  0  0.106965  0  1.004622  0  0  0.100287  0.106838  0  1.003822  0
H  H39  1  0.77049644  0.77802809  0.10787472  1  0  0.088018  0  0.936872  0  0  0.106957  0  1.003911  0  0  0.106991  0  1.004329  0  0  0.100323  0.106869  0  1.003526  0
H  H40  1  0.12121084  0.06270024  0.90427125  1  0  0.125691  0  0.952633  0  0  0.143083  0  1.018274  0  0  0.144427  0  1.017522  0  0  0.114497  0.141858  0  1.019374  0
H  H41  1  0.87878139  0.93728641  0.09572178  1  0  0.125679  0  0.952746  0  0  0.143069  0  1.018397  0  0  0.144402  0  1.017653  0  0  0.114489  0.141843  0  1.019494  0
H  H42  1  0.64955922  0.42303248  0.06518598  1  0  0.118211  0  0.954123  0  0  0.134352  0  1.019676  0  0  0.135592  0  1.019373  0  0  0.11341  0.133463  0  1.019781  0
H  H43  1  0.35044871  0.57695931  0.93481609  1  0  0.118199  0  0.954307  0  0  0.134372  0  1.019821  0  0  0.135609  0  1.019522  0  0  0.113448  0.133491  0  1.019927  0
H  H44  1  0.59729607  0.48810711  0.97271592  1  0  0.093621  0  0.928626  0  0  0.116422  0  0.986795  0  0  0.116782  0  0.986947  0  0  0.106868  0.116208  0  0.986537  0
H  H45  1  0.40270286  0.51188690  0.02728962  1  0  0.093653  0  0.928475  0  0  0.116448  0  0.986674  0  0  0.116811  0  0.986826  0  0  0.106883  0.116246  0  0.986417  0
H  H46  1  0.74544130  0.58574418  0.06036898  1  0  0.099309  0  0.937799  0  0  0.121587  0  0.997855  0  0  0.121936  0  0.997946  0  0  0.107527  0.12127  0  0.997741  0
H  H47  1  0.25456093  0.41424910  0.93963612  1  0  0.099253  0  0.937665  0  0  0.121581  0  0.997693  0  0  0.121931  0  0.997784  0  0  0.107533  0.121276  0  0.997573  0
C  C48  1  0.49662190  0.80344898  0.22358966  1  0  -0.020503  0  3.721026  0  0  -0.003153  0  3.951069  0  0  -0.00401  0  3.967742  0  0  -0.00528  -0.002116  0  3.938692  0
C  C49  1  0.50338346  0.19655612  0.77640506  1  0  -0.020591  0  3.720852  0  0  -0.003117  0  3.950679  0  0  -0.003967  0  3.967351  0  0  -0.005268  -0.002103  0  3.938314  0
C  C50  1  0.36749944  0.71448868  0.25263732  1  0  -0.122639  0  3.736598  0  0  -0.144798  0  3.983652  0  0  -0.14951  0  4.003514  0  0  -0.083123  -0.141822  0  3.970157  0
C  C51  1  0.63250969  0.28551834  0.74736260  1  0  -0.122508  0  3.736295  0  0  -0.144713  0  3.983345  0  0  -0.149424  0  4.003198  0  0  -0.083124  -0.141723  0  3.969855  0
C  C52  1  0.40857732  0.11676183  0.09309630  1  0  0.70686  0  3.86598  0  0  0.661994  0  4.153102  0  0  0.699069  0  4.143868  0  0  0.227739  0.636678  0  4.162832  0
C  C53  1  0.59141777  0.88323022  0.90690748  1  0  0.706885  0  3.865558  0  0  0.661901  0  4.1529  0  0  0.698966  0  4.143695  0  0  0.227761  0.636569  0  4.162644  0
C  C54  1  0.49779853  0.88148131  0.14849591  1  0  0.720732  0  3.843861  0  0  0.676908  0  4.131632  0  0  0.714581  0  4.11949  0  0  0.234242  0.65156  0  4.141894  0
C  C55  1  0.50219612  0.11851968  0.85150262  1  0  0.720588  0  3.844369  0  0  0.676817  0  4.131985  0  0  0.714469  0  4.11988  0  0  0.234197  0.651488  0  4.142255  0
C  C56  1  0.42705681  0.20791387  0.16928071  1  0  -0.030666  0  3.735787  0  0  -0.013619  0  3.968221  0  0  -0.015422  0  3.985683  0  0  -0.006532  -0.011972  0  3.955284  0
C  C57  1  0.57293689  0.79208076  0.83072649  1  0  -0.030836  0  3.736215  0  0  -0.013792  0  3.968699  0  0  -0.015597  0  3.98617  0  0  -0.006709  -0.012134  0  3.955765  0
C  C58  1  0.30795805  0.21017778  0.19588065  1  0  -0.124064  0  3.717698  0  0  -0.145463  0  3.964402  0  0  -0.150107  0  3.984191  0  0  -0.082218  -0.142351  0  3.951094  0
C  C59  1  0.69203920  0.78981973  0.80412211  1  0  -0.123929  0  3.717549  0  0  -0.145317  0  3.964272  0  0  -0.149957  0  3.984056  0  0  -0.082181  -0.142236  0  3.950993  0
C  C60  1  0.62525729  0.81467240  0.26462033  1  0  -0.121808  0  3.726918  0  0  -0.143318  0  3.970856  0  0  -0.147417  0  3.989559  0  0  -0.081793  -0.14064  0  3.958183  0
C  C61  1  0.37473802  0.18532781  0.73536789  1  0  -0.121974  0  3.727078  0  0  -0.143447  0  3.970997  0  0  -0.147538  0  3.98971  0  0  -0.081867  -0.140754  0  3.958322  0
C  C62  1  0.56385093  0.29050339  0.21856537  1  0  -0.115438  0  3.698414  0  0  -0.136033  0  3.94092  0  0  -0.139626  0  3.958672  0  0  -0.07505  -0.133779  0  3.929095  0
C  C63  1  0.43614635  0.70947976  0.78145001  1  0  -0.115591  0  3.698622  0  0  -0.136094  0  3.941062  0  0  -0.139693  0  3.958806  0  0  -0.074937  -0.133837  0  3.929238  0
C  C64  1  0.32942519  0.29311061  0.26963952  1  0  0.102939  0  3.689981  0  0  0.076538  0  3.938735  0  0  0.081807  0  3.954135  0  0  0.032224  0.072493  0  3.929661  0
C  C65  1  0.67057847  0.70689168  0.73036186  1  0  0.102828  0  3.689966  0  0  0.076485  0  3.938714  0  0  0.081754  0  3.954111  0  0  0.032302  0.072506  0  3.929645  0
C  C66  1  0.37053212  0.63747349  0.31674441  1  0  0.107727  0  3.695336  0  0  0.081859  0  3.941708  0  0  0.087788  0  3.956214  0  0  0.034867  0.077867  0  3.9325  0
C  C67  1  0.62947056  0.36253505  0.68324951  1  0  0.107747  0  3.695451  0  0  0.081833  0  3.941839  0  0  0.087765  0  3.956338  0  0  0.034925  0.077835  0  3.932654  0
C  C68  1  0.57647660  0.37157495  0.29067127  1  0  0.111179  0  3.685728  0  0  0.08719  0  3.927768  0  0  0.092265  0  3.942589  0  0  0.037776  0.083641  0  3.91844  0
C  C69  1  0.42351828  0.62840720  0.70934320  1  0  0.111207  0  3.686206  0  0  0.087255  0  3.928246  0  0  0.092342  0  3.943065  0  0  0.037737  0.083702  0  3.918904  0
C  C70  1  0.91418730  0.16832600  0.86687552  1  0  0.417362  0  3.822625  0  0  0.338868  0  4.118207  0  0  0.367972  0  4.120209  0  0  0.182087  0.319368  0  4.119037  0
C  C71  1  0.08581322  0.83167708  0.13311942  1  0  0.417308  0  3.822527  0  0  0.338824  0  4.118128  0  0  0.367911  0  4.120124  0  0  0.181995  0.319302  0  4.118943  0
C  C72  1  0.82701452  0.40452399  0.97729299  1  0  0.414205  0  3.822129  0  0  0.335059  0  4.12395  0  0  0.363461  0  4.126796  0  0  0.182741  0.316066  0  4.123865  0
C  C73  1  0.17298986  0.59547298  0.02270828  1  0  0.414305  0  3.82214  0  0  0.335134  0  4.123985  0  0  0.363533  0  4.126827  0  0  0.182814  0.316183  0  4.123889  0
C  C74  1  0.61949800  0.73355114  0.32752321  1  0  0.107241  0  3.699721  0  0  0.080173  0  3.946483  0  0  0.086057  0  3.960647  0  0  0.032407  0.075757  0  3.93833  0
C  C75  1  0.38050523  0.26644852  0.67247115  1  0  0.107436  0  3.700063  0  0  0.08032  0  3.946791  0  0  0.086201  0  3.960956  0  0  0.032438  0.075895  0  3.938634  0
C  C76  1  0.99098543  0.08763361  0.74579489  1  0  -0.178262  0  3.649284  0  0  -0.2777  0  3.893351  0  0  -0.274895  0  3.904197  0  0  -0.124937  -0.279183  0  3.885826  0
C  C77  1  0.00902082  0.91237151  0.25420266  1  0  -0.178266  0  3.649224  0  0  -0.277686  0  3.893252  0  0  -0.27489  0  3.904119  0  0  -0.124874  -0.279148  0  3.885699  0
C  C78  1  0.83545486  0.56618435  0.88900049  1  0  -0.185148  0  3.653071  0  0  -0.290498  0  3.909781  0  0  -0.288169  0  3.92155  0  0  -0.131977  -0.291619  0  3.901571  0
C  C79  1  0.16454605  0.43382310  0.11100704  1  0  -0.185027  0  3.653006  0  0  -0.290361  0  3.909675  0  0  -0.28803  0  3.921449  0  0  -0.131909  -0.291511  0  3.901445  0
C  C80  1  0.12361057  0.14969258  0.90789575  1  0  -0.171857  0  3.61661  0  0  -0.273056  0  3.863771  0  0  -0.269118  0  3.871568  0  0  -0.131731  -0.275157  0  3.858054  0
C  C81  1  0.87638375  0.85030757  0.09209445  1  0  -0.171717  0  3.61622  0  0  -0.272912  0  3.863456  0  0  -0.268955  0  3.871252  0  0  -0.131723  -0.275033  0  3.85774  0
C  C82  1  0.68876344  0.49596453  0.01886418  1  0  -0.16329  0  3.645178  0  0  -0.259368  0  3.880825  0  0  -0.255524  0  3.890163  0  0  -0.126521  -0.261588  0  3.873977  0
C  C83  1  0.31124636  0.50403892  0.98114119  1  0  -0.163196  0  3.645079  0  0  -0.259364  0  3.880761  0  0  -0.255523  0  3.890104  0  0  -0.126495  -0.261589  0  3.873913  0
I  I84  1  0.24895027  0.40298044  0.49242705  1  0  -0.509455  0  1.257682  0  0  -0.463317  0  1.592991  0  0  -0.48505  0  1.564585  0  0  -0.275628  -0.447258  0  1.610871  0
I  I85  1  0.75104850  0.59703138  0.50757907  1  0  -0.509426  0  1.257718  0  0  -0.463307  0  1.593042  0  0  -0.485037  0  1.56463  0  0  -0.275595  -0.447197  0  1.610903  0
N  N86  1  0.49403496  0.64367072  0.35193690  1  0  -0.249096  0  3.348542  0  0  -0.177913  0  3.633215  0  0  -0.184574  0  3.639036  0  0  -0.357482  -0.17435  0  3.629207  0
N  N87  1  0.50597221  0.35633268  0.64805861  1  0  -0.249199  0  3.348905  0  0  -0.177905  0  3.633477  0  0  -0.184568  0  3.639299  0  0  -0.357539  -0.174372  0  3.629477  0
N  N88  1  0.46173350  0.37400476  0.31639003  1  0  -0.247717  0  3.352261  0  0  -0.177826  0  3.639605  0  0  -0.184485  0  3.64584  0  0  -0.356377  -0.174218  0  3.635142  0
N  N89  1  0.53826178  0.62598281  0.68361707  1  0  -0.247578  0  3.352464  0  0  -0.177794  0  3.639904  0  0  -0.184455  0  3.646143  0  0  -0.356391  -0.174208  0  3.635464  0
N  N90  1  0.00735329  0.13860605  0.84097057  1  0  -0.076337  0  3.494819  0  0  0.028715  0  3.729513  0  0  0.009063  0  3.75393  0  0  -0.272716  0.042052  0  3.711944  0
N  N91  1  0.99264598  0.86139160  0.15902684  1  0  -0.076381  0  3.494696  0  0  0.028706  0  3.729342  0  0  0.009048  0  3.75377  0  0  -0.272652  0.042046  0  3.711786  0
N  N92  1  0.91071770  0.17390278  0.20675524  1  0  0.720258  0  4.116747  0  0  0.741184  0  4.426585  0  0  0.76948  0  4.436275  0  0  0.079142  0.721777  0  4.423043  0
N  N93  1  0.08926936  0.82609435  0.79323495  1  0  0.720009  0  4.115361  0  0  0.740925  0  4.425311  0  0  0.769232  0  4.434974  0  0  0.079345  0.721501  0  4.421767  0
N  N94  1  0.78569653  0.48517923  0.96235209  1  0  -0.077774  0  3.492886  0  0  0.027969  0  3.725898  0  0  0.007993  0  3.751193  0  0  -0.275332  0.04157  0  3.707671  0
N  N95  1  0.21430969  0.51482588  0.03764684  1  0  -0.077791  0  3.492918  0  0  0.027974  0  3.725954  0  0  0.007999  0  3.751251  0  0  -0.27535  0.041581  0  3.707736  0
O  O96  1  0.61984693  0.96036767  0.12724662  1  0  -0.725021  0  2.074741  0  0  -0.677965  0  2.326302  0  0  -0.712776  0  2.313298  0  0  -0.390076  -0.660482  0  2.333246  0
O  O97  1  0.38015627  0.03964179  0.87274738  1  0  -0.72486  0  2.075023  0  0  -0.677882  0  2.326585  0  0  -0.712663  0  2.313599  0  0  -0.390023  -0.660412  0  2.333549  0
O  O98  1  0.37529916  0.85994470  0.11033866  1  0  -0.751918  0  2.083847  0  0  -0.702021  0  2.33812  0  0  -0.737849  0  2.324941  0  0  -0.398393  -0.683495  0  2.344885  0
O  O99  1  0.62469762  0.14006173  0.88966022  1  0  -0.751945  0  2.083947  0  0  -0.702057  0  2.338181  0  0  -0.737899  0  2.324993  0  0  -0.398449  -0.683555  0  2.34493  0
O  O100  1  0.52087978  0.11986723  0.07117596  1  0  -0.788145  0  2.164163  0  0  -0.734445  0  2.426903  0  0  -0.774731  0  2.41308  0  0  -0.416378  -0.71633  0  2.435463  0
O  O101  1  0.47912133  0.88014206  0.92882613  1  0  -0.788136  0  2.164132  0  0  -0.734402  0  2.426924  0  0  -0.774671  0  2.41313  0  0  -0.416341  -0.716256  0  2.435485  0
O  O102  1  0.28163484  0.03765253  0.05444107  1  0  -0.695739  0  1.999011  0  0  -0.645364  0  2.239291  0  0  -0.678361  0  2.227407  0  0  -0.376495  -0.628085  0  2.245456  0
O  O103  1  0.71837165  0.96234988  0.94556193  1  0  -0.695755  0  1.998523  0  0  -0.645346  0  2.238878  0  0  -0.678355  0  2.226984  0  0  -0.376535  -0.62808  0  2.24504  0
O  O104  1  0.79349931  0.33673740  0.04218077  1  0  -0.623162  0  2.111479  0  0  -0.573132  0  2.375772  0  0  -0.606057  0  2.366901  0  0  -0.369171  -0.556483  0  2.37989  0
O  O105  1  0.20649949  0.66326111  0.95781802  1  0  -0.623284  0  2.111319  0  0  -0.573261  0  2.375621  0  0  -0.606169  0  2.36675  0  0  -0.369192  -0.556595  0  2.379738  0
O  O106  1  0.92295599  0.21565697  0.94685156  1  0  -0.638247  0  2.1215  0  0  -0.587446  0  2.388051  0  0  -0.620359  0  2.379979  0  0  -0.373262  -0.57054  0  2.392279  0
O  O107  1  0.07704556  0.78434620  0.05313933  1  0  -0.638227  0  2.121199  0  0  -0.587486  0  2.38782  0  0  -0.620382  0  2.379763  0  0  -0.373243  -0.570554  0  2.39205  0
O  O108  1  0.82205128  0.21215382  0.19904474  1  0  -0.537456  0  1.760447  0  0  -0.528628  0  1.986871  0  0  -0.551621  0  1.976208  0  0  -0.244267  -0.517652  0  1.993367  0
O  O109  1  0.17794524  0.78783042  0.80094235  1  0  -0.537155  0  1.759732  0  0  -0.528404  0  1.986193  0  0  -0.551378  0  1.97553  0  0  -0.244127  -0.51744  0  1.992693  0
O  O110  1  0.92927507  0.13303342  0.12913929  1  0  -0.579054  0  1.776188  0  0  -0.56468  0  2.015643  0  0  -0.589494  0  2.006671  0  0  -0.257922  -0.552258  0  2.021175  0
O  O111  1  0.07073437  0.86699126  0.87088261  1  0  -0.579302  0  1.775537  0  0  -0.564804  0  2.014834  0  0  -0.589631  0  2.005911  0  0  -0.25815  -0.552392  0  2.02038  0
O  O112  1  0.97459751  0.17530723  0.28214023  1  0  -0.3749  0  1.734717  0  0  -0.367261  0  1.931611  0  0  -0.376436  0  1.924483  0  0  -0.143129  -0.360412  0  1.936264  0
O  O113  1  0.02535645  0.82469189  0.71784729  1  0  -0.374753  0  1.734425  0  0  -0.367068  0  1.931275  0  0  -0.376261  0  1.924163  0  0  -0.143172  -0.360261  0  1.935945  0
