# generated using pymatgen
data_ZnH10C16(NO)4
_symmetry_space_group_name_H-M   'P 1'
_cell_length_a   7.52356288
_cell_length_b   22.14811950
_cell_length_c   22.79649979
_cell_angle_alpha   100.36691845
_cell_angle_beta   89.99998860
_cell_angle_gamma   90.00021229
_symmetry_Int_Tables_number   1
_chemical_formula_structural   ZnH10C16(NO)4
_chemical_formula_sum   'Zn8 H80 C128 N32 O32'
_cell_volume   3736.63307285
_cell_formula_units_Z   8
loop_
 _symmetry_equiv_pos_site_id
 _symmetry_equiv_pos_as_xyz
  1  'x, y, z'
loop_
 _atom_site_type_symbol
 _atom_site_label
 _atom_site_symmetry_multiplicity
 _atom_site_fract_x
 _atom_site_fract_y
 _atom_site_fract_z
 _atom_site_occupancy
 _atom_site_pbe_bader_charge
 _atom_site_pbe_bader_spin_density
 _atom_site_pbe_cm5_charge
 _atom_site_pbe_ddec_charge
 _atom_site_pbe_ddec_spin_density
 _atom_site_pbe_ddec_sum_bond_order
 _atom_site_pbe_magmom
Zn  Zn0  1  0.48623640  0.75280617  0.73028106  1  1.353527  0  0.705295  0.869261  0  2.280836  0
Zn  Zn1  1  0.98623352  0.74719343  0.76971821  1  1.353552  0  0.705303  0.869264  0  2.280713  0
Zn  Zn2  1  0.51377119  0.24718761  0.26971730  1  1.353451  0  0.705352  0.869393  0  2.28063  0
Zn  Zn3  1  0.01376211  0.25281083  0.23028569  1  1.353494  0  0.705316  0.869305  0  2.280635  0
Zn  Zn4  1  0.56876117  0.75513886  0.27171426  1  1.338989  0  0.710108  0.85546  0  2.367827  0
Zn  Zn5  1  0.06877460  0.74486485  0.22828517  1  1.339103  0  0.710123  0.855515  0  2.367968  0
Zn  Zn6  1  0.43121585  0.24486585  0.72829017  1  1.338869  0  0.71007  0.855388  0  2.368044  0
Zn  Zn7  1  0.93122502  0.25513584  0.77171321  1  1.339077  0  0.710091  0.855442  0  2.367932  0
H  H8  1  0.18009115  0.67293389  0.34133812  1  0.225494  0  0.158124  0.139883  0  0.964448  0
H  H9  1  0.68008648  0.82705593  0.15864896  1  0.225417  0  0.158124  0.13987  0  0.964391  0
H  H10  1  0.81990847  0.32706777  0.65865782  1  0.225181  0  0.158114  0.139919  0  0.964327  0
H  H11  1  0.31990517  0.17293786  0.84134896  1  0.22538  0  0.158109  0.139849  0  0.964287  0
H  H12  1  0.83959323  0.06900604  0.69918163  1  0.162106  0  0.108203  0.125144  0  1.026947  0
H  H13  1  0.33961530  0.43099808  0.80080995  1  0.162237  0  0.108227  0.125157  0  1.026981  0
H  H14  1  0.16039176  0.93099434  0.30080924  1  0.162117  0  0.108192  0.125112  0  1.027005  0
H  H15  1  0.66040691  0.56900548  0.19918329  1  0.162015  0  0.108196  0.125099  0  1.027012  0
H  H16  1  0.87148648  0.83210434  0.67259363  1  0.237933  0  0.153534  0.142723  0  0.994541  0
H  H17  1  0.37148977  0.66790328  0.82741116  1  0.237535  0  0.153538  0.142711  0  0.994565  0
H  H18  1  0.12853041  0.16789723  0.32740668  1  0.237785  0  0.153544  0.142688  0  0.994403  0
H  H19  1  0.62852314  0.33210371  0.17259415  1  0.237848  0  0.153557  0.142753  0  0.994431  0
H  H20  1  0.82467557  0.95866017  0.64654777  1  0.061375  0  0.104819  0.110424  0  0.999626  0
H  H21  1  0.32467483  0.54134318  0.85343822  1  0.061368  0  0.104864  0.110439  0  0.999499  0
H  H22  1  0.17532804  0.04133934  0.35344074  1  0.061362  0  0.104833  0.110407  0  0.999563  0
H  H23  1  0.67532478  0.45865717  0.14655440  1  0.061314  0  0.104842  0.110416  0  0.999496  0
H  H24  1  0.97656557  0.55957807  0.28120501  1  0.0833  0  0.106266  0.117821  0  1.01407  0
H  H25  1  0.47656383  0.94041884  0.21879174  1  0.082809  0  0.106281  0.117823  0  1.014095  0
H  H26  1  0.02343006  0.44041988  0.71879197  1  0.082721  0  0.106228  0.117757  0  1.014093  0
H  H27  1  0.52343978  0.05957772  0.78120541  1  0.082641  0  0.106255  0.117764  0  1.013922  0
H  H28  1  0.42439519  0.84523492  0.63545142  1  0.173232  0  0.161081  0.141667  0  0.954053  0
H  H29  1  0.92440061  0.65475683  0.86454459  1  0.173149  0  0.161062  0.141659  0  0.954119  0
H  H30  1  0.57561240  0.15475967  0.36455236  1  0.173165  0  0.16104  0.141636  0  0.954145  0
H  H31  1  0.07559901  0.34523599  0.13545534  1  0.173239  0  0.161078  0.141666  0  0.954094  0
H  H32  1  0.92272482  0.45209265  0.23293678  1  0.089859  0  0.098745  0.095115  0  1.017998  0
H  H33  1  0.42271752  0.04790315  0.26706345  1  0.089885  0  0.098734  0.095103  0  1.017964  0
H  H34  1  0.07726284  0.54790192  0.76706745  1  0.089758  0  0.098737  0.095102  0  1.017933  0
H  H35  1  0.57727811  0.95209245  0.73293614  1  0.08985  0  0.09875  0.095126  0  1.017931  0
H  H36  1  0.40328267  0.07053238  0.66841446  1  0.16099  0  0.107834  0.129252  0  1.030863  0
H  H37  1  0.90328307  0.42947173  0.83158149  1  0.160861  0  0.107843  0.12919  0  1.03085  0
H  H38  1  0.59671296  0.92947013  0.33158515  1  0.160767  0  0.107843  0.129234  0  1.030747  0
H  H39  1  0.09672452  0.57053180  0.16841306  1  0.160831  0  0.107853  0.12926  0  1.030822  0
H  H40  1  0.71292106  0.41123900  0.39611000  1  0.082931  0  0.102616  0.103893  0  1.005177  0
H  H41  1  0.21290492  0.08876150  0.10389511  1  0.083006  0  0.102615  0.103876  0  1.005243  0
H  H42  1  0.28709716  0.58876829  0.60390326  1  0.082732  0  0.102591  0.103806  0  1.005244  0
H  H43  1  0.78709071  0.91123409  0.89610492  1  0.082718  0  0.102596  0.103812  0  1.005153  0
H  H44  1  0.78718830  0.51675637  0.44832587  1  0.082744  0  0.100402  0.110009  0  1.019831  0
H  H45  1  0.28717773  0.98324667  0.05167472  1  0.082723  0  0.100383  0.11  0  1.019888  0
H  H46  1  0.21282992  0.48325244  0.55168067  1  0.08293  0  0.100415  0.110065  0  1.019922  0
H  H47  1  0.71282587  0.01675125  0.94832400  1  0.082785  0  0.100386  0.110021  0  1.019865  0
H  H48  1  0.08547771  0.67155542  0.59489868  1  0.105372  0  0.107969  0.11574  0  1.010199  0
H  H49  1  0.58548366  0.82844319  0.90510090  1  0.105306  0  0.107967  0.115741  0  1.010214  0
H  H50  1  0.91451925  0.32844153  0.40510205  1  0.105295  0  0.108002  0.115784  0  1.010186  0
H  H51  1  0.41453191  0.17156717  0.09489760  1  0.105109  0  0.10811  0.115918  0  1.010112  0
H  H52  1  0.15888021  0.63003221  0.48680671  1  0.075618  0  0.105148  0.110507  0  0.993687  0
H  H53  1  0.65887735  0.86996514  0.01319367  1  0.075802  0  0.105121  0.110414  0  0.993666  0
H  H54  1  0.84111808  0.36996381  0.51319472  1  0.075727  0  0.105142  0.110503  0  0.993644  0
H  H55  1  0.34113024  0.13004196  0.98680683  1  0.075452  0  0.105135  0.110494  0  0.993606  0
H  H56  1  0.53210388  0.67283008  0.55085589  1  0.111606  0  0.10681  0.114992  0  0.995748  0
H  H57  1  0.03209956  0.82717082  0.94914107  1  0.111654  0  0.106849  0.114997  0  0.995606  0
H  H58  1  0.46789973  0.32716830  0.44914292  1  0.111355  0  0.106799  0.114989  0  0.995664  0
H  H59  1  0.96791468  0.17283131  0.05085452  1  0.11131  0  0.106842  0.115021  0  0.995491  0
H  H60  1  0.61944807  0.65867267  0.35719526  1  0.204692  0  0.157635  0.132826  0  0.96604  0
H  H61  1  0.11943596  0.84133975  0.14280936  1  0.204479  0  0.15764  0.132838  0  0.965944  0
H  H62  1  0.38055288  0.34133348  0.64280681  1  0.204646  0  0.157589  0.132758  0  0.966036  0
H  H63  1  0.88056233  0.15866009  0.85718535  1  0.204485  0  0.157614  0.132832  0  0.96595  0
H  H64  1  0.60112279  0.62668320  0.44456541  1  0.064059  0  0.103512  0.104292  0  1.008079  0
H  H65  1  0.10112035  0.87332615  0.05543028  1  0.064171  0  0.103541  0.104331  0  1.00811  0
H  H66  1  0.39888081  0.37332487  0.55543265  1  0.06411  0  0.103513  0.104292  0  1.008137  0
H  H67  1  0.89888459  0.12667503  0.94456644  1  0.064073  0  0.103504  0.104282  0  1.008186  0
H  H68  1  0.23494421  0.93321321  0.41558138  1  0.091874  0  0.102034  0.1035  0  1.026064  0
H  H69  1  0.73493144  0.56678745  0.08441963  1  0.091934  0  0.102012  0.103512  0  1.026051  0
H  H70  1  0.76504610  0.06678244  0.58441559  1  0.091784  0  0.102002  0.103405  0  1.02611  0
H  H71  1  0.26506685  0.43321773  0.91558444  1  0.091873  0  0.102013  0.103463  0  1.025946  0
H  H72  1  0.12560654  0.96341306  0.51959211  1  0.088796  0  0.102375  0.112661  0  1.015795  0
H  H73  1  0.62557213  0.53659108  0.98040985  1  0.088852  0  0.102276  0.112506  0  1.015888  0
H  H74  1  0.87440504  0.03658436  0.48040828  1  0.088626  0  0.102383  0.112679  0  1.01579  0
H  H75  1  0.37441419  0.46341363  0.01959458  1  0.08872  0  0.102388  0.112685  0  1.015849  0
H  H76  1  0.19336598  0.77592072  0.54501174  1  0.046233  0  0.097471  0.101795  0  1.039824  0
H  H77  1  0.69336283  0.72408215  0.95498909  1  0.046153  0  0.097445  0.101707  0  1.039816  0
H  H78  1  0.80663895  0.22407982  0.45499408  1  0.046401  0  0.097496  0.101766  0  1.039823  0
H  H79  1  0.30661951  0.27591989  0.04501044  1  0.046274  0  0.0974  0.101671  0  1.039781  0
H  H80  1  0.30668715  0.74825187  0.44198231  1  0.046049  0  0.093436  0.090212  0  1.022979  0
H  H81  1  0.80670827  0.75175122  0.05801697  1  0.045971  0  0.093393  0.090201  0  1.023063  0
H  H82  1  0.69327924  0.25174232  0.55801832  1  0.046065  0  0.093427  0.090171  0  1.023063  0
H  H83  1  0.19328338  0.24825728  0.94198249  1  0.046071  0  0.093433  0.090213  0  1.023029  0
H  H84  1  0.38851521  0.96107481  0.61451374  1  0.071949  0  0.105077  0.109518  0  0.996442  0
H  H85  1  0.88851805  0.53892883  0.88548458  1  0.071757  0  0.105067  0.109459  0  0.99643  0
H  H86  1  0.61149371  0.03892766  0.38548763  1  0.071729  0  0.105064  0.109461  0  0.996408  0
H  H87  1  0.11149220  0.46107413  0.11451556  1  0.072004  0  0.105069  0.10949  0  0.996436  0
C  C88  1  0.12257394  0.07472855  0.68795606  1  -0.046865  0  -0.015343  -0.030864  0  3.939414  0
C  C89  1  0.62258758  0.42527196  0.81204055  1  -0.047577  0  -0.015247  -0.030836  0  3.939415  0
C  C90  1  0.87741638  0.92527169  0.31204136  1  -0.047112  0  -0.015277  -0.030887  0  3.939202  0
C  C91  1  0.37743064  0.57472740  0.18795538  1  -0.046548  0  -0.01534  -0.030939  0  3.939325  0
C  C92  1  0.80512081  0.67519416  0.57831440  1  -0.063607  0  -0.009523  -0.013  0  3.933332  0
C  C93  1  0.30511647  0.82480472  0.92168565  1  -0.064391  0  -0.009477  -0.012951  0  3.933336  0
C  C94  1  0.19487881  0.32480279  0.42168634  1  -0.064705  0  -0.009375  -0.012796  0  3.933346  0
C  C95  1  0.69489378  0.17520058  0.07831231  1  -0.063634  0  -0.00948  -0.012948  0  3.933536  0
C  C96  1  0.76058089  0.70230008  0.64215843  1  1.602921  0  0.204418  0.574245  0  4.228381  0
C  C97  1  0.26058689  0.79769413  0.85784203  1  1.603744  0  0.204293  0.574112  0  4.228474  0
C  C98  1  0.23940145  0.29769366  0.35784168  1  1.603612  0  0.204333  0.574226  0  4.228779  0
C  C99  1  0.73942336  0.20230975  0.14215785  1  1.603909  0  0.204067  0.573695  0  4.228875  0
C  C100  1  0.13084962  0.14066909  0.71869946  1  1.607805  0  0.215778  0.597671  0  4.193754  0
C  C101  1  0.63085592  0.35932952  0.78130073  1  1.607963  0  0.21576  0.597588  0  4.193636  0
C  C102  1  0.86914468  0.85932837  0.28129918  1  1.607793  0  0.215759  0.597697  0  4.193716  0
C  C103  1  0.36915433  0.64067028  0.21869616  1  1.607987  0  0.215669  0.597617  0  4.193639  0
C  C104  1  0.88537775  0.62740924  0.45960431  1  0.276594  0  0.079399  0.140652  0  4.058065  0
C  C105  1  0.38537928  0.87259400  0.04039279  1  0.27723  0  0.079416  0.140696  0  4.058106  0
C  C106  1  0.11462320  0.37259420  0.54039460  1  0.276491  0  0.079492  0.140821  0  4.05785  0
C  C107  1  0.61463363  0.12740674  0.95960297  1  0.276606  0  0.079369  0.140658  0  4.058033  0
C  C108  1  0.88672109  0.54544653  0.36848756  1  0.215139  0  0.0844  0.157321  0  4.058516  0
C  C109  1  0.38670888  0.95455161  0.13151163  1  0.215461  0  0.084417  0.157405  0  4.058537  0
C  C110  1  0.11327985  0.45455591  0.63151555  1  0.215072  0  0.08444  0.157358  0  4.058483  0
C  C111  1  0.61328808  0.04544262  0.86848726  1  0.215194  0  0.084377  0.157383  0  4.058369  0
C  C112  1  0.03869408  0.68004847  0.33694361  1  0.979159  0  0.185146  0.099371  0  3.857661  0
C  C113  1  0.53868801  0.81994972  0.16305300  1  0.97925  0  0.185206  0.099454  0  3.857505  0
C  C114  1  0.96130819  0.31995458  0.66305172  1  0.979509  0  0.185227  0.099403  0  3.857433  0
C  C115  1  0.46131427  0.18004765  0.83695000  1  0.979262  0  0.185239  0.099514  0  3.857436  0
C  C116  1  0.95909233  0.04404098  0.68214466  1  0.032492  0  -0.077089  -0.071865  0  3.948025  0
C  C117  1  0.45910802  0.45596002  0.81784937  1  0.031087  0  -0.077177  -0.071938  0  3.94831  0
C  C118  1  0.04090330  0.95595928  0.31785189  1  0.031103  0  -0.077117  -0.071867  0  3.948093  0
C  C119  1  0.54091153  0.54403896  0.18214211  1  0.032552  0  -0.077125  -0.07178  0  3.948058  0
C  C120  1  0.10527835  0.95407728  0.62840652  1  0.273328  0  0.078932  0.136107  0  4.061103  0
C  C121  1  0.60527462  0.54592192  0.87158791  1  0.273232  0  0.078906  0.135823  0  4.06132  0
C  C122  1  0.89473456  0.04592240  0.37159606  1  0.273032  0  0.078912  0.135851  0  4.061144  0
C  C123  1  0.39472366  0.45407648  0.12840959  1  0.273334  0  0.078915  0.135813  0  4.061203  0
C  C124  1  0.01523256  0.82645680  0.67306434  1  0.977678  0  0.181502  0.092057  0  3.822362  0
C  C125  1  0.51523685  0.67354344  0.82694083  1  0.977755  0  0.181446  0.091982  0  3.822555  0
C  C126  1  0.98477769  0.17354013  0.32693727  1  0.977174  0  0.181587  0.092343  0  3.822156  0
C  C127  1  0.48477472  0.32645390  0.17306349  1  0.977105  0  0.181427  0.092029  0  3.82227  0
C  C128  1  0.81473195  0.42448746  0.31142121  1  0.021346  0  -0.025114  -0.044533  0  3.962178  0
C  C129  1  0.31471964  0.07550908  0.18858137  1  0.021704  0  -0.025254  -0.044685  0  3.96238  0
C  C130  1  0.18526634  0.57551028  0.68858626  1  0.021598  0  -0.025249  -0.044663  0  3.962467  0
C  C131  1  0.68526935  0.92448605  0.81141857  1  0.021322  0  -0.025106  -0.04447  0  3.962401  0
C  C132  1  0.95057881  0.98345985  0.65211242  1  -0.069522  0  -0.089825  -0.163019  0  4.000653  0
C  C133  1  0.45057781  0.51653890  0.84788099  1  -0.068023  0  -0.089867  -0.162981  0  4.000748  0
C  C134  1  0.04942346  0.01654048  0.34788107  1  -0.06827  0  -0.089818  -0.162926  0  4.000768  0
C  C135  1  0.54941516  0.48345672  0.15211729  1  -0.069582  0  -0.089805  -0.162928  0  4.000769  0
C  C136  1  0.92197690  0.52725290  0.30730510  1  -0.038784  0  -0.105034  -0.191498  0  3.995467  0
C  C137  1  0.42197019  0.97274527  0.19269453  1  -0.0383  0  -0.105053  -0.191556  0  3.995433  0
C  C138  1  0.07802803  0.47274773  0.69269634  1  -0.038234  0  -0.105056  -0.19153  0  3.995571  0
C  C139  1  0.57803209  0.02725078  0.80730515  1  -0.03799  0  -0.10499  -0.1914  0  3.995238  0
C  C140  1  0.15532867  0.87212552  0.54005335  1  0.299324  0  0.090124  0.165612  0  4.063085  0
C  C141  1  0.65531784  0.62787043  0.95994571  1  0.298871  0  0.090174  0.165552  0  4.062723  0
C  C142  1  0.84466829  0.12787139  0.45994957  1  0.29924  0  0.090139  0.165504  0  4.063005  0
C  C143  1  0.34467513  0.37212513  0.04005563  1  0.299412  0  0.090054  0.165566  0  4.062992  0
C  C144  1  0.77976545  0.35948053  0.28157176  1  1.603842  0  0.201498  0.583083  0  4.225712  0
C  C145  1  0.27976181  0.14051499  0.21843369  1  1.604134  0  0.201454  0.582816  0  4.225795  0
C  C146  1  0.22023815  0.64051577  0.71843893  1  1.604103  0  0.2014  0.582777  0  4.22618  0
C  C147  1  0.72023780  0.85948012  0.78156712  1  1.603562  0  0.20136  0.582725  0  4.225922  0
C  C148  1  0.29978395  0.83379689  0.65448223  1  1.028808  0  0.180707  0.085587  0  3.856569  0
C  C149  1  0.79979348  0.66619747  0.84551386  1  1.028855  0  0.180692  0.085536  0  3.856461  0
C  C150  1  0.70021965  0.16619960  0.34551885  1  1.028751  0  0.180677  0.085635  0  3.85626  0
C  C151  1  0.20021411  0.33379398  0.15448581  1  1.029413  0  0.180742  0.085642  0  3.856545  0
C  C152  1  0.88964881  0.46694330  0.27985975  1  -0.018799  0  -0.081012  -0.059597  0  3.978465  0
C  C153  1  0.38964534  0.03305432  0.22013951  1  -0.01885  0  -0.080855  -0.059356  0  3.978293  0
C  C154  1  0.11034815  0.53305497  0.72014387  1  -0.018833  0  -0.080926  -0.059464  0  3.978324  0
C  C155  1  0.61034763  0.96694173  0.77986017  1  -0.018851  0  -0.081013  -0.059639  0  3.978434  0
C  C156  1  0.27806394  0.04505901  0.66398531  1  -0.118096  0  -0.078932  -0.074664  0  3.931437  0
C  C157  1  0.77805930  0.45494485  0.83601500  1  -0.11742  0  -0.078896  -0.074431  0  3.931683  0
C  C158  1  0.72193701  0.95494298  0.33601684  1  -0.117618  0  -0.078885  -0.074529  0  3.931329  0
C  C159  1  0.22194431  0.54505810  0.16398557  1  -0.118228  0  -0.078923  -0.074653  0  3.931491  0
C  C160  1  0.77505802  0.44379630  0.37184445  1  -0.018054  0  -0.080891  -0.063645  0  3.982488  0
C  C161  1  0.27503754  0.05620204  0.12815761  1  -0.018524  0  -0.080899  -0.063608  0  3.982365  0
C  C162  1  0.22496153  0.55620556  0.62816426  1  -0.018182  0  -0.080897  -0.063556  0  3.982542  0
C  C163  1  0.72494746  0.94379311  0.87184146  1  -0.018028  0  -0.080929  -0.063557  0  3.982575  0
C  C164  1  0.81404785  0.50316699  0.40084697  1  -0.059329  0  -0.107515  -0.192159  0  4.009521  0
C  C165  1  0.31404672  0.99683291  0.09915125  1  -0.059303  0  -0.107462  -0.192203  0  4.00938  0
C  C166  1  0.18596107  0.49683633  0.59915807  1  -0.059376  0  -0.107432  -0.192143  0  4.009452  0
C  C167  1  0.68596353  0.00316321  0.90084537  1  -0.059043  0  -0.10744  -0.192212  0  4.009522  0
C  C168  1  0.98162621  0.66258640  0.56103909  1  -0.063896  0  -0.080434  -0.081858  0  3.959144  0
C  C169  1  0.48162599  0.83740585  0.93895876  1  -0.064049  0  -0.080425  -0.081974  0  3.959105  0
C  C170  1  0.01837473  0.33740966  0.43896059  1  -0.063897  0  -0.080476  -0.082006  0  3.959052  0
C  C171  1  0.51838426  0.16259763  0.06103797  1  -0.064219  0  -0.080488  -0.082109  0  3.959234  0
C  C172  1  0.02202090  0.63924798  0.50151530  1  0.038545  0  -0.087842  -0.154865  0  3.993097  0
C  C173  1  0.52201921  0.86075245  0.99848114  1  0.038401  0  -0.087785  -0.154622  0  3.992984  0
C  C174  1  0.97797473  0.36075221  0.49848475  1  0.038769  0  -0.087866  -0.15484  0  3.992884  0
C  C175  1  0.47798971  0.13925286  0.00151639  1  0.03916  0  -0.08782  -0.154685  0  3.992839  0
C  C176  1  0.66848867  0.66272700  0.53607750  1  -0.02111  0  -0.081129  -0.076959  0  3.96853  0
C  C177  1  0.16848579  0.83727864  0.96392124  1  -0.02039  0  -0.081166  -0.076884  0  3.968349  0
C  C178  1  0.33151227  0.33727876  0.46392055  1  -0.020045  0  -0.081176  -0.077046  0  3.968445  0
C  C179  1  0.83152446  0.16272570  0.03607873  1  -0.020564  0  -0.081109  -0.076832  0  3.968228  0
C  C180  1  0.75010831  0.67296897  0.34548838  1  0.986556  0  0.183006  0.096894  0  3.859841  0
C  C181  1  0.25009871  0.82703813  0.15451431  1  0.986718  0  0.182936  0.096896  0  3.85971  0
C  C182  1  0.24989396  0.32703445  0.65451185  1  0.986708  0  0.183069  0.097138  0  3.859506  0
C  C183  1  0.74990091  0.17296348  0.84548425  1  0.98722  0  0.182954  0.097022  0  3.859726  0
C  C184  1  0.70787015  0.63805218  0.47703009  1  -0.050329  0  -0.094297  -0.173105  0  4.023131  0
C  C185  1  0.20787157  0.86194804  0.02296821  1  -0.050958  0  -0.094386  -0.173334  0  4.023348  0
C  C186  1  0.29213212  0.36194893  0.52297013  1  -0.050738  0  -0.094354  -0.173252  0  4.023133  0
C  C187  1  0.79213469  0.13805313  0.97702939  1  -0.050536  0  -0.094342  -0.173288  0  4.02328  0
C  C188  1  0.27921263  0.83902360  0.42185085  1  0.031297  0  -0.030004  -0.053013  0  3.97849  0
C  C189  1  0.77922080  0.66097953  0.07814493  1  0.031043  0  -0.030008  -0.05307  0  3.978872  0
C  C190  1  0.72075243  0.16097250  0.57814664  1  0.030443  0  -0.03007  -0.053521  0  3.979006  0
C  C191  1  0.22077483  0.33902850  0.92185488  1  0.030897  0  -0.029877  -0.053056  0  3.978805  0
C  C192  1  0.22535682  0.89928150  0.44457495  1  -0.126793  0  -0.082808  -0.065153  0  3.988298  0
C  C193  1  0.72535770  0.60072417  0.05542835  1  -0.126398  0  -0.082791  -0.065181  0  3.98831  0
C  C194  1  0.77461489  0.10071546  0.55542535  1  -0.126087  0  -0.082634  -0.064699  0  3.988196  0
C  C195  1  0.27463660  0.39928515  0.94457609  1  -0.126309  0  -0.08275  -0.064926  0  3.988264  0
C  C196  1  0.16417578  0.91607824  0.50268280  1  0.013654  0  -0.104732  -0.187791  0  4.001888  0
C  C197  1  0.66415517  0.58392499  0.99732117  1  0.013708  0  -0.10465  -0.187603  0  4.001747  0
C  C198  1  0.83582915  0.08392006  0.49731995  1  0.013969  0  -0.104814  -0.187897  0  4.001868  0
C  C199  1  0.33583514  0.41607970  0.00268413  1  0.013742  0  -0.104789  -0.187962  0  4.00168  0
C  C200  1  0.20320061  0.81107630  0.51734163  1  -0.096106  0  -0.114087  -0.207731  0  4.027587  0
C  C201  1  0.70319176  0.68892437  0.98265482  1  -0.09633  0  -0.114111  -0.207586  0  4.027122  0
C  C202  1  0.79679635  0.18892061  0.48266129  1  -0.096747  0  -0.114087  -0.207671  0  4.027694  0
C  C203  1  0.29678393  0.31107863  0.01734313  1  -0.096167  0  -0.114031  -0.20763  0  4.027552  0
C  C204  1  0.35525365  0.82464659  0.35996915  1  1.571785  0  0.194562  0.569535  0  4.220703  0
C  C205  1  0.85526596  0.67535202  0.14002707  1  1.571767  0  0.194602  0.569762  0  4.220727  0
C  C206  1  0.64472736  0.17534573  0.64003288  1  1.571703  0  0.194759  0.570156  0  4.220206  0
C  C207  1  0.14473764  0.32465421  0.85997064  1  1.572484  0  0.194598  0.569723  0  4.220448  0
C  C208  1  0.26521503  0.79529501  0.45898439  1  0.025928  0  -0.090415  -0.073443  0  4.011646  0
C  C209  1  0.76522235  0.70470810  0.04101139  1  0.026125  0  -0.090372  -0.073485  0  4.011891  0
C  C210  1  0.73476066  0.20470013  0.54101512  1  0.026249  0  -0.09046  -0.07329  0  4.012192  0
C  C211  1  0.23477461  0.29529726  0.95898395  1  0.025826  0  -0.090453  -0.073435  0  4.011946  0
C  C212  1  0.26930585  0.98448483  0.63422249  1  -0.022972  0  -0.093123  -0.167867  0  4.003802  0
C  C213  1  0.76930712  0.51551637  0.86577494  1  -0.022812  0  -0.093145  -0.16779  0  4.003867  0
C  C214  1  0.73070041  0.01551906  0.36577696  1  -0.022694  0  -0.093185  -0.167771  0  4.003511  0
C  C215  1  0.23069649  0.48448479  0.13422310  1  -0.022994  0  -0.093152  -0.167715  0  4.003541  0
N  N216  1  0.28166470  0.80024354  0.69589881  1  -0.73836  0  -0.210961  -0.118045  0  3.461989  0
N  N217  1  0.78166529  0.69975444  0.80409887  1  -0.738403  0  -0.210955  -0.118021  0  3.461823  0
N  N218  1  0.71834157  0.19975483  0.30410044  1  -0.73784  0  -0.210948  -0.118057  0  3.461831  0
N  N219  1  0.21834230  0.30024564  0.19590642  1  -0.738383  0  -0.210951  -0.118091  0  3.462089  0
N  N220  1  0.10441355  0.79592953  0.70810935  1  -0.735985  0  -0.209748  -0.142326  0  3.433544  0
N  N221  1  0.60441153  0.70406953  0.79189207  1  -0.735864  0  -0.20974  -0.142285  0  3.433423  0
N  N222  1  0.89559538  0.20406696  0.29189173  1  -0.735821  0  -0.20985  -0.142513  0  3.43363  0
N  N223  1  0.39559474  0.29593238  0.20811401  1  -0.73605  0  -0.209841  -0.142466  0  3.433755  0
N  N224  1  0.96400588  0.71779294  0.30572798  1  -0.756619  0  -0.213279  -0.15  0  3.425387  0
N  N225  1  0.46399712  0.78220221  0.19426448  1  -0.75622  0  -0.213275  -0.149928  0  3.425208  0
N  N226  1  0.03598975  0.28221007  0.69426954  1  -0.756389  0  -0.213245  -0.149926  0  3.425116  0
N  N227  1  0.53599851  0.21779432  0.80573442  1  -0.756081  0  -0.213196  -0.149848  0  3.425086  0
N  N228  1  0.13403678  0.85079463  0.63852863  1  -0.898904  0  -0.122443  0.079804  0  3.803986  0
N  N229  1  0.63404214  0.64920631  0.86147271  1  -0.89904  0  -0.122474  0.079742  0  3.804143  0
N  N230  1  0.86597081  0.14920551  0.36147360  1  -0.899029  0  -0.122456  0.079483  0  3.804083  0
N  N231  1  0.36596014  0.35079653  0.13853311  1  -0.898443  0  -0.12244  0.079735  0  3.804014  0
N  N232  1  0.09272811  0.89042695  0.59929195  1  -0.743864  0  -0.169031  -0.102333  0  3.542718  0
N  N233  1  0.59271841  0.60957032  0.90070605  1  -0.743116  0  -0.168855  -0.102  0  3.542576  0
N  N234  1  0.90729012  0.10957410  0.40071133  1  -0.743086  0  -0.168996  -0.102079  0  3.542599  0
N  N235  1  0.40727057  0.39042526  0.09929398  1  -0.74432  0  -0.168886  -0.102037  0  3.542846  0
N  N236  1  0.90812242  0.65092782  0.36267881  1  -0.886495  0  -0.121886  0.079744  0  3.800725  0
N  N237  1  0.40811306  0.84907176  0.13731846  1  -0.886637  0  -0.121872  0.079735  0  3.80072  0
N  N238  1  0.09187985  0.34907516  0.63732002  1  -0.886763  0  -0.121902  0.079618  0  3.800729  0
N  N239  1  0.59188390  0.15092390  0.86267807  1  -0.88673  0  -0.121894  0.079609  0  3.800822  0
N  N240  1  0.78311949  0.71355088  0.31165204  1  -0.725732  0  -0.212137  -0.134708  0  3.434386  0
N  N241  1  0.28310679  0.78645307  0.18834873  1  -0.725889  0  -0.212135  -0.134797  0  3.434354  0
N  N242  1  0.21687880  0.28645393  0.68834758  1  -0.725759  0  -0.212139  -0.134836  0  3.434325  0
N  N243  1  0.71688751  0.21354530  0.81165052  1  -0.72644  0  -0.212144  -0.134894  0  3.434525  0
N  N244  1  0.93260393  0.60593693  0.39788914  1  -0.758697  0  -0.173016  -0.116138  0  3.54143  0
N  N245  1  0.43259904  0.89406451  0.10210892  1  -0.758873  0  -0.17308  -0.116203  0  3.541317  0
N  N246  1  0.06739701  0.39406742  0.60211039  1  -0.758314  0  -0.17318  -0.116262  0  3.541357  0
N  N247  1  0.56740190  0.10593204  0.89788910  1  -0.758649  0  -0.173136  -0.116289  0  3.5413  0
O  O248  1  0.60979077  0.72896946  0.64958564  1  -1.170047  0  -0.325905  -0.554504  0  2.364291  0
O  O249  1  0.10979383  0.77102632  0.85041910  1  -1.170411  0  -0.32585  -0.554396  0  2.364181  0
O  O250  1  0.39019423  0.27102798  0.35041431  1  -1.170208  0  -0.325909  -0.554485  0  2.364464  0
O  O251  1  0.89021908  0.22897424  0.14958584  1  -1.170671  0  -0.325741  -0.554145  0  2.364311  0
O  O252  1  0.87406432  0.69682854  0.68159484  1  -1.186042  0  -0.31698  -0.570447  0  2.312075  0
O  O253  1  0.37404913  0.80317235  0.81840163  1  -1.186551  0  -0.316996  -0.570447  0  2.312029  0
O  O254  1  0.12592998  0.30317720  0.31840408  1  -1.186253  0  -0.316978  -0.570501  0  2.31211  0
O  O255  1  0.62594783  0.19682749  0.18159352  1  -1.186467  0  -0.316903  -0.570292  0  2.312111  0
O  O256  1  0.86411102  0.33900222  0.23335951  1  -1.20617  0  -0.338545  -0.603057  0  2.296882  0
O  O257  1  0.36413418  0.16099813  0.26663985  1  -1.20601  0  -0.338512  -0.602922  0  2.296856  0
O  O258  1  0.13587663  0.66100108  0.76664640  1  -1.20605  0  -0.338507  -0.602916  0  2.297063  0
O  O259  1  0.63588538  0.83899890  0.73335695  1  -1.206033  0  -0.338436  -0.602843  0  2.296889  0
O  O260  1  0.66701817  0.32924618  0.30597154  1  -1.185516  0  -0.323875  -0.571946  0  2.311345  0
O  O261  1  0.16701885  0.17074968  0.19403225  1  -1.185866  0  -0.323855  -0.571846  0  2.311347  0
O  O262  1  0.33297878  0.67075197  0.69403864  1  -1.185913  0  -0.32378  -0.57175  0  2.311683  0
O  O263  1  0.83297412  0.82924539  0.80597031  1  -1.185498  0  -0.323851  -0.57185  0  2.311438  0
O  O264  1  0.98605760  0.16436272  0.74050535  1  -1.182382  0  -0.319038  -0.563331  0  2.402977  0
O  O265  1  0.48605871  0.33563302  0.75949994  1  -1.182479  0  -0.319051  -0.563269  0  2.403002  0
O  O266  1  0.01393272  0.83563235  0.25949765  1  -1.182469  0  -0.319029  -0.563287  0  2.403106  0
O  O267  1  0.51395021  0.66436401  0.24049686  1  -1.182533  0  -0.319015  -0.563268  0  2.402945  0
O  O268  1  0.40691637  0.76782134  0.34202214  1  -1.182124  0  -0.35581  -0.609976  0  2.30516  0
O  O269  1  0.90692397  0.73217733  0.15797496  1  -1.182093  0  -0.355861  -0.610069  0  2.305105  0
O  O270  1  0.59306198  0.23216736  0.65797700  1  -1.182093  0  -0.355735  -0.610023  0  2.30478  0
O  O271  1  0.09308362  0.26782986  0.84202117  1  -1.182354  0  -0.355743  -0.609977  0  2.30486  0
O  O272  1  0.28128248  0.16663218  0.72096114  1  -1.199315  0  -0.321255  -0.576753  0  2.442611  0
O  O273  1  0.78129249  0.33336853  0.77903592  1  -1.199339  0  -0.32126  -0.576759  0  2.442598  0
O  O274  1  0.71870385  0.83337001  0.27903139  1  -1.199196  0  -0.321243  -0.576831  0  2.442641  0
O  O275  1  0.21872308  0.66663576  0.22096667  1  -1.199289  0  -0.321188  -0.576817  0  2.442634  0
O  O276  1  0.36774796  0.86613436  0.32983419  1  -1.174505  0  -0.314876  -0.534172  0  2.182467  0
O  O277  1  0.86777843  0.63386382  0.17016150  1  -1.174463  0  -0.314915  -0.534333  0  2.182469  0
O  O278  1  0.63222641  0.13385482  0.67016372  1  -1.174212  0  -0.315086  -0.534506  0  2.182475  0
O  O279  1  0.13223315  0.36614376  0.82983822  1  -1.174981  0  -0.315044  -0.534407  0  2.182505  0
