# generated using pymatgen
data_CdPH10C6NO7
_symmetry_space_group_name_H-M   'P 1'
_cell_length_a   6.90410815
_cell_length_b   7.38394661
_cell_length_c   10.61481478
_cell_angle_alpha   84.30232172
_cell_angle_beta   75.59279948
_cell_angle_gamma   68.46839854
_symmetry_Int_Tables_number   1
_chemical_formula_structural   CdPH10C6NO7
_chemical_formula_sum   'Cd2 P2 H20 C12 N2 O14'
_cell_volume   487.52620320
_cell_formula_units_Z   2
loop_
 _symmetry_equiv_pos_site_id
 _symmetry_equiv_pos_as_xyz
  1  'x, y, z'
loop_
 _atom_site_type_symbol
 _atom_site_label
 _atom_site_symmetry_multiplicity
 _atom_site_fract_x
 _atom_site_fract_y
 _atom_site_fract_z
 _atom_site_occupancy
 _atom_site_hle17_bader_spin_density
 _atom_site_hle17_ddec_charge
 _atom_site_hle17_ddec_spin_density
 _atom_site_hle17_ddec_sum_bond_order
 _atom_site_hle17_magmom
 _atom_site_hse06_10hf_bader_spin_density
 _atom_site_hse06_10hf_ddec_charge
 _atom_site_hse06_10hf_ddec_spin_density
 _atom_site_hse06_10hf_ddec_sum_bond_order
 _atom_site_hse06_10hf_magmom
 _atom_site_hse06_bader_spin_density
 _atom_site_hse06_ddec_charge
 _atom_site_hse06_ddec_spin_density
 _atom_site_hse06_ddec_sum_bond_order
 _atom_site_hse06_magmom
 _atom_site_pbe_bader_spin_density
 _atom_site_pbe_cm5_charge
 _atom_site_pbe_ddec_charge
 _atom_site_pbe_ddec_spin_density
 _atom_site_pbe_ddec_sum_bond_order
 _atom_site_pbe_magmom
Cd  Cd0  1  0.25456770  0.81585963  0.95402002  1  0  1.309709  0  1.607003  0  0  1.144237  0  2.049966  0  0  1.194728  0  1.99253  0  0  0.785452  1.107872  0  2.089774  0
Cd  Cd1  1  0.74543284  0.18414073  0.04598121  1  0  1.309675  0  1.607003  0  0  1.144204  0  2.049967  0  0  1.194698  0  1.992532  0  0  0.785427  1.107839  0  2.089772  0
P  P2  1  0.19684798  0.21828744  0.12464378  1  0  1.430207  0  4.85566  0  0  1.260175  0  5.362542  0  0  1.310689  0  5.325646  0  0  0.333628  1.22492  0  5.387273  0
P  P3  1  0.80315199  0.78171438  0.87535650  1  0  1.430132  0  4.855636  0  0  1.260095  0  5.362522  0  0  1.310611  0  5.325625  0  0  0.333552  1.224837  0  5.387258  0
H  H4  1  0.21259369  0.53471241  0.82898165  1  0  0.438797  0  0.862893  0  0  0.405536  0  0.929204  0  0  0.416554  0  0.91351  0  0  0.288122  0.397838  0  0.940114  0
H  H5  1  0.78740085  0.46528799  0.17101962  1  0  0.438789  0  0.862898  0  0  0.405535  0  0.929199  0  0  0.416551  0  0.913508  0  0  0.288125  0.397838  0  0.940106  0
H  H6  1  0.35508955  0.41278568  0.92819047  1  0  0.42239  0  0.891511  0  0  0.390272  0  0.957393  0  0  0.401504  0  0.941169  0  0  0.285253  0.38236  0  0.968806  0
H  H7  1  0.64491002  0.58721325  0.07180819  1  0  0.422401  0  0.891499  0  0  0.390278  0  0.95739  0  0  0.401511  0  0.941165  0  0  0.285253  0.382363  0  0.968805  0
H  H8  1  0.13424993  0.57786477  0.17331890  1  0  0.435498  0  0.867146  0  0  0.399448  0  0.938551  0  0  0.410671  0  0.922534  0  0  0.289634  0.391573  0  0.949736  0
H  H9  1  0.86575022  0.42213269  0.82668259  1  0  0.435501  0  0.867142  0  0  0.39945  0  0.938548  0  0  0.410672  0  0.922531  0  0  0.289636  0.391574  0  0.949733  0
H  H10  1  0.35653336  0.59440782  0.17885943  1  0  0.423791  0  0.866621  0  0  0.395759  0  0.931255  0  0  0.405441  0  0.917179  0  0  0.296022  0.388821  0  0.94134  0
H  H11  1  0.64346567  0.40559255  0.82114204  1  0  0.423819  0  0.866593  0  0  0.395784  0  0.931222  0  0  0.405467  0  0.917144  0  0  0.296023  0.388848  0  0.941305  0
H  H12  1  0.10732320  0.88806557  0.27043569  1  0  0.377527  0  0.888707  0  0  0.35423  0  0.96141  0  0  0.364316  0  0.949723  0  0  0.296937  0.347103  0  0.969647  0
H  H13  1  0.89267173  0.11193772  0.72956721  1  0  0.37759  0  0.888623  0  0  0.35431  0  0.961288  0  0  0.364393  0  0.949606  0  0  0.296966  0.347183  0  0.969526  0
H  H14  1  0.02075074  0.25952265  0.47447371  1  0  0.123785  0  0.938074  0  0  0.134971  0  0.994892  0  0  0.138063  0  0.993714  0  0  0.116069  0.132776  0  0.995875  0
H  H15  1  0.97924736  0.74048791  0.52552440  1  0  0.123875  0  0.938079  0  0  0.134973  0  0.994999  0  0  0.138073  0  0.993813  0  0  0.116043  0.132777  0  0.99598  0
H  H16  1  0.12949363  0.40504786  0.63787431  1  0  0.115552  0  0.967834  0  0  0.123808  0  1.029603  0  0  0.127442  0  1.026502  0  0  0.108337  0.121104  0  1.031902  0
H  H17  1  0.87050805  0.59496121  0.36212614  1  0  0.11551  0  0.967928  0  0  0.123797  0  1.029656  0  0  0.127425  0  1.02657  0  0  0.108326  0.121092  0  1.031957  0
H  H18  1  0.51869258  0.35372378  0.60648156  1  0  0.109989  0  0.947423  0  0  0.120169  0  1.004939  0  0  0.123318  0  1.004036  0  0  0.109558  0.117768  0  1.005924  0
H  H19  1  0.48131613  0.64627075  0.39351307  1  0  0.110017  0  0.947297  0  0  0.1202  0  1.004822  0  0  0.123354  0  1.003917  0  0  0.109565  0.117796  0  1.005803  0
H  H20  1  0.78137163  0.16880262  0.40679400  1  0  0.124275  0  0.959182  0  0  0.129809  0  1.0256  0  0  0.134185  0  1.020723  0  0  0.129938  0.126641  0  1.029088  0
H  H21  1  0.21863504  0.83119337  0.59320180  1  0  0.124326  0  0.959203  0  0  0.129845  0  1.025589  0  0  0.134216  0  1.020725  0  0  0.129965  0.126687  0  1.02907  0
H  H22  1  0.42831513  0.92840987  0.21566210  1  0  0.097502  0  0.944157  0  0  0.099203  0  1.01314  0  0  0.103039  0  1.01  0  0  0.115706  0.096442  0  1.015537  0
H  H23  1  0.57167997  0.07158906  0.78434107  1  0  0.097526  0  0.944122  0  0  0.099209  0  1.013117  0  0  0.103046  0  1.009978  0  0  0.115726  0.096449  0  1.015517  0
C  C24  1  0.33561904  0.14725781  0.35575654  1  0  0.123881  0  3.668909  0  0  0.114296  0  3.915935  0  0  0.121723  0  3.934814  0  0  0.112773  0.109616  0  3.90331  0
C  C25  1  0.66437996  0.85274258  0.64424023  1  0  0.12414  0  3.669057  0  0  0.11448  0  3.916151  0  0  0.12191  0  3.935031  0  0  0.112852  0.1098  0  3.903524  0
C  C26  1  0.18543946  0.24921289  0.46249515  1  0  -0.115672  0  3.699384  0  0  -0.137413  0  3.957844  0  0  -0.143141  0  3.976519  0  0  -0.077238  -0.134205  0  3.945648  0
C  C27  1  0.81456618  0.75079759  0.53750644  1  0  -0.115954  0  3.699197  0  0  -0.137614  0  3.957672  0  0  -0.143352  0  3.976343  0  0  -0.077266  -0.1344  0  3.945473  0
C  C28  1  0.24637385  0.32703682  0.55363939  1  0  -0.019007  0  3.698784  0  0  -0.047967  0  3.964344  0  0  -0.042048  0  3.978263  0  0  -0.077233  -0.05142  0  3.954789  0
C  C29  1  0.75362527  0.67295924  0.44635106  1  0  -0.018735  0  3.698355  0  0  -0.047702  0  3.963851  0  0  -0.041782  0  3.977767  0  0  -0.077109  -0.051159  0  3.954298  0
C  C30  1  0.46237724  0.30018066  0.53600420  1  0  -0.096555  0  3.766199  0  0  -0.112183  0  4.029806  0  0  -0.117725  0  4.048863  0  0  -0.083723  -0.108687  0  4.01702  0
C  C31  1  0.53762015  0.69982406  0.46400008  1  0  -0.096636  0  3.766638  0  0  -0.112335  0  4.030259  0  0  -0.117886  0  4.049323  0  0  -0.083811  -0.108832  0  4.017472  0
C  C32  1  0.60934694  0.20134327  0.42853703  1  0  0.013331  0  3.58451  0  0  -0.028823  0  3.847909  0  0  -0.021878  0  3.860604  0  0  0.037293  -0.033235  0  3.839382  0
C  C33  1  0.39065085  0.79864845  0.57145393  1  0  0.013254  0  3.584803  0  0  -0.028754  0  3.848019  0  0  -0.021811  0  3.860721  0  0  0.037282  -0.033176  0  3.8395  0
C  C34  1  0.28193502  0.04877010  0.25998499  1  0  -0.11142  0  3.71955  0  0  -0.11947  0  3.979481  0  0  -0.121459  0  3.984445  0  0  -0.011203  -0.118318  0  3.976155  0
C  C35  1  0.71806269  0.95122592  0.74001605  1  0  -0.111453  0  3.719615  0  0  -0.119476  0  3.979589  0  0  -0.121472  0  3.984558  0  0  -0.011215  -0.118329  0  3.97627  0
N  N36  1  0.54543603  0.12806693  0.33979398  1  0  0.221242  0  3.694241  0  0  0.273122  0  3.95012  0  0  0.270866  0  3.974007  0  0  -0.117565  0.274017  0  3.933971  0
N  N37  1  0.45457575  0.87192754  0.66020674  1  0  0.221102  0  3.694215  0  0  0.272948  0  3.950141  0  0  0.27069  0  3.974025  0  0  -0.11762  0.273844  0  3.933995  0
O  O38  1  0.09911663  0.11501232  0.05165578  1  0  -0.892498  0  2.0546  0  0  -0.785707  0  2.348131  0  0  -0.817701  0  2.324154  0  0  -0.389878  -0.763079  0  2.364089  0
O  O39  1  0.90088352  0.88498514  0.94834571  1  0  -0.892488  0  2.05462  0  0  -0.785712  0  2.348164  0  0  -0.817698  0  2.324179  0  0  -0.38988  -0.763078  0  2.364119  0
O  O40  1  0.35082911  0.51370264  0.85567986  1  0  -0.881001  0  1.858461  0  0  -0.810042  0  2.056451  0  0  -0.835322  0  2.023025  0  0  -0.584051  -0.791966  0  2.079348  0
O  O41  1  0.64917254  0.48629481  0.14432044  1  0  -0.880988  0  1.858441  0  0  -0.810035  0  2.056437  0  0  -0.835316  0  2.023012  0  0  -0.58406  -0.791957  0  2.079334  0
O  O42  1  0.39823705  0.24792697  0.03779141  1  0  -0.887562  0  2.042494  0  0  -0.791692  0  2.318944  0  0  -0.820544  0  2.296033  0  0  -0.387624  -0.771105  0  2.333969  0
O  O43  1  0.60175957  0.75207194  0.96221339  1  0  -0.887561  0  2.042393  0  0  -0.791675  0  2.318827  0  0  -0.820526  0  2.295915  0  0  -0.387609  -0.771094  0  2.33387  0
O  O44  1  0.21162791  0.67322547  0.16639005  1  0  -0.838693  0  1.874663  0  0  -0.765766  0  2.064454  0  0  -0.789273  0  2.031879  0  0  -0.565283  -0.749062  0  2.087119  0
O  O45  1  0.78837263  0.32677488  0.83361212  1  0  -0.838708  0  1.874621  0  0  -0.765797  0  2.064433  0  0  -0.789304  0  2.031858  0  0  -0.565281  -0.749086  0  2.087081  0
O  O46  1  0.02919762  0.41072949  0.18470500  1  0  -0.850012  0  1.958032  0  0  -0.758201  0  2.190795  0  0  -0.785806  0  2.172672  0  0  -0.370154  -0.738677  0  2.202776  0
O  O47  1  0.97080010  0.58926652  0.81529793  1  0  -0.849987  0  1.958052  0  0  -0.758155  0  2.190799  0  0  -0.785763  0  2.172675  0  0  -0.370108  -0.738628  0  2.20278  0
O  O48  1  0.11336928  0.98342410  0.32737166  1  0  -0.518503  0  2.112492  0  0  -0.48  0  2.342981  0  0  -0.49487  0  2.333275  0  0  -0.391448  -0.469167  0  2.349255  0
O  O49  1  0.88662582  0.01657484  0.67263056  1  0  -0.518614  0  2.112512  0  0  -0.480099  0  2.342964  0  0  -0.494984  0  2.333288  0  0  -0.39147  -0.469271  0  2.349246  0
O  O50  1  0.69171422  0.02753513  0.24070952  1  0  -0.556585  0  1.815288  0  0  -0.507805  0  2.063357  0  0  -0.532792  0  2.062  0  0  -0.249321  -0.489967  0  2.063854  0
O  O51  1  0.30828255  0.97245944  0.75929272  1  0  -0.556504  0  1.815222  0  0  -0.50772  0  2.063297  0  0  -0.532704  0  2.061942  0  0  -0.249312  -0.489882  0  2.063798  0
