# generated using pymatgen
data_ZnH12C15N5O6
_symmetry_space_group_name_H-M   'P 1'
_cell_length_a   10.82733330
_cell_length_b   11.35678463
_cell_length_c   11.63498414
_cell_angle_alpha   113.58562244
_cell_angle_beta   102.52718832
_cell_angle_gamma   97.08999184
_symmetry_Int_Tables_number   1
_chemical_formula_structural   ZnH12C15N5O6
_chemical_formula_sum   'Zn2 H24 C30 N10 O12'
_cell_volume   1244.11599168
_cell_formula_units_Z   2
loop_
 _symmetry_equiv_pos_site_id
 _symmetry_equiv_pos_as_xyz
  1  'x, y, z'
loop_
 _atom_site_type_symbol
 _atom_site_label
 _atom_site_symmetry_multiplicity
 _atom_site_fract_x
 _atom_site_fract_y
 _atom_site_fract_z
 _atom_site_occupancy
 _atom_site_hle17_bader_spin_density
 _atom_site_hle17_ddec_charge
 _atom_site_hle17_ddec_spin_density
 _atom_site_hle17_ddec_sum_bond_order
 _atom_site_hle17_magmom
 _atom_site_hse06_10hf_bader_spin_density
 _atom_site_hse06_10hf_ddec_charge
 _atom_site_hse06_10hf_ddec_spin_density
 _atom_site_hse06_10hf_ddec_sum_bond_order
 _atom_site_hse06_10hf_magmom
 _atom_site_hse06_bader_spin_density
 _atom_site_hse06_ddec_charge
 _atom_site_hse06_ddec_spin_density
 _atom_site_hse06_ddec_sum_bond_order
 _atom_site_hse06_magmom
 _atom_site_pbe_bader_spin_density
 _atom_site_pbe_cm5_charge
 _atom_site_pbe_ddec_charge
 _atom_site_pbe_ddec_spin_density
 _atom_site_pbe_ddec_sum_bond_order
 _atom_site_pbe_magmom
Zn  Zn0  1  0.24800848  0.21782801  0.38888662  1  0  0.90874  0  1.887963  0  0  0.707088  0  2.339427  0  0  0.756376  0  2.291175  0  0  0.680219  0.672358  0  2.37302  0
Zn  Zn1  1  0.75199243  0.78216969  0.61111410  1  0  0.908721  0  1.887987  0  0  0.707067  0  2.339458  0  0  0.756352  0  2.291207  0  0  0.680219  0.672335  0  2.373049  0
H  H2  1  0.51719173  0.27455546  0.35840504  1  0  0.091438  0  0.93726  0  0  0.100174  0  0.999744  0  0  0.102609  0  0.99831  0  0  0.120074  0.098365  0  1.000823  0
H  H3  1  0.48280962  0.72544422  0.64159570  1  0  0.091439  0  0.937233  0  0  0.100173  0  0.999731  0  0  0.102605  0  0.998297  0  0  0.12007  0.098366  0  1.000809  0
H  H4  1  0.63875572  0.17445080  0.20216676  1  0  0.124945  0  0.967528  0  0  0.135519  0  1.025295  0  0  0.138672  0  1.024054  0  0  0.115241  0.133159  0  1.026404  0
H  H5  1  0.36124718  0.82555580  0.79783703  1  0  0.124978  0  0.967538  0  0  0.13546  0  1.025425  0  0  0.1386  0  1.024183  0  0  0.115228  0.133103  0  1.026533  0
H  H6  1  0.26958813  0.91343159  0.92861873  1  0  0.118843  0  1.004326  0  0  0.122344  0  1.072525  0  0  0.126969  0  1.069207  0  0  0.107834  0.118886  0  1.075094  0
H  H7  1  0.73041573  0.08657505  0.07138269  1  0  0.118849  0  1.004263  0  0  0.122331  0  1.072493  0  0  0.126938  0  1.069196  0  0  0.107844  0.118872  0  1.075061  0
H  H8  1  0.16548263  0.02491490  0.09638345  1  0  0.096444  0  0.944739  0  0  0.103316  0  1.009479  0  0  0.106577  0  1.005804  0  0  0.119791  0.100956  0  1.012099  0
H  H9  1  0.83451963  0.97508878  0.90361475  1  0  0.096448  0  0.944635  0  0  0.103359  0  1.009342  0  0  0.106623  0  1.005664  0  0  0.119788  0.100998  0  1.011962  0
H  H10  1  0.07899929  0.03354165  0.45612942  1  0  0.08365  0  0.951368  0  0  0.092662  0  1.015195  0  0  0.094803  0  1.013275  0  0  0.118068  0.091216  0  1.016258  0
H  H11  1  0.92099624  0.96645307  0.54386642  1  0  0.083611  0  0.951456  0  0  0.092661  0  1.015237  0  0  0.094782  0  1.013341  0  0  0.118079  0.091215  0  1.0163  0
H  H12  1  0.06297512  0.81345447  0.46032694  1  0  0.125182  0  0.954249  0  0  0.132035  0  1.018117  0  0  0.136091  0  1.01575  0  0  0.111608  0.128976  0  1.020215  0
H  H13  1  0.93702229  0.18654025  0.53967016  1  0  0.125224  0  0.95419  0  0  0.132051  0  1.018076  0  0  0.136108  0  1.015709  0  0  0.111602  0.128994  0  1.02017  0
H  H14  1  0.40820833  0.78776435  0.32994238  1  0  0.122902  0  0.964248  0  0  0.128109  0  1.029966  0  0  0.131913  0  1.028059  0  0  0.110577  0.125325  0  1.031523  0
H  H15  1  0.59178974  0.21223333  0.67005689  1  0  0.122939  0  0.964274  0  0  0.128145  0  1.029983  0  0  0.131949  0  1.028075  0  0  0.110607  0.12536  0  1.031541  0
H  H16  1  0.41361384  0.01136959  0.34015165  1  0  0.074226  0  0.952573  0  0  0.08406  0  1.013652  0  0  0.085664  0  1.013477  0  0  0.115602  0.082886  0  1.013782  0
H  H17  1  0.58638636  0.98862911  0.65984759  1  0  0.074223  0  0.95256  0  0  0.084065  0  1.013636  0  0  0.085669  0  1.013461  0  0  0.115592  0.08289  0  1.013768  0
H  H18  1  0.17565943  0.46615644  0.55142130  1  0  0.091514  0  0.934864  0  0  0.100381  0  0.994671  0  0  0.103012  0  0.992547  0  0  0.119973  0.098435  0  0.996329  0
H  H19  1  0.82435256  0.53384429  0.44858546  1  0  0.091612  0  0.934766  0  0  0.100462  0  0.994585  0  0  0.103095  0  0.992456  0  0  0.120008  0.098515  0  0.996242  0
H  H20  1  0.16482028  0.68797086  0.56074675  1  0  0.120197  0  0.998925  0  0  0.122792  0  1.070264  0  0  0.127268  0  1.06747  0  0  0.105444  0.119471  0  1.072484  0
H  H21  1  0.83518814  0.31203083  0.43925966  1  0  0.120186  0  0.998938  0  0  0.122777  0  1.070286  0  0  0.127274  0  1.067467  0  0  0.105428  0.119455  0  1.072506  0
H  H22  1  0.29078016  0.56771124  0.21008353  1  0  0.12252  0  0.933848  0  0  0.134348  0  0.987025  0  0  0.137662  0  0.985658  0  0  0.117781  0.131994  0  0.988108  0
H  H23  1  0.70921062  0.43228343  0.78991219  1  0  0.122502  0  0.933814  0  0  0.134316  0  0.98703  0  0  0.137631  0  0.985662  0  0  0.117773  0.131963  0  0.988112  0
H  H24  1  0.29162943  0.35140424  0.21392911  1  0  0.081016  0  0.941811  0  0  0.0909  0  0.999237  0  0  0.092772  0  0.998513  0  0  0.119589  0.089598  0  0.999741  0
H  H25  1  0.70836486  0.64859342  0.78606765  1  0  0.080975  0  0.941863  0  0  0.090866  0  0.999298  0  0  0.092737  0  0.998574  0  0  0.119571  0.089564  0  0.999802  0
C  C26  1  0.46638977  0.19439011  0.26142590  1  0  0.119658  0  3.703345  0  0  0.087338  0  3.959806  0  0  0.0941  0  3.977026  0  0  0.045415  0.08287  0  3.948089  0
C  C27  1  0.53361203  0.80561156  0.73857571  1  0  0.119754  0  3.703256  0  0  0.087431  0  3.959722  0  0  0.094201  0  3.976935  0  0  0.045453  0.082962  0  3.948008  0
C  C28  1  0.53386608  0.13722679  0.17269431  1  0  -0.148924  0  3.677839  0  0  -0.167415  0  3.919199  0  0  -0.174647  0  3.940031  0  0  -0.074752  -0.162607  0  3.905189  0
C  C29  1  0.46613689  0.86277588  0.82730622  1  0  -0.148967  0  3.677878  0  0  -0.167396  0  3.919275  0  0  -0.174611  0  3.940093  0  0  -0.074731  -0.162588  0  3.905267  0
C  C30  1  0.46614570  0.03252954  0.04893456  1  0  0.101969  0  3.729085  0  0  0.114293  0  3.956701  0  0  0.118077  0  3.978622  0  0  0.019496  0.111849  0  3.941656  0
C  C31  1  0.53385888  0.96747611  0.95106748  1  0  0.101908  0  3.729161  0  0  0.114245  0  3.956747  0  0  0.11803  0  3.978662  0  0  0.01946  0.1118  0  3.941702  0
C  C32  1  0.33095422  0.99230136  0.02212256  1  0  -0.14341  0  3.668579  0  0  -0.160519  0  3.910655  0  0  -0.168323  0  3.931378  0  0  -0.07625  -0.155342  0  3.896691  0
C  C33  1  0.66904855  0.00770034  0.97787582  1  0  -0.143462  0  3.668702  0  0  -0.160562  0  3.910799  0  0  -0.168357  0  3.931539  0  0  -0.076294  -0.155384  0  3.896832  0
C  C34  1  0.27042991  0.05455765  0.11599900  1  0  0.134034  0  3.679933  0  0  0.09989  0  3.9345  0  0  0.106683  0  3.952207  0  0  0.051688  0.095447  0  3.922401  0
C  C35  1  0.72957212  0.94544500  0.88400219  1  0  0.134006  0  3.679919  0  0  0.099851  0  3.934462  0  0  0.106644  0  3.952168  0  0  0.051674  0.095408  0  3.922361  0
C  C36  1  0.15013877  0.97551968  0.43024036  1  0  0.138791  0  3.691522  0  0  0.107254  0  3.939273  0  0  0.114129  0  3.958588  0  0  0.049987  0.102761  0  3.925883  0
C  C37  1  0.84985886  0.02447603  0.56975718  1  0  0.138861  0  3.691463  0  0  0.107299  0  3.939207  0  0  0.114189  0  3.958525  0  0  0.049999  0.102804  0  3.925818  0
C  C38  1  0.14141070  0.85259686  0.43093574  1  0  -0.150199  0  3.673079  0  0  -0.167383  0  3.915982  0  0  -0.175142  0  3.936481  0  0  -0.074591  -0.162413  0  3.902409  0
C  C39  1  0.85858431  0.14739981  0.56906250  1  0  -0.150349  0  3.673103  0  0  -0.167488  0  3.916026  0  0  -0.17525  0  3.93652  0  0  -0.074598  -0.162519  0  3.902453  0
C  C40  1  0.23300315  0.78008338  0.39143552  1  0  0.107432  0  3.741408  0  0  0.119462  0  3.969449  0  0  0.123233  0  3.991562  0  0  0.019589  0.117068  0  3.95449  0
C  C41  1  0.76699493  0.21991432  0.60856203  1  0  0.107572  0  3.741384  0  0  0.119549  0  3.969448  0  0  0.123321  0  3.991563  0  0  0.019618  0.117156  0  3.954487  0
C  C42  1  0.33272002  0.83850488  0.35794162  1  0  -0.158511  0  3.6911  0  0  -0.174479  0  3.93565  0  0  -0.182022  0  3.95589  0  0  -0.080315  -0.16938  0  3.921881  0
C  C43  1  0.66727733  0.16149379  0.64205789  1  0  -0.158586  0  3.691098  0  0  -0.174529  0  3.93566  0  0  -0.182073  0  3.9559  0  0  -0.080359  -0.169431  0  3.921891  0
C  C44  1  0.33576952  0.96307489  0.36330605  1  0  0.127872  0  3.723851  0  0  0.096111  0  3.974409  0  0  0.102818  0  3.994224  0  0  0.043186  0.091699  0  3.960683  0
C  C45  1  0.66422973  0.03692380  0.63669299  1  0  0.127843  0  3.723864  0  0  0.096071  0  3.97444  0  0  0.102777  0  3.994257  0  0  0.043193  0.091657  0  3.960714  0
C  C46  1  0.19895333  0.49313175  0.47726936  1  0  0.131859  0  3.689359  0  0  0.099861  0  3.937331  0  0  0.106281  0  3.957099  0  0  0.044825  0.095601  0  3.923854  0
C  C47  1  0.80105341  0.50687092  0.52273623  1  0  0.131739  0  3.689435  0  0  0.099755  0  3.937381  0  0  0.106172  0  3.957158  0  0  0.044808  0.095495  0  3.923904  0
C  C48  1  0.19280773  0.61615065  0.48122733  1  0  -0.158828  0  3.681922  0  0  -0.174081  0  3.926596  0  0  -0.182377  0  3.947574  0  0  -0.081385  -0.168654  0  3.912742  0
C  C49  1  0.80719741  0.38384904  0.51877676  1  0  -0.158874  0  3.681903  0  0  -0.174119  0  3.926537  0  0  -0.182433  0  3.947507  0  0  -0.08142  -0.16869  0  3.912681  0
C  C50  1  0.22797762  0.64739241  0.38586375  1  0  0.103435  0  3.746496  0  0  0.114006  0  3.979159  0  0  0.117828  0  4.000595  0  0  0.017898  0.111597  0  3.964732  0
C  C51  1  0.77201855  0.35260524  0.61413598  1  0  0.103447  0  3.746442  0  0  0.114072  0  3.97905  0  0  0.117896  0  4.00049  0  0  0.017947  0.111659  0  3.964623  0
C  C52  1  0.26273343  0.54983141  0.28703919  1  0  -0.140813  0  3.693693  0  0  -0.162294  0  3.943812  0  0  -0.168644  0  3.962784  0  0  -0.074523  -0.158003  0  3.930979  0
C  C53  1  0.73725663  0.45016424  0.71295591  1  0  -0.140757  0  3.693678  0  0  -0.162254  0  3.943822  0  0  -0.168605  0  3.962796  0  0  -0.07454  -0.15796  0  3.930985  0
C  C54  1  0.26464664  0.42884748  0.28928303  1  0  0.139463  0  3.699107  0  0  0.106732  0  3.952906  0  0  0.11376  0  3.971152  0  0  0.050023  0.102089  0  3.940289  0
C  C55  1  0.73534764  0.57115016  0.71071630  1  0  0.139448  0  3.699078  0  0  0.106701  0  3.952916  0  0  0.113726  0  3.971167  0  0  0.049995  0.102057  0  3.9403  0
N  N56  1  0.38779246  0.33106135  0.64203954  1  0  0.710508  0  4.097044  0  0  0.731109  0  4.404297  0  0  0.75957  0  4.409945  0  0  0.093213  0.711947  0  4.4001  0
N  N57  1  0.61220582  0.66893730  0.35796187  1  0  0.710409  0  4.097293  0  0  0.730996  0  4.404566  0  0  0.759448  0  4.410223  0  0  0.09314  0.711831  0  4.400368  0
N  N58  1  0.97235159  0.17343802  0.26531849  1  0  0.72408  0  4.101369  0  0  0.739463  0  4.416599  0  0  0.768282  0  4.421674  0  0  0.103334  0.72009  0  4.412664  0
N  N59  1  0.02764900  0.82656664  0.73467804  1  0  0.724042  0  4.101053  0  0  0.73941  0  4.416307  0  0  0.768232  0  4.421378  0  0  0.103284  0.720038  0  4.412374  0
N  N60  1  0.33649049  0.15392002  0.23463224  1  0  -0.33227  0  3.312467  0  0  -0.253123  0  3.586795  0  0  -0.271731  0  3.602972  0  0  -0.326418  -0.240427  0  3.57566  0
N  N61  1  0.66351109  0.84608066  0.76536807  1  0  -0.332274  0  3.312423  0  0  -0.253144  0  3.586787  0  0  -0.271753  0  3.602963  0  0  -0.326404  -0.240446  0  3.575652  0
N  N62  1  0.24481836  0.03035785  0.39609351  1  0  -0.322879  0  3.282541  0  0  -0.241971  0  3.544589  0  0  -0.261761  0  3.563684  0  0  -0.322522  -0.228377  0  3.531519  0
N  N63  1  0.75517877  0.96963983  0.60390471  1  0  -0.322848  0  3.282425  0  0  -0.24196  0  3.544521  0  0  -0.261749  0  3.563612  0  0  -0.322543  -0.228364  0  3.531449  0
N  N64  1  0.23570567  0.40088119  0.38372502  1  0  -0.32289  0  3.305412  0  0  -0.241343  0  3.571701  0  0  -0.261234  0  3.590853  0  0  -0.325511  -0.22752  0  3.558329  0
N  N65  1  0.76429735  0.59911751  0.61627738  1  0  -0.322817  0  3.30539  0  0  -0.241263  0  3.571668  0  0  -0.261153  0  3.590823  0  0  -0.32547  -0.227442  0  3.558298  0
O  O66  1  0.43516199  0.30091683  0.54283033  1  0  -0.520499  0  1.786213  0  0  -0.496936  0  2.030459  0  0  -0.517419  0  2.024115  0  0  -0.218514  -0.482796  0  2.034716  0
O  O67  1  0.56483563  0.69907886  0.45716977  1  0  -0.520456  0  1.786318  0  0  -0.496872  0  2.030549  0  0  -0.517346  0  2.024204  0  0  -0.218466  -0.482731  0  2.034805  0
O  O68  1  0.26423024  0.31094656  0.61549724  1  0  -0.474322  0  1.732943  0  0  -0.455724  0  1.947894  0  0  -0.471488  0  1.938515  0  0  -0.201108  -0.44482  0  1.954412  0
O  O69  1  0.73576805  0.68905210  0.38450332  1  0  -0.474293  0  1.733054  0  0  -0.455683  0  1.948002  0  0  -0.471449  0  1.938626  0  0  -0.201083  -0.444779  0  1.954519  0
O  O70  1  0.46087214  0.37572607  0.75536755  1  0  -0.412744  0  1.691667  0  0  -0.41302  0  1.879347  0  0  -0.422924  0  1.872847  0  0  -0.178274  -0.406021  0  1.883984  0
O  O71  1  0.53912542  0.62427357  0.24463325  1  0  -0.412722  0  1.691663  0  0  -0.413002  0  1.879347  0  0  -0.422903  0  1.872852  0  0  -0.178277  -0.406003  0  1.883987  0
O  O72  1  0.04662929  0.19144706  0.37780585  1  0  -0.511962  0  1.858058  0  0  -0.47843  0  2.112052  0  0  -0.499038  0  2.101985  0  0  -0.204086  -0.463992  0  2.11865  0
O  O73  1  0.95336940  0.80855757  0.62219200  1  0  -0.511932  0  1.857935  0  0  -0.478403  0  2.111948  0  0  -0.499012  0  2.101874  0  0  -0.204025  -0.463963  0  2.118546  0
O  O74  1  0.01546583  0.14117015  0.16823443  1  0  -0.449279  0  1.706843  0  0  -0.441312  0  1.910163  0  0  -0.454124  0  1.903155  0  0  -0.180964  -0.432274  0  1.914781  0
O  O75  1  0.98453093  0.85882162  0.83176050  1  0  -0.449252  0  1.706757  0  0  -0.44131  0  1.910097  0  0  -0.454119  0  1.903081  0  0  -0.180968  -0.432272  0  1.914716  0
O  O76  1  0.85909003  0.19040727  0.25940049  1  0  -0.453146  0  1.773879  0  0  -0.441178  0  1.984314  0  0  -0.454238  0  1.976199  0  0  -0.181213  -0.431976  0  1.989817  0
O  O77  1  0.14091390  0.80961226  0.74059833  1  0  -0.453189  0  1.773817  0  0  -0.441168  0  1.984216  0  0  -0.454228  0  1.976101  0  0  -0.181228  -0.431967  0  1.989721  0
