# generated using pymatgen
data_Zn3H12C22(NO2)6
_symmetry_space_group_name_H-M   'P 1'
_cell_length_a   7.89376852
_cell_length_b   9.10405603
_cell_length_c   19.04100000
_cell_angle_alpha   90.00000000
_cell_angle_beta   90.00000000
_cell_angle_gamma   110.47820285
_symmetry_Int_Tables_number   1
_chemical_formula_structural   Zn3H12C22(NO2)6
_chemical_formula_sum   'Zn6 H24 C44 N12 O24'
_cell_volume   1281.91262459
_cell_formula_units_Z   2
loop_
 _symmetry_equiv_pos_site_id
 _symmetry_equiv_pos_as_xyz
  1  'x, y, z'
loop_
 _atom_site_type_symbol
 _atom_site_label
 _atom_site_symmetry_multiplicity
 _atom_site_fract_x
 _atom_site_fract_y
 _atom_site_fract_z
 _atom_site_occupancy
 _atom_site_hle17_bader_spin_density
 _atom_site_hle17_ddec_charge
 _atom_site_hle17_ddec_spin_density
 _atom_site_hle17_ddec_sum_bond_order
 _atom_site_hle17_magmom
 _atom_site_hse06_10hf_bader_spin_density
 _atom_site_hse06_10hf_ddec_charge
 _atom_site_hse06_10hf_ddec_spin_density
 _atom_site_hse06_10hf_ddec_sum_bond_order
 _atom_site_hse06_10hf_magmom
 _atom_site_hse06_bader_spin_density
 _atom_site_hse06_ddec_charge
 _atom_site_hse06_ddec_spin_density
 _atom_site_hse06_ddec_sum_bond_order
 _atom_site_hse06_magmom
 _atom_site_pbe_bader_charge
 _atom_site_pbe_bader_spin_density
 _atom_site_pbe_cm5_charge
 _atom_site_pbe_ddec_charge
 _atom_site_pbe_ddec_spin_density
 _atom_site_pbe_ddec_sum_bond_order
 _atom_site_pbe_magmom
Zn  Zn0  1  0.00000079  0.99999883  0.50000053  1  0  1.069108  0  1.954911  0  0  0.904741  0  2.418711  0  0  0.94653  0  2.363932  0  1.385346  0  0.718336  0.875651  0  2.456312  0
Zn  Zn1  1  0.49999867  0.00000117  0.99999947  1  0  1.069043  0  1.954943  0  0  0.90466  0  2.418798  0  0  0.946444  0  2.364018  0  1.385219  0  0.718284  0.875563  0  2.456401  0
Zn  Zn2  1  0.83288263  0.30515334  0.47088021  1  0  0.984254  0  1.859369  0  0  0.78818  0  2.339115  0  0  0.837253  0  2.283003  0  1.265057  0  0.710486  0.753843  0  2.377759  0
Zn  Zn3  1  0.66711559  0.69485153  0.97087811  1  0  0.984198  0  1.859371  0  0  0.788169  0  2.339107  0  0  0.837244  0  2.282992  0  1.265096  0  0.710477  0.753827  0  2.377753  0
Zn  Zn4  1  0.16712547  0.69485270  0.52912084  1  0  0.984326  0  1.859213  0  0  0.788278  0  2.338897  0  0  0.837353  0  2.282785  0  1.265114  0  0.710557  0.753939  0  2.377541  0
Zn  Zn5  1  0.33287589  0.30515100  0.02912347  1  0  0.984327  0  1.859179  0  0  0.788286  0  2.338857  0  0  0.837361  0  2.282744  0  1.265139  0  0.71059  0.753944  0  2.377501  0
H  H6  1  0.95939098  0.87980994  0.30334384  1  0  0.104992  0  0.951845  0  0  0.112666  0  1.015143  0  0  0.116212  0  1.013504  0  0.106504  0  0.1032  0.110147  0  1.016321  0
H  H7  1  0.54060662  0.12019025  0.80334331  1  0  0.105008  0  0.951848  0  0  0.112702  0  1.015126  0  0  0.116244  0  1.013494  0  0.106592  0  0.103208  0.110182  0  1.016304  0
H  H8  1  0.04060796  0.12018908  0.69665459  1  0  0.104981  0  0.951858  0  0  0.112673  0  1.01514  0  0  0.116221  0  1.013492  0  0.106507  0  0.103196  0.110153  0  1.016319  0
H  H9  1  0.45940054  0.87981345  0.19665564  1  0  0.104965  0  0.951835  0  0  0.112641  0  1.015142  0  0  0.116191  0  1.013491  0  0.106507  0  0.103191  0.110121  0  1.016321  0
H  H10  1  0.93220979  0.78846103  0.17921590  1  0  0.089806  0  0.967462  0  0  0.099467  0  1.03169  0  0  0.102571  0  1.029903  0  0.090685  0  0.100229  0.097227  0  1.033072  0
H  H11  1  0.56778369  0.21154150  0.67921800  1  0  0.089791  0  0.967534  0  0  0.099466  0  1.031751  0  0  0.10257  0  1.029964  0  0.090627  0  0.10025  0.097226  0  1.033134  0
H  H12  1  0.06778866  0.21154619  0.82078042  1  0  0.089732  0  0.967573  0  0  0.099456  0  1.031737  0  0  0.10256  0  1.029951  0  0.090633  0  0.100242  0.097216  0  1.033117  0
H  H13  1  0.43221049  0.78845517  0.32078252  1  0  0.089804  0  0.967622  0  0  0.09951  0  1.031784  0  0  0.102613  0  1.029999  0  0.090608  0  0.100268  0.097271  0  1.033163  0
H  H14  1  0.81526620  0.19576775  0.11544457  1  0  0.100526  0  0.952343  0  0  0.108484  0  1.016321  0  0  0.111926  0  1.014122  0  0.08971  0  0.103567  0.105993  0  1.01802  0
H  H15  1  0.68472522  0.80423595  0.61544247  1  0  0.100592  0  0.952308  0  0  0.108533  0  1.016293  0  0  0.111977  0  1.014092  0  0.089618  0  0.103589  0.106042  0  1.017995  0
H  H16  1  0.18472956  0.80423595  0.88455596  1  0  0.100588  0  0.952317  0  0  0.108528  0  1.016305  0  0  0.11197  0  1.014105  0  0.089657  0  0.10359  0.106033  0  1.018007  0
H  H17  1  0.31526279  0.19576424  0.38455648  1  0  0.100498  0  0.952336  0  0  0.108464  0  1.016305  0  0  0.111903  0  1.014113  0  0.089598  0  0.103584  0.105974  0  1.018005  0
H  H18  1  0.83715417  0.28510933  0.24020640  1  0  0.093111  0  0.968856  0  0  0.099451  0  1.03801  0  0  0.102644  0  1.036502  0  0.087305  0  0.09796  0.097162  0  1.039129  0
H  H19  1  0.66283995  0.71488852  0.74020482  1  0  0.09315  0  0.968825  0  0  0.099475  0  1.037998  0  0  0.102679  0  1.036477  0  0.087343  0  0.097967  0.097186  0  1.039116  0
H  H20  1  0.16283400  0.71488500  0.75979465  1  0  0.093149  0  0.968796  0  0  0.099482  0  1.037971  0  0  0.102677  0  1.036452  0  0.087348  0  0.097959  0.097192  0  1.039092  0
H  H21  1  0.33716452  0.28511167  0.25979413  1  0  0.093129  0  0.968932  0  0  0.099457  0  1.038088  0  0  0.102661  0  1.036568  0  0.08731  0  0.097961  0.097169  0  1.039206  0
H  H22  1  0.38216953  0.22319740  0.57644451  1  0  0.131522  0  0.949969  0  0  0.139964  0  1.0094  0  0  0.142724  0  1.008046  0  0.146312  0  0.127645  0.137933  0  1.010525  0
H  H23  1  0.11783278  0.77680865  0.07644609  1  0  0.13148  0  0.949979  0  0  0.139928  0  1.009409  0  0  0.142687  0  1.008054  0  0.146256  0  0.127644  0.1379  0  1.010537  0
H  H24  1  0.61784095  0.77680513  0.42355706  1  0  0.131514  0  0.950036  0  0  0.139991  0  1.00942  0  0  0.142751  0  1.008063  0  0.146336  0  0.127691  0.137965  0  1.010547  0
H  H25  1  0.88215776  0.22319154  0.92355706  1  0  0.131519  0  0.949992  0  0  0.139968  0  1.009402  0  0  0.142729  0  1.008044  0  0.146342  0  0.127649  0.137939  0  1.010529  0
H  H26  1  0.45141402  0.54511878  0.59426606  1  0  0.117556  0  0.94096  0  0  0.130585  0  0.995843  0  0  0.132859  0  0.994623  0  0.103596  0  0.129497  0.128934  0  0.996805  0
H  H27  1  0.04858814  0.45488375  0.09426973  1  0  0.11754  0  0.940978  0  0  0.130626  0  0.995798  0  0  0.13291  0  0.994577  0  0.103125  0  0.129486  0.128971  0  0.996767  0
H  H28  1  0.54860121  0.45488610  0.40573132  1  0  0.117553  0  0.941109  0  0  0.130625  0  0.995918  0  0  0.132913  0  0.994698  0  0.103394  0  0.129486  0.12897  0  0.996889  0
H  H29  1  0.95140367  0.54511643  0.90572922  1  0  0.117574  0  0.940994  0  0  0.130637  0  0.995825  0  0  0.132922  0  0.994604  0  0.103399  0  0.129509  0.128982  0  0.996795  0
C  C30  1  0.89976101  0.12934285  0.35568142  1  0  0.672864  0  3.864961  0  0  0.619653  0  4.156213  0  0  0.655258  0  4.147676  0  1.561812  0  0.221302  0.595482  0  4.161228  0
C  C31  1  0.60023532  0.87065734  0.85567827  1  0  0.672912  0  3.864775  0  0  0.619775  0  4.155951  0  0  0.655401  0  4.147376  0  1.562122  0  0.22141  0.5956  0  4.160973  0
C  C32  1  0.10024142  0.87064913  0.64432435  1  0  0.672759  0  3.864821  0  0  0.619602  0  4.15603  0  0  0.655221  0  4.147468  0  1.56204  0  0.221379  0.595427  0  4.16105  0
C  C33  1  0.39975677  0.12935926  0.14432645  1  0  0.672589  0  3.864934  0  0  0.619421  0  4.156167  0  0  0.655048  0  4.147603  0  1.562015  0  0.221258  0.595245  0  4.161185  0
C  C34  1  0.89567710  0.08599758  0.27966073  1  0  -0.053774  0  3.735214  0  0  -0.029547  0  3.962976  0  0  -0.036842  0  3.986472  0  -0.082405  0  -0.012385  -0.024724  0  3.947105  0
C  C35  1  0.60432160  0.91400847  0.77965863  1  0  -0.053584  0  3.735004  0  0  -0.029377  0  3.962762  0  0  -0.036678  0  3.986252  0  -0.082852  0  -0.012272  -0.024554  0  3.946893  0
C  C36  1  0.10431945  0.91400495  0.72033979  1  0  -0.053703  0  3.7352  0  0  -0.029466  0  3.962941  0  0  -0.036764  0  3.986429  0  -0.082935  0  -0.012341  -0.024641  0  3.947069  0
C  C37  1  0.39568114  0.08599054  0.22033822  1  0  -0.053543  0  3.735239  0  0  -0.029354  0  3.963028  0  0  -0.036657  0  3.986519  0  -0.082916  0  -0.012322  -0.024528  0  3.947152  0
C  C38  1  0.92678300  0.94792795  0.26192742  1  0  -0.065219  0  3.725379  0  0  -0.087434  0  3.972712  0  0  -0.088958  0  3.994214  0  0.042593  0  -0.082563  -0.086335  0  3.95813  0
C  C39  1  0.57320874  0.05207341  0.76192532  1  0  -0.065311  0  3.725401  0  0  -0.087548  0  3.972763  0  0  -0.089071  0  3.994263  0  0.042532  0  -0.082596  -0.086448  0  3.95818  0
C  C40  1  0.07320833  0.05207107  0.73807311  1  0  -0.06515  0  3.725343  0  0  -0.087376  0  3.972667  0  0  -0.088896  0  3.994168  0  0.042631  0  -0.082546  -0.08628  0  3.958086  0
C  C41  1  0.42678891  0.94793498  0.23807311  1  0  -0.065206  0  3.725516  0  0  -0.087402  0  3.972846  0  0  -0.088923  0  3.994352  0  0.04259  0  -0.082561  -0.086305  0  3.958264  0
C  C42  1  0.91198454  0.89744680  0.19265532  1  0  -0.075502  0  3.745089  0  0  -0.100144  0  3.995468  0  0  -0.101156  0  4.016835  0  -0.056034  0  -0.086357  -0.09937  0  3.980994  0
C  C43  1  0.58801449  0.10255691  0.69265585  1  0  -0.075443  0  3.745122  0  0  -0.100096  0  3.995495  0  0  -0.101106  0  4.016859  0  -0.055916  0  -0.086381  -0.099322  0  3.981021  0
C  C44  1  0.08801756  0.10255691  0.80734363  1  0  -0.07552  0  3.745147  0  0  -0.100216  0  3.995523  0  0  -0.101232  0  4.016891  0  -0.056059  0  -0.086386  -0.099442  0  3.98105  0
C  C45  1  0.41198698  0.89744211  0.30734310  1  0  -0.07551  0  3.744773  0  0  -0.100185  0  3.995146  0  0  -0.101199  0  4.016511  0  -0.055963  0  -0.086353  -0.099411  0  3.980674  0
C  C46  1  0.86765183  0.98494519  0.13973006  1  0  -0.057488  0  3.733164  0  0  -0.034084  0  3.96405  0  0  -0.041706  0  3.986499  0  -0.012524  0  -0.015247  -0.029123  0  3.949023  0
C  C47  1  0.63234324  0.01505500  0.63973058  1  0  -0.057611  0  3.733261  0  0  -0.034208  0  3.964148  0  0  -0.041839  0  3.986596  0  -0.012746  0  -0.015289  -0.029247  0  3.949122  0
C  C48  1  0.13234393  0.01505852  0.86027047  1  0  -0.057512  0  3.733148  0  0  -0.034124  0  3.96408  0  0  -0.041753  0  3.986525  0  -0.012239  0  -0.015286  -0.029165  0  3.949057  0
C  C49  1  0.36765680  0.98494988  0.36027204  1  0  -0.057553  0  3.732968  0  0  -0.034176  0  3.963928  0  0  -0.041805  0  3.98637  0  -0.012508  0  -0.01528  -0.029219  0  3.948905  0
C  C50  1  0.84912106  0.12849512  0.15689670  1  0  -0.047163  0  3.70333  0  0  -0.071812  0  3.955315  0  0  -0.071434  0  3.973943  0  -0.070094  0  -0.079116  -0.072008  0  3.942756  0
C  C51  1  0.65087749  0.87150741  0.65689512  1  0  -0.0472  0  3.703363  0  0  -0.071846  0  3.955338  0  0  -0.071466  0  3.973963  0  -0.070426  0  -0.079158  -0.072047  0  3.942787  0
C  C52  1  0.15087549  0.87150741  0.84310540  1  0  -0.047199  0  3.703142  0  0  -0.071839  0  3.955122  0  0  -0.07146  0  3.973746  0  -0.070156  0  -0.079152  -0.072035  0  3.942566  0
C  C53  1  0.34912097  0.12849043  0.34310488  1  0  -0.047068  0  3.703387  0  0  -0.071735  0  3.95539  0  0  -0.071356  0  3.974021  0  -0.070079  0  -0.079165  -0.071937  0  3.942841  0
C  C54  1  0.86098009  0.17789522  0.22647235  1  0  -0.075969  0  3.728274  0  0  -0.099464  0  3.978322  0  0  -0.100987  0  3.999398  0  0.002363  0  -0.08584  -0.098347  0  3.964064  0
C  C55  1  0.63901324  0.82210380  0.72646920  1  0  -0.076075  0  3.72825  0  0  -0.099555  0  3.978304  0  0  -0.101085  0  3.999375  0  0.002824  0  -0.085871  -0.098436  0  3.964048  0
C  C56  1  0.13900998  0.82210380  0.77352923  1  0  -0.076028  0  3.728117  0  0  -0.099535  0  3.978168  0  0  -0.101055  0  3.999245  0  0.002611  0  -0.085845  -0.098416  0  3.963911  0
C  C57  1  0.36098553  0.17790108  0.27352870  1  0  -0.076143  0  3.728103  0  0  -0.099619  0  3.978179  0  0  -0.101152  0  3.99925  0  0.002554  0  -0.08587  -0.098502  0  3.963921  0
C  C58  1  0.81855900  0.91832564  0.06786933  1  0  0.660574  0  3.863505  0  0  0.610279  0  4.149549  0  0  0.645749  0  4.141159  0  1.551364  0  0.211254  0.586144  0  4.154543  0
C  C59  1  0.68143781  0.08167572  0.56786986  1  0  0.660585  0  3.863509  0  0  0.610322  0  4.14949  0  0  0.645807  0  4.141075  0  1.550831  0  0.211252  0.586187  0  4.154481  0
C  C60  1  0.18143438  0.08168158  0.93212909  1  0  0.660512  0  3.863434  0  0  0.610206  0  4.149503  0  0  0.645696  0  4.141081  0  1.550273  0  0.211156  0.586072  0  4.154498  0
C  C61  1  0.31856177  0.91831861  0.43212909  1  0  0.660486  0  3.863502  0  0  0.610216  0  4.149524  0  0  0.645705  0  4.1411  0  1.5505  0  0.211176  0.586082  0  4.154515  0
C  C62  1  0.30225695  0.29446711  0.56272307  1  0  0.016859  0  3.663654  0  0  -0.019254  0  3.928464  0  0  -0.018019  0  3.944605  0  0.437082  0  0.025033  -0.020175  0  3.917735  0
C  C63  1  0.19774253  0.70553190  0.06272517  1  0  0.016935  0  3.663821  0  0  -0.019168  0  3.928635  0  0  -0.017937  0  3.944786  0  0.437055  0  0.025023  -0.020096  0  3.917911  0
C  C64  1  0.69774689  0.70553777  0.43727588  1  0  0.016919  0  3.663398  0  0  -0.019217  0  3.928232  0  0  -0.017984  0  3.944379  0  0.437098  0  0.025033  -0.020144  0  3.917505  0
C  C65  1  0.80225039  0.29446476  0.93727588  1  0  0.01682  0  3.663443  0  0  -0.019257  0  3.928249  0  0  -0.018026  0  3.944394  0  0.437131  0  0.024999  -0.020182  0  3.917522  0
C  C66  1  0.33776219  0.45399617  0.57061604  1  0  0.003259  0  3.699467  0  0  -0.032474  0  3.959074  0  0  -0.03006  0  3.976406  0  0.452432  0  0.021211  -0.034044  0  3.947386  0
C  C67  1  0.16223791  0.54600754  0.07061709  1  0  0.003207  0  3.699703  0  0  -0.032562  0  3.95927  0  0  -0.030165  0  3.976617  0  0.452929  0  0.021209  -0.034131  0  3.947579  0
C  C68  1  0.66224134  0.54600168  0.42938186  1  0  0.003286  0  3.699288  0  0  -0.032464  0  3.958831  0  0  -0.030072  0  3.976184  0  0.452675  0  0.021238  -0.034032  0  3.94714  0
C  C69  1  0.83775832  0.45399734  0.92938396  1  0  0.003273  0  3.699473  0  0  -0.032472  0  3.959033  0  0  -0.030074  0  3.976383  0  0.45272  0  0.021202  -0.034041  0  3.947343  0
C  C70  1  0.12276321  0.53213208  0.31986240  1  0  0.818748  0  3.787103  0  0  0.747297  0  4.121719  0  0  0.791955  0  4.105213  0  2.122887  0  0.365197  0.716835  0  4.132718  0
C  C71  1  0.37725260  0.46785404  0.81984980  1  0  0.818623  0  3.787048  0  0  0.747133  0  4.121725  0  0  0.791787  0  4.105232  0  2.122746  0  0.365284  0.716672  0  4.132717  0
C  C72  1  0.87725603  0.46784817  0.68014337  1  0  0.818147  0  3.787704  0  0  0.746662  0  4.122382  0  0  0.791317  0  4.105898  0  2.122896  0  0.365145  0.716201  0  4.133367  0
C  C73  1  0.62275522  0.53213560  0.18014285  1  0  0.818613  0  3.787085  0  0  0.74715  0  4.121716  0  0  0.791807  0  4.105211  0  2.122964  0  0.365155  0.716689  0  4.132712  0
N  N74  1  0.14211763  0.23448630  0.52919017  1  0  -0.209347  0  3.245605  0  0  -0.152611  0  3.523599  0  0  -0.162521  0  3.538885  0  -0.697773  0  -0.220192  -0.145695  0  3.513281  0
N  N75  1  0.35787772  0.76551506  0.02919122  1  0  -0.209375  0  3.24551  0  0  -0.152671  0  3.523558  0  0  -0.162576  0  3.538838  0  -0.697744  0  -0.220212  -0.145755  0  3.513242  0
N  N76  1  0.85788304  0.76551388  0.47081193  1  0  -0.209367  0  3.24554  0  0  -0.152696  0  3.523617  0  0  -0.162603  0  3.538898  0  -0.697823  0  -0.220275  -0.14578  0  3.513302  0
N  N77  1  0.64210569  0.23448630  0.97080668  1  0  -0.2094  0  3.245495  0  0  -0.152744  0  3.523593  0  0  -0.162648  0  3.538872  0  -0.697694  0  -0.220165  -0.145828  0  3.513277  0
N  N78  1  0.08104398  0.35050243  0.51638097  1  0  -0.136151  0  3.256663  0  0  -0.080265  0  3.55186  0  0  -0.090701  0  3.568291  0  -0.235204  0  -0.135469  -0.073213  0  3.540804  0
N  N79  1  0.41895264  0.64949893  0.01638097  1  0  -0.136084  0  3.256614  0  0  -0.080211  0  3.551844  0  0  -0.090645  0  3.568268  0  -0.235291  0  -0.135471  -0.073157  0  3.540786  0
N  N80  1  0.91895717  0.64949893  0.48362113  1  0  -0.136246  0  3.256576  0  0  -0.080344  0  3.551777  0  0  -0.090778  0  3.5682  0  -0.235246  0  -0.135473  -0.07329  0  3.540722  0
N  N81  1  0.58103156  0.35050125  0.98361536  1  0  -0.13609  0  3.256632  0  0  -0.080203  0  3.551854  0  0  -0.09064  0  3.568282  0  -0.235327  0  -0.135521  -0.073148  0  3.540796  0
N  N82  1  0.19806972  0.48531737  0.54140486  1  0  -0.243546  0  3.287728  0  0  -0.176519  0  3.584296  0  0  -0.190414  0  3.599502  0  -0.736116  0  -0.242509  -0.166966  0  3.573957  0
N  N83  1  0.30192690  0.51468399  0.04140591  1  0  -0.243557  0  3.287835  0  0  -0.176536  0  3.58444  0  0  -0.190431  0  3.599646  0  -0.73602  0  -0.242482  -0.166981  0  3.574098  0
N  N84  1  0.80193523  0.51468399  0.45859409  1  0  -0.243541  0  3.287642  0  0  -0.176507  0  3.584206  0  0  -0.190404  0  3.599417  0  -0.73606  0  -0.242514  -0.166954  0  3.573867  0
N  N85  1  0.69806284  0.48531737  0.95859304  1  0  -0.243484  0  3.287694  0  0  -0.176471  0  3.584295  0  0  -0.190367  0  3.599506  0  -0.736122  0  -0.242449  -0.166917  0  3.573952  0
O  O86  1  0.97065446  0.05987059  0.39710152  1  0  -0.637957  0  2.17481  0  0  -0.576005  0  2.449877  0  0  -0.603116  0  2.43839  0  -1.180609  0  -0.305467  -0.557102  0  2.456962  0
O  O87  1  0.52934456  0.94013311  0.89710099  1  0  -0.638027  0  2.174685  0  0  -0.576095  0  2.449721  0  0  -0.603219  0  2.438238  0  -1.180555  0  -0.305511  -0.557189  0  2.456807  0
O  O88  1  0.02933355  0.94012960  0.60289691  1  0  -0.638031  0  2.174168  0  0  -0.576193  0  2.449368  0  0  -0.60332  0  2.437887  0  -1.180379  0  -0.305575  -0.557284  0  2.456455  0
O  O89  1  0.47067306  0.05986824  0.10289533  1  0  -0.638013  0  2.173886  0  0  -0.576177  0  2.449128  0  0  -0.603288  0  2.4376  0  -1.180375  0  -0.305512  -0.557264  0  2.45621  0
O  O90  1  0.83139331  0.23390943  0.37320046  1  0  -0.645237  0  2.064191  0  0  -0.572467  0  2.345812  0  0  -0.602025  0  2.330298  0  -1.16365  0  -0.327024  -0.551799  0  2.355686  0
O  O91  1  0.66860966  0.76609779  0.87320046  1  0  -0.645167  0  2.06417  0  0  -0.572446  0  2.345788  0  0  -0.602016  0  2.330275  0  -1.16358  0  -0.327059  -0.551778  0  2.355665  0
O  O92  1  0.16861068  0.76609896  0.62680164  1  0  -0.645011  0  2.064408  0  0  -0.57225  0  2.34598  0  0  -0.601829  0  2.330506  0  -1.163638  0  -0.326979  -0.551585  0  2.355857  0
O  O93  1  0.33139640  0.23390005  0.12680006  1  0  -0.644928  0  2.064715  0  0  -0.57212  0  2.346239  0  0  -0.601706  0  2.330782  0  -1.163681  0  -0.326934  -0.551457  0  2.356114  0
O  O94  1  0.82324823  0.78030507  0.05542566  1  0  -0.637844  0  2.037668  0  0  -0.56767  0  2.305582  0  0  -0.597282  0  2.292527  0  -1.159526  0  -0.321689  -0.546981  0  2.313796  0
O  O95  1  0.67674288  0.21969160  0.55542251  1  0  -0.637794  0  2.037758  0  0  -0.567625  0  2.30568  0  0  -0.597245  0  2.292628  0  -1.158964  0  -0.321666  -0.546933  0  2.31389  0
O  O96  1  0.17673788  0.21969043  0.94457539  1  0  -0.637731  0  2.037855  0  0  -0.567559  0  2.305797  0  0  -0.59717  0  2.29273  0  -1.159027  0  -0.321611  -0.546879  0  2.314028  0
O  O97  1  0.32326127  0.78031093  0.44457592  1  0  -0.637706  0  2.037933  0  0  -0.567529  0  2.305839  0  0  -0.59715  0  2.292788  0  -1.159004  0  -0.321604  -0.546841  0  2.314051  0
O  O98  1  0.76382203  0.99249027  0.02214695  1  0  -0.647611  0  2.080773  0  0  -0.585727  0  2.346264  0  0  -0.610888  0  2.331482  0  -1.211849  0  -0.318799  -0.568138  0  2.355784  0
O  O99  1  0.73617731  0.00751108  0.52214695  1  0  -0.647659  0  2.080659  0  0  -0.585806  0  2.346162  0  0  -0.61097  0  2.331371  0  -1.21186  0  -0.318816  -0.568227  0  2.355703  0
O  O100  1  0.23617817  0.00750874  0.97785463  1  0  -0.647653  0  2.080421  0  0  -0.585761  0  2.345925  0  0  -0.610934  0  2.331134  0  -1.211601  0  -0.318762  -0.568152  0  2.355403  0
O  O101  1  0.26381718  0.99249262  0.47785305  1  0  -0.647645  0  2.080559  0  0  -0.585765  0  2.345996  0  0  -0.610933  0  2.331202  0  -1.211627  0  -0.318793  -0.568171  0  2.355513  0
O  O102  1  0.22780910  0.47579660  0.33920120  1  0  -0.398228  0  1.9879  0  0  -0.360799  0  2.190262  0  0  -0.382451  0  2.180397  0  -1.071755  0  -0.171076  -0.346097  0  2.196753  0
O  O103  1  0.27219720  0.52419420  0.83918754  1  0  -0.398047  0  1.987623  0  0  -0.36058  0  2.189972  0  0  -0.382246  0  2.180144  0  -1.071411  0  -0.170995  -0.345866  0  2.196435  0
O  O104  1  0.77220379  0.52419303  0.66081876  1  0  -0.397764  0  1.988097  0  0  -0.360312  0  2.19044  0  0  -0.381971  0  2.180606  0  -1.071413  0  -0.170915  -0.345601  0  2.196903  0
O  O105  1  0.72781077  0.47579895  0.16081928  1  0  -0.397968  0  1.987994  0  0  -0.360522  0  2.190333  0  0  -0.382179  0  2.180485  0  -1.071846  0  -0.170905  -0.345815  0  2.196806  0
O  O106  1  0.01872949  0.58895415  0.30003151  1  0  -0.397623  0  1.982969  0  0  -0.362139  0  2.182358  0  0  -0.383857  0  2.173651  0  -1.074853  0  -0.172055  -0.347424  0  2.188107  0
O  O107  1  0.48127951  0.41103079  0.80002416  1  0  -0.397703  0  1.983201  0  0  -0.362201  0  2.182617  0  0  -0.383908  0  2.173912  0  -1.075076  0  -0.172216  -0.347491  0  2.18837  0
O  O108  1  0.98129784  0.41101790  0.69995641  1  0  -0.397522  0  1.983358  0  0  -0.361996  0  2.182743  0  0  -0.383708  0  2.174053  0  -1.075187  0  -0.172159  -0.347281  0  2.18848  0
O  O109  1  0.51872099  0.58897526  0.19996166  1  0  -0.397777  0  1.982887  0  0  -0.362278  0  2.182262  0  0  -0.383994  0  2.173557  0  -1.074818  0  -0.172177  -0.347563  0  2.18801  0
