# generated using pymatgen
data_Zn2H13C27BrN8
_symmetry_space_group_name_H-M   'P 1'
_cell_length_a   18.36919316
_cell_length_b   18.36790424
_cell_length_c   18.40318089
_cell_angle_alpha   111.80187852
_cell_angle_beta   111.71666128
_cell_angle_gamma   97.34037423
_symmetry_Int_Tables_number   1
_chemical_formula_structural   Zn2H13C27BrN8
_chemical_formula_sum   'Zn4 H26 C54 Br2 N16'
_cell_volume   5096.58959952
_cell_formula_units_Z   2
loop_
 _symmetry_equiv_pos_site_id
 _symmetry_equiv_pos_as_xyz
  1  'x, y, z'
loop_
 _atom_site_type_symbol
 _atom_site_label
 _atom_site_symmetry_multiplicity
 _atom_site_fract_x
 _atom_site_fract_y
 _atom_site_fract_z
 _atom_site_occupancy
 _atom_site_pbe_bader_charge
 _atom_site_pbe_bader_spin_density
 _atom_site_pbe_cm5_charge
 _atom_site_pbe_ddec_charge
 _atom_site_pbe_ddec_spin_density
 _atom_site_pbe_ddec_sum_bond_order
 _atom_site_pbe_magmom
Br  Br0  1  0.18445101  0.39275604  0.74708157  1  -0.014374  0  0.083942  -0.011138  0  1.459172  0
Br  Br1  1  0.39313900  0.18456970  0.74684188  1  -0.01717  0  0.083945  -0.011314  0  1.457997  0
C  C2  1  0.56536948  0.26123142  0.95252577  1  0.438525  0  0.01658  -0.029819  0  3.955521  0
C  C3  1  0.26121834  0.56547060  0.95258760  1  0.439085  0  0.017155  -0.029005  0  3.954386  0
C  C4  1  0.72753044  0.57974633  0.06051566  1  0.439661  0  0.023208  -0.031253  0  3.918538  0
C  C5  1  0.57973341  0.72754205  0.06047869  1  0.440361  0  0.023488  -0.030885  0  3.919355  0
C  C6  1  0.50486318  0.65884865  0.91564932  1  0.454283  0  0.022195  -0.034454  0  3.909584  0
C  C7  1  0.65903823  0.50482371  0.91566329  1  0.41855  0  0.022278  -0.03362  0  3.909314  0
C  C8  1  0.41577761  0.41593059  0.65157386  1  0.068299  0  -0.029826  0.029308  0  4.214158  0
C  C9  1  0.74801480  0.74810271  0.28929322  1  0.131633  0  -0.025904  0.057418  0  4.19023  0
C  C10  1  0.73699505  0.55947721  0.98333063  1  0.090709  0  -0.024482  0.03509  0  4.195063  0
C  C11  1  0.55951178  0.73688257  0.98327574  1  0.089903  0  -0.024573  0.034976  0  4.195162  0
C  C12  1  0.00437580  0.09573062  0.53152581  1  -0.01596  0  -0.154103  -0.181847  0  3.851648  0
C  C13  1  0.09604715  0.00395439  0.53074171  1  -0.000989  0  -0.153757  -0.181119  0  3.851024  0
C  C14  1  0.01933395  0.92744662  0.46798235  1  -0.01621  0  -0.15531  -0.182406  0  3.854265  0
C  C15  1  0.92770392  0.01926633  0.46829928  1  0.013835  0  -0.154808  -0.182367  0  3.854226  0
C  C16  1  0.81731409  0.81735945  0.32760339  1  -0.464966  0  -0.073248  -0.145322  0  4.203645  0
C  C17  1  0.07966587  0.07953135  0.51649114  1  0.118026  0  -0.000438  0.176752  0  3.893892  0
C  C18  1  0.94917960  0.94906945  0.40933188  1  0.094919  0  9.1e-05  0.180173  0  3.893259  0
C  C19  1  0.33439203  0.65220739  0.09394520  1  0.433452  0  0.0206  -0.048324  0  3.962071  0
C  C20  1  0.65210558  0.33453127  0.09381257  1  0.439118  0  0.020025  -0.049536  0  3.964096  0
C  C21  1  0.98125574  0.98126398  0.35651406  1  -0.024455  0  -0.154095  -0.187313  0  3.836291  0
C  C22  1  0.05849894  0.05886923  0.42010178  1  -0.02098  0  -0.15333  -0.187386  0  3.83793  0
C  C23  1  0.87658186  0.87650762  0.35663609  1  0.127789  0  -0.046642  -0.115654  0  4.066908  0
C  C24  1  0.15100301  0.15087352  0.58309087  1  0.233351  0  -0.034853  -0.095399  0  4.033555  0
C  C25  1  0.20628709  0.20612323  0.65133250  1  -0.607928  0  -0.076661  -0.129157  0  4.233258  0
C  C26  1  0.17784778  0.62028804  0.02832372  1  -0.25668  0  -0.028659  -0.059713  0  4.076048  0
C  C27  1  0.62009238  0.17785283  0.02819978  1  -0.249552  0  -0.028588  -0.059099  0  4.073939  0
C  C28  1  0.10804795  0.61851593  0.02053714  1  0.030823  0  -0.048804  -0.063268  0  4.343063  0
C  C29  1  0.61842368  0.10804368  0.02042190  1  0.032037  0  -0.048962  -0.06401  0  4.341178  0
C  C30  1  0.03124287  0.61417589  0.01023387  1  0.140893  0  -0.031145  -0.022749  0  4.259131  0
C  C31  1  0.61423438  0.03125094  0.01024878  1  0.139372  0  -0.031132  -0.022522  0  4.25725  0
C  C32  1  0.95942045  0.60695623  0.99869681  1  -0.225196  0  -0.028078  -0.018614  0  4.255251  0
C  C33  1  0.60706163  0.95940010  0.99870433  1  -0.223901  0  -0.028182  -0.018626  0  4.254207  0
C  C34  1  0.88201767  0.59562610  0.98832788  1  -0.201248  0  -0.047317  -0.0602  0  4.33496  0
C  C35  1  0.59575183  0.88197108  0.98836225  1  -0.200166  0  -0.047382  -0.060654  0  4.333888  0
C  C36  1  0.49477333  0.41418287  0.14783828  1  0.429195  0  0.024617  -0.027427  0  3.906774  0
C  C37  1  0.41417181  0.49483163  0.14798004  1  0.426451  0  0.024441  -0.027912  0  3.907642  0
C  C38  1  0.81153471  0.58121625  0.98070419  1  0.006117  0  -0.026357  -0.059612  0  4.066186  0
C  C39  1  0.58122153  0.81142893  0.98062013  1  0.006183  0  -0.026341  -0.059282  0  4.065509  0
C  C40  1  0.40426145  0.40438718  0.56811875  1  -0.011021  0  -0.027084  -0.055283  0  4.080299  0
C  C41  1  0.39629932  0.39637397  0.49586706  1  -0.119011  0  -0.051447  -0.068034  0  4.342014  0
C  C42  1  0.39166184  0.39168835  0.41976538  1  -0.068688  0  -0.028732  -0.017432  0  4.256737  0
C  C43  1  0.39130298  0.39145140  0.35230734  1  -0.083728  0  -0.030639  -0.023854  0  4.251571  0
C  C44  1  0.39735122  0.39744715  0.28419128  1  -0.2686  0  -0.04688  -0.057793  0  4.334394  0
C  C45  1  0.40913938  0.40914929  0.22721130  1  0.082975  0  -0.028516  -0.064187  0  4.066545  0
C  C46  1  0.26845789  0.34731203  0.78325835  1  0.438085  0  0.081349  0.13617  0  4.004537  0
C  C47  1  0.34745157  0.26841629  0.78310442  1  0.439072  0  0.082021  0.137815  0  4.003217  0
C  C48  1  0.61436774  0.25256677  0.02671205  1  0.145176  0  -0.027527  0.033255  0  4.207099  0
C  C49  1  0.25252709  0.61453574  0.02682900  1  0.157194  0  -0.027861  0.032811  0  4.208447  0
C  C50  1  0.43377780  0.43379777  0.17420377  1  0.144339  0  -0.022362  0.036756  0  4.191213  0
C  C51  1  0.26864704  0.26850628  0.73172823  1  0.239302  0  -0.031958  -0.027366  0  4.184895  0
C  C52  1  0.46411949  0.38388927  0.70434822  1  0.451951  0  0.015828  -0.050367  0  3.965697  0
C  C53  1  0.38355916  0.46414779  0.70435547  1  0.434975  0  0.01627  -0.048764  0  3.963408  0
C  C54  1  0.66476270  0.74485294  0.26279938  1  0.405217  0  0.015996  -0.051002  0  3.961471  0
C  C55  1  0.74465369  0.66478467  0.26280202  1  0.400409  0  0.016074  -0.050916  0  3.962784  0
H  H56  1  0.52520927  0.21318193  0.88661481  1  0.124629  0  0.102489  0.092028  0  1.073203  0
H  H57  1  0.21325919  0.52533031  0.88663851  1  0.126383  0  0.102486  0.092001  0  1.073057  0
H  H58  1  0.01960341  0.11183762  0.60027295  1  0.00129  0  0.093193  0.09274  0  0.978039  0
H  H59  1  0.11303663  0.01893886  0.59960546  1  0.014102  0  0.092931  0.092406  0  0.977527  0
H  H60  1  0.14970761  0.99365003  0.52014514  1  0.029293  0  0.091517  0.088315  0  0.980769  0
H  H61  1  0.99425599  0.14988592  0.52198515  1  0.032818  0  0.091756  0.08891  0  0.981082  0
H  H62  1  0.03336996  0.87741237  0.42500393  1  0.034281  0  0.092224  0.088942  0  0.980022  0
H  H63  1  0.87805107  0.03373358  0.42553534  1  0.024997  0  0.091832  0.088945  0  0.979599  0
H  H64  1  0.04766362  0.11227018  0.40920479  1  0.02429  0  0.09363  0.093406  0  0.977219  0
H  H65  1  0.11181963  0.04854800  0.40875115  1  0.031917  0  0.092714  0.092048  0  0.978474  0
H  H66  1  0.93193806  0.99579469  0.31345878  1  0.036425  0  0.093252  0.092506  0  0.978858  0
H  H67  1  0.99608711  0.93202735  0.31359359  1  0.034577  0  0.093268  0.092386  0  0.978707  0
H  H68  1  0.35712538  0.69491114  0.16268605  1  0.095908  0  0.126772  0.117994  0  0.982058  0
H  H69  1  0.69479032  0.35724966  0.16251337  1  0.097436  0  0.12696  0.118396  0  0.981892  0
H  H70  1  0.52718558  0.36989342  0.15490971  1  0.109965  0  0.125045  0.115648  0  0.993995  0
H  H71  1  0.36990189  0.52725481  0.15514478  1  0.112599  0  0.125249  0.116012  0  0.993776  0
H  H72  1  0.49994527  0.34301538  0.68940741  1  0.09711  0  0.122658  0.112698  0  0.990076  0
H  H73  1  0.34256736  0.49983756  0.68941230  1  0.113765  0  0.122518  0.111897  0  0.989259  0
H  H74  1  0.63879407  0.79555245  0.27173741  1  0.096708  0  0.126273  0.116557  0  0.979657  0
H  H75  1  0.79524836  0.63869566  0.27173533  1  0.102862  0  0.126477  0.116864  0  0.980249  0
H  H76  1  0.77223042  0.62126094  0.12777069  1  0.152348  0  0.121495  0.109601  0  1.017802  0
H  H77  1  0.62124790  0.77233045  0.12770587  1  0.152211  0  0.121383  0.109522  0  1.017788  0
H  H78  1  0.47483207  0.63754623  0.84522157  1  0.102655  0  0.12379  0.11604  0  0.997106  0
H  H79  1  0.63781222  0.47471545  0.84523492  1  0.139374  0  0.123881  0.115719  0  0.997365  0
H  H80  1  0.90317192  0.99650593  0.50458646  1  0.029402  0  0.092811  0.091335  0  0.979564  0
H  H81  1  0.99681012  0.90330866  0.50467252  1  0.028303  0  0.092759  0.091165  0  0.979069  0
N  N82  1  0.57322575  0.34087053  0.97347140  1  -0.803874  0  -0.264824  -0.189028  0  3.527508  0
N  N83  1  0.34081301  0.57323480  0.97353493  1  -0.802571  0  -0.265215  -0.188656  0  3.529854  0
N  N84  1  0.38645144  0.62758395  0.06158357  1  -0.807503  0  -0.272275  -0.175233  0  3.552298  0
N  N85  1  0.62758939  0.38659309  0.06150040  1  -0.807083  0  -0.271893  -0.174221  0  3.553303  0
N  N86  1  0.51102033  0.46163098  0.11150186  1  -0.851969  0  -0.284522  -0.190959  0  3.622374  0
N  N87  1  0.46159025  0.51110410  0.11159724  1  -0.726107  0  -0.284123  -0.19103  0  3.621834  0
N  N88  1  0.33939703  0.38962510  0.85810466  1  -0.83211  0  -0.276341  -0.231558  0  3.477123  0
N  N89  1  0.38965627  0.33940673  0.85800485  1  -0.709637  0  -0.276717  -0.232798  0  3.478693  0
N  N90  1  0.46069724  0.41102725  0.78111239  1  -0.837912  0  -0.261919  -0.187713  0  3.527942  0
N  N91  1  0.41071499  0.46081572  0.78111476  1  -0.72744  0  -0.261265  -0.186199  0  3.528605  0
N  N92  1  0.61604139  0.66623569  0.22161409  1  -0.741266  0  -0.275859  -0.185972  0  3.534593  0
N  N93  1  0.66604005  0.61613270  0.22162339  1  -0.858416  0  -0.277445  -0.187841  0  3.536356  0
N  N94  1  0.65135140  0.53853876  0.03995940  1  -0.805208  0  -0.280242  -0.179814  0  3.63233  0
N  N95  1  0.53848174  0.65138724  0.03998223  1  -0.799227  0  -0.280452  -0.180606  0  3.633112  0
N  N96  1  0.49263160  0.60913807  0.95126062  1  -0.776915  0  -0.276417  -0.184737  0  3.619175  0
N  N97  1  0.60922836  0.49264880  0.95122698  1  -0.771333  0  -0.276625  -0.18586  0  3.619226  0
Zn  Zn98  1  0.51174397  0.39209507  0.89448414  1  1.200925  0  0.735912  0.661289  0  2.271917  0
Zn  Zn99  1  0.39200138  0.51180007  0.89461019  1  1.201622  0  0.736557  0.660453  0  2.275907  0
Zn  Zn100  1  0.50197985  0.62060281  0.11751032  1  1.190362  0  0.750004  0.611347  0  2.475394  0
Zn  Zn101  1  0.62045291  0.50212005  0.11744079  1  1.18957  0  0.750176  0.610536  0  2.479497  0
