# generated using pymatgen
data_ZnH28C20(NO2)4
_symmetry_space_group_name_H-M   'P 1'
_cell_length_a   7.75385592
_cell_length_b   7.87965839
_cell_length_c   9.67379659
_cell_angle_alpha   69.30633716
_cell_angle_beta   83.86615321
_cell_angle_gamma   75.49276274
_symmetry_Int_Tables_number   1
_chemical_formula_structural   ZnH28C20(NO2)4
_chemical_formula_sum   'Zn1 H28 C20 N4 O8'
_cell_volume   535.17577168
_cell_formula_units_Z   1
loop_
 _symmetry_equiv_pos_site_id
 _symmetry_equiv_pos_as_xyz
  1  'x, y, z'
loop_
 _atom_site_type_symbol
 _atom_site_label
 _atom_site_symmetry_multiplicity
 _atom_site_fract_x
 _atom_site_fract_y
 _atom_site_fract_z
 _atom_site_occupancy
 _atom_site_hle17_bader_spin_density
 _atom_site_hle17_ddec_charge
 _atom_site_hle17_ddec_spin_density
 _atom_site_hle17_ddec_sum_bond_order
 _atom_site_hle17_magmom
 _atom_site_hse06_10hf_bader_spin_density
 _atom_site_hse06_10hf_ddec_charge
 _atom_site_hse06_10hf_ddec_spin_density
 _atom_site_hse06_10hf_ddec_sum_bond_order
 _atom_site_hse06_10hf_magmom
 _atom_site_hse06_bader_spin_density
 _atom_site_hse06_ddec_charge
 _atom_site_hse06_ddec_spin_density
 _atom_site_hse06_ddec_sum_bond_order
 _atom_site_hse06_magmom
 _atom_site_pbe_bader_spin_density
 _atom_site_pbe_cm5_charge
 _atom_site_pbe_ddec_charge
 _atom_site_pbe_ddec_spin_density
 _atom_site_pbe_ddec_sum_bond_order
 _atom_site_pbe_magmom
Zn  Zn0  1  0.50000235  0.49999859  0.49999205  1  0  0.901945  0  1.863321  0  0  0.732382  0  2.259182  0  0  0.773064  0  2.221371  0  0  0.695149  0.70428  0  2.284689  0
H  H1  1  0.37037489  0.95044517  0.98232969  1  0  0.404448  0  0.868766  0  0  0.374219  0  0.945812  0  0  0.387013  0  0.931783  0  0  0.311046  0.365147  0  0.955746  0
H  H2  1  0.62964668  0.04957373  0.01767652  1  0  0.404487  0  0.868755  0  0  0.374188  0  0.945926  0  0  0.386996  0  0.931883  0  0  0.311025  0.365108  0  0.955883  0
H  H3  1  0.53980367  0.21377588  0.42733449  1  0  0.25175  0  0.964181  0  0  0.240009  0  1.024434  0  0  0.247347  0  1.019083  0  0  0.28135  0.23469  0  1.02839  0
H  H4  1  0.46018561  0.78621549  0.57266448  1  0  0.251843  0  0.964103  0  0  0.24007  0  1.024389  0  0  0.247416  0  1.019026  0  0  0.281357  0.234748  0  1.028356  0
H  H5  1  0.62246370  0.35311112  0.76638643  1  0  0.263049  0  0.892674  0  0  0.259959  0  0.93617  0  0  0.264208  0  0.934598  0  0  0.302883  0.256938  0  0.937339  0
H  H6  1  0.37751473  0.64688847  0.23360777  1  0  0.263031  0  0.892642  0  0  0.259865  0  0.93618  0  0  0.264112  0  0.934615  0  0  0.302858  0.256851  0  0.93734  0
H  H7  1  0.57923254  0.95997591  0.66604799  1  0  0.064938  0  0.952742  0  0  0.08185  0  1.016731  0  0  0.081987  0  1.017473  0  0  0.101991  0.081695  0  1.01626  0
H  H8  1  0.42074893  0.04001548  0.33395072  1  0  0.064862  0  0.952742  0  0  0.081796  0  1.016748  0  0  0.08193  0  1.0175  0  0  0.10197  0.08164  0  1.016274  0
H  H9  1  0.46613432  0.12457335  0.74831931  1  0  0.066353  0  0.960272  0  0  0.081766  0  1.026554  0  0  0.081776  0  1.027523  0  0  0.106152  0.081602  0  1.026113  0
H  H10  1  0.53384527  0.87542066  0.25167663  1  0  0.066398  0  0.96013  0  0  0.081788  0  1.026459  0  0  0.081799  0  1.027426  0  0  0.106144  0.081619  0  1.026019  0
H  H11  1  0.80456531  0.05763140  0.76413565  1  0  0.053259  0  0.966418  0  0  0.070397  0  1.030675  0  0  0.070569  0  1.030732  0  0  0.096402  0.070224  0  1.030645  0
H  H12  1  0.19541359  0.94236060  0.23587036  1  0  0.053259  0  0.966359  0  0  0.070351  0  1.03071  0  0  0.070523  0  1.030766  0  0  0.096409  0.070177  0  1.030679  0
H  H13  1  0.81423332  0.15578771  0.56813758  1  0  0.070393  0  0.916343  0  0  0.090792  0  0.973587  0  0  0.091328  0  0.97365  0  0  0.109758  0.090309  0  0.973642  0
H  H14  1  0.18575511  0.84419551  0.43186628  1  0  0.070403  0  0.916288  0  0  0.090784  0  0.973591  0  0  0.091321  0  0.973656  0  0  0.109758  0.0903  0  0.973644  0
H  H15  1  0.91922628  0.40778176  0.55338051  1  0  0.059492  0  0.961313  0  0  0.07894  0  1.025251  0  0  0.078753  0  1.026398  0  0  0.10555  0.078984  0  1.02451  0
H  H16  1  0.08076386  0.59220527  0.44661776  1  0  0.059627  0  0.961361  0  0  0.078985  0  1.025364  0  0  0.078821  0  1.026475  0  0  0.105569  0.07903  0  1.024632  0
H  H17  1  0.93875567  0.34766441  0.74697040  1  0  0.054737  0  0.926663  0  0  0.071145  0  0.990247  0  0  0.071187  0  0.990882  0  0  0.094987  0.071112  0  0.98976  0
H  H18  1  0.06122999  0.65232545  0.25302737  1  0  0.054783  0  0.926823  0  0  0.071244  0  0.990311  0  0  0.071249  0  0.990989  0  0  0.095021  0.071233  0  0.989807  0
H  H19  1  0.92847323  0.66892198  0.64611855  1  0  0.075731  0  0.954628  0  0  0.094299  0  1.016557  0  0  0.094051  0  1.01828  0  0  0.093716  0.094427  0  1.015356  0
H  H20  1  0.07152341  0.33106479  0.35387709  1  0  0.075746  0  0.954664  0  0  0.094284  0  1.016684  0  0  0.094036  0  1.018407  0  0  0.093695  0.094407  0  1.015476  0
H  H21  1  0.71687582  0.65626279  0.72856909  1  0  0.081729  0  0.930156  0  0  0.100449  0  0.988358  0  0  0.100717  0  0.989854  0  0  0.09596  0.100024  0  0.987667  0
H  H22  1  0.28312082  0.34372398  0.27142655  1  0  0.081713  0  0.930283  0  0  0.100462  0  0.988467  0  0  0.100731  0  0.98996  0  0  0.095945  0.100033  0  0.987771  0
H  H23  1  0.26588950  0.08909513  0.52911664  1  0  0.05119  0  0.942259  0  0  0.068068  0  1.006913  0  0  0.068719  0  1.006693  0  0  0.093264  0.067518  0  1.007173  0
H  H24  1  0.73410038  0.91089371  0.47088623  1  0  0.051084  0  0.942232  0  0  0.068013  0  1.00686  0  0  0.068661  0  1.006643  0  0  0.093257  0.067461  0  1.00712  0
H  H25  1  0.20771062  0.27050865  0.60420223  1  0  0.066555  0  0.947272  0  0  0.081109  0  1.016117  0  0  0.081977  0  1.015609  0  0  0.102768  0.080294  0  1.016726  0
H  H26  1  0.79228011  0.72948816  0.39579374  1  0  0.066582  0  0.947239  0  0  0.081102  0  1.016132  0  0  0.081967  0  1.015628  0  0  0.102795  0.080291  0  1.01673  0
H  H27  1  0.00343134  0.83087444  0.86370551  1  0  0.10907  0  0.954584  0  0  0.116328  0  1.019615  0  0  0.120853  0  1.016006  0  0  0.107909  0.113024  0  1.022367  0
H  H28  1  0.99660052  0.16913936  0.13630864  1  0  0.108997  0  0.95456  0  0  0.116263  0  1.019596  0  0  0.120783  0  1.015988  0  0  0.107891  0.112959  0  1.022333  0
C  C29  1  0.55568252  0.10714755  0.65631346  1  0  0.006578  0  3.641693  0  0  -0.051984  0  3.903867  0  0  -0.04844  0  3.916743  0  0  -0.076711  -0.054255  0  3.89499  0
C  C30  1  0.44430445  0.89284246  0.34368621  1  0  0.006691  0  3.641058  0  0  -0.051909  0  3.903425  0  0  -0.04837  0  3.916307  0  0  -0.076589  -0.054171  0  3.894534  0
C  C31  1  0.72992209  0.15823980  0.66685464  1  0  0.006455  0  3.651691  0  0  -0.055359  0  3.920083  0  0  -0.051902  0  3.932038  0  0  -0.073258  -0.057584  0  3.91177  0
C  C32  1  0.27005969  0.84175036  0.33314653  1  0  0.006551  0  3.651218  0  0  -0.055349  0  3.919764  0  0  -0.051892  0  3.931721  0  0  -0.073306  -0.057571  0  3.911443  0
C  C33  1  0.84854445  0.42695690  0.65313967  1  0  0.04237  0  3.634476  0  0  -0.017989  0  3.900242  0  0  -0.013662  0  3.91223  0  0  -0.071606  -0.020845  0  3.892007  0
C  C34  1  0.15144412  0.57303179  0.34686131  1  0  0.041996  0  3.635065  0  0  -0.018321  0  3.900759  0  0  -0.013978  0  3.912722  0  0  -0.071639  -0.021208  0  3.892535  0
C  C35  1  0.80317228  0.63383904  0.63536226  1  0  -0.163808  0  3.67355  0  0  -0.204567  0  3.937964  0  0  -0.206646  0  3.952372  0  0  -0.165411  -0.20307  0  3.928147  0
C  C36  1  0.19682306  0.36614775  0.36463351  1  0  -0.163707  0  3.673627  0  0  -0.204568  0  3.93811  0  0  -0.206646  0  3.952512  0  0  -0.165411  -0.203043  0  3.928264  0
C  C37  1  0.27932155  0.23149447  0.51165532  1  0  0.034127  0  3.637744  0  0  -0.024879  0  3.901813  0  0  -0.02047  0  3.913191  0  0  -0.076561  -0.027857  0  3.8942  0
C  C38  1  0.72067004  0.76849825  0.48834298  1  0  0.034298  0  3.637733  0  0  -0.024801  0  3.901846  0  0  -0.020389  0  3.913221  0  0  -0.076588  -0.027768  0  3.894222  0
C  C39  1  0.13889698  0.54830250  0.89672310  1  0  -0.034168  0  3.680431  0  0  -0.023529  0  3.918505  0  0  -0.02606  0  3.936711  0  0  -0.001272  -0.02204  0  3.9065  0
C  C40  1  0.86111965  0.45171449  0.10327700  1  0  -0.034469  0  3.680532  0  0  -0.023779  0  3.918635  0  0  -0.026307  0  3.936834  0  0  -0.001379  -0.022293  0  3.906617  0
C  C41  1  0.13894271  0.35995319  0.97568999  1  0  -0.067373  0  3.721206  0  0  -0.056509  0  3.964859  0  0  -0.061316  0  3.984145  0  0  -0.005488  -0.0535  0  3.952378  0
C  C42  1  0.86108365  0.64006182  0.02432120  1  0  -0.066977  0  3.721051  0  0  -0.056192  0  3.964899  0  0  -0.060998  0  3.984184  0  0  -0.005391  -0.053157  0  3.952381  0
C  C43  1  0.00132620  0.68573557  0.92492525  1  0  -0.083084  0  3.692414  0  0  -0.118974  0  3.947632  0  0  -0.1188  0  3.965037  0  0  -0.075529  -0.119231  0  3.936145  0
C  C44  1  0.99869075  0.31428078  0.07508435  1  0  -0.082794  0  3.692464  0  0  -0.118714  0  3.947614  0  0  -0.118534  0  3.965017  0  0  -0.075429  -0.118962  0  3.93613  0
C  C45  1  0.26475897  0.60670729  0.76634075  1  0  0.631867  0  3.946106  0  0  0.581124  0  4.255065  0  0  0.614426  0  4.246215  0  0  0.19585  0.558612  0  4.260222  0
C  C46  1  0.73524956  0.39331111  0.23365864  1  0  0.63203  0  3.945842  0  0  0.581273  0  4.2548  0  0  0.614571  0  4.245949  0  0  0.19592  0.558748  0  4.259969  0
C  C47  1  0.29674710  0.20821301  0.97011363  1  0  0.673883  0  3.773064  0  0  0.616493  0  4.086395  0  0  0.650924  0  4.074888  0  0  0.246468  0.592925  0  4.093944  0
C  C48  1  0.70329788  0.79180574  0.02989238  1  0  0.673611  0  3.772311  0  0  0.616017  0  4.086011  0  0  0.650445  0  4.074517  0  0  0.246211  0.592446  0  4.093552  0
N  N49  1  0.46682080  0.23496370  0.51889755  1  0  -0.415701  0  3.263181  0  0  -0.335145  0  3.511149  0  0  -0.353572  0  3.520324  0  0  -0.498182  -0.32237  0  3.50482  0
N  N50  1  0.53316790  0.76503036  0.48109954  1  0  -0.416014  0  3.263558  0  0  -0.335316  0  3.511447  0  0  -0.353749  0  3.520615  0  0  -0.498241  -0.322547  0  3.505115  0
N  N51  1  0.69051974  0.34960272  0.67011524  1  0  -0.4044  0  3.246767  0  0  -0.324909  0  3.493188  0  0  -0.342025  0  3.50379  0  0  -0.489819  -0.312936  0  3.485584  0
N  N52  1  0.30946462  0.65038716  0.32988266  1  0  -0.404359  0  3.247042  0  0  -0.324599  0  3.493236  0  0  -0.341716  0  3.503839  0  0  -0.489761  -0.312636  0  3.485638  0
O  O53  1  0.29583277  0.50230000  0.68619539  1  0  -0.654499  0  1.993246  0  0  -0.597648  0  2.254149  0  0  -0.624056  0  2.245002  0  0  -0.329414  -0.578899  0  2.259423  0
O  O54  1  0.70416593  0.49771550  0.31380284  1  0  -0.654477  0  1.993542  0  0  -0.597638  0  2.254516  0  0  -0.624046  0  2.245368  0  0  -0.329351  -0.578885  0  2.259789  0
O  O55  1  0.31710390  0.75371911  0.74250095  1  0  -0.607515  0  1.903167  0  0  -0.569521  0  2.125612  0  0  -0.591067  0  2.116162  0  0  -0.334406  -0.554114  0  2.131327  0
O  O56  1  0.68291459  0.24629474  0.25749587  1  0  -0.607574  0  1.90268  0  0  -0.569585  0  2.125126  0  0  -0.591122  0  2.115669  0  0  -0.334489  -0.554177  0  2.130846  0
O  O57  1  0.45163175  0.22289635  0.97626385  1  0  -0.562367  0  1.974674  0  0  -0.516386  0  2.192682  0  0  -0.537276  0  2.182048  0  0  -0.277667  -0.502149  0  2.199791  0
O  O58  1  0.54837936  0.77712151  0.02372925  1  0  -0.562495  0  1.973745  0  0  -0.516399  0  2.19177  0  0  -0.537285  0  2.18114  0  0  -0.277659  -0.50217  0  2.198879  0
O  O59  1  0.25734547  0.05384644  0.96910102  1  0  -0.526191  0  2.072345  0  0  -0.475824  0  2.286318  0  0  -0.497162  0  2.270293  0  0  -0.318346  -0.460912  0  2.297027  0
O  O60  1  0.74267451  0.94617394  0.03090589  1  0  -0.525938  0  2.072504  0  0  -0.475419  0  2.286531  0  0  -0.496772  0  2.270497  0  0  -0.318126  -0.460506  0  2.297242  0
