# generated using pymatgen
data_AlH6C11SClO5
_symmetry_space_group_name_H-M   'P 1'
_cell_length_a   6.96116449
_cell_length_b   11.15981256
_cell_length_c   12.88158747
_cell_angle_alpha   80.46617071
_cell_angle_beta   71.96639107
_cell_angle_gamma   70.94088733
_symmetry_Int_Tables_number   1
_chemical_formula_structural   AlH6C11SClO5
_chemical_formula_sum   'Al2 H12 C22 S2 Cl2 O10'
_cell_volume   897.06618737
_cell_formula_units_Z   2
loop_
 _symmetry_equiv_pos_site_id
 _symmetry_equiv_pos_as_xyz
  1  'x, y, z'
loop_
 _atom_site_type_symbol
 _atom_site_label
 _atom_site_symmetry_multiplicity
 _atom_site_fract_x
 _atom_site_fract_y
 _atom_site_fract_z
 _atom_site_occupancy
 _atom_site_pbe_bader_charge
 _atom_site_pbe_bader_spin_density
 _atom_site_pbe_cm5_charge
 _atom_site_pbe_ddec_charge
 _atom_site_pbe_ddec_spin_density
 _atom_site_pbe_ddec_sum_bond_order
 _atom_site_pbe_magmom
Al  Al0  1  0.49990722  0.50058442  0.50369727  1  2.506941  0  0.405225  1.636204  0  2.544839  0
Al  Al1  1  0.00109497  0.49881517  0.50389748  1  2.507433  0  0.405455  1.639428  0  2.536734  0
H  H2  1  0.28805365  0.35039117  0.57805889  1  0.630095  0  0.330298  0.406902  0  0.896531  0
H  H3  1  0.71004245  0.65351299  0.44147436  1  0.591443  0  0.335159  0.411235  0  0.887153  0
H  H4  1  0.21041043  0.24050984  0.33818920  1  0.093145  0  0.105468  0.111428  0  1.032208  0
H  H5  1  0.54115029  0.12563210  0.21216246  1  0.072673  0  0.104607  0.102478  0  0.989188  0
H  H6  1  0.43122112  0.76744626  0.34892848  1  0.047656  0  0.106459  0.109074  0  1.034644  0
H  H7  1  0.65206119  0.88785480  0.21770656  1  0.049554  0  0.105018  0.102705  0  0.986398  0
H  H8  1  0.21414780  0.49882816  0.78139731  1  0.131928  0  0.102648  0.162065  0  1.006208  0
H  H9  1  0.06512227  0.57954811  0.90231227  1  0.026668  0  0.088715  0.126429  0  1.014518  0
H  H10  1  0.14863875  0.41113445  0.90913331  1  0.0347  0  0.08878  0.125465  0  1.011731  0
H  H11  1  0.85068026  0.58911513  0.09746650  1  0.034317  0  0.089241  0.125018  0  1.011176  0
H  H12  1  0.93489430  0.42084416  0.10452511  1  0.036803  0  0.089264  0.126431  0  1.014676  0
H  H13  1  0.78551838  0.50183610  0.22547829  1  0.110144  0  0.102619  0.159761  0  1.009423  0
C  C14  1  0.86537419  0.27666942  0.49344685  1  1.564952  0  0.276372  0.672349  0  4.072359  0
C  C15  1  0.64521425  0.49768464  0.69821155  1  1.58686  0  0.258943  0.657396  0  4.120975  0
C  C16  1  0.13420399  0.72362775  0.51081847  1  1.612146  0  0.275203  0.672643  0  4.071443  0
C  C17  1  0.35525950  0.50125937  0.30872313  1  1.566008  0  0.257453  0.6542  0  4.1202  0
C  C18  1  0.38858437  0.49676901  0.89356578  1  0.081347  0  -0.006738  0.15604  0  3.992415  0
C  C19  1  0.61139293  0.50278556  0.11335551  1  0.064142  0  -0.005915  0.157102  0  3.997566  0
C  C20  1  0.57859390  0.50063096  0.81781207  1  -0.192863  0  -0.026831  -0.203763  0  3.943893  0
C  C21  1  0.42171015  0.49848720  0.18922750  1  -0.206551  0  -0.029105  -0.211617  0  3.955217  0
C  C22  1  0.59804236  0.50202186  0.00579794  1  -0.195151  0  -0.026776  -0.087224  0  4.078929  0
C  C23  1  0.40222891  0.49704223  0.00113779  1  -0.16431  0  -0.027321  -0.086233  0  4.07707  0
C  C24  1  0.93541608  0.13431286  0.49576961  1  0.11584  0  -0.008448  -0.12678  0  3.922255  0
C  C25  1  0.12864089  0.07010319  0.42131988  1  -0.012918  0  0.001387  0.067865  0  3.957554  0
C  C26  1  0.81271055  0.06606096  0.57164116  1  0.076769  0  0.014015  0.066701  0  4.031028  0
C  C27  1  0.25767756  0.13710116  0.34216022  1  -0.027147  0  -0.088452  -0.12553  0  3.955751  0
C  C28  1  0.44334991  0.07251846  0.27143119  1  -0.094921  0  -0.088829  -0.078925  0  4.03132  0
C  C29  1  0.06424996  0.86612168  0.50497444  1  0.048525  0  -0.011174  -0.131123  0  3.922734  0
C  C30  1  0.87798972  0.93078530  0.57669439  1  0.109512  0  0.013827  0.066804  0  4.044658  0
C  C31  1  0.19329405  0.93374086  0.42545704  1  -0.010834  0  0.001506  0.071834  0  3.955474  0
C  C32  1  0.38295337  0.87058878  0.34906097  1  -0.016749  0  -0.092015  -0.13561  0  3.969595  0
C  C33  1  0.50601676  0.93840691  0.27465770  1  0.041153  0  -0.089727  -0.078553  0  4.035977  0
C  C34  1  0.19513705  0.49624874  0.86904092  1  -0.068441  0  -0.247745  -0.41959  0  4.002899  0
C  C35  1  0.80449947  0.50396478  0.13784253  1  -0.035903  0  -0.247372  -0.418016  0  4.006523  0
S  S36  1  0.76750599  0.50634986  0.87661580  1  0.269565  0  0.095559  0.140855  0  3.025596  0
S  S37  1  0.23293044  0.49239516  0.13041066  1  0.267914  0  0.095384  0.136155  0  3.021964  0
Cl  Cl38  1  0.72894210  0.84886180  0.67631131  1  -0.167257  0  0.00887  -0.045082  0  1.575999  0
Cl  Cl39  1  0.58558949  0.14238458  0.66628442  1  -0.178977  0  0.013999  -0.04583  0  1.573381  0
O  O40  1  0.68465894  0.33292775  0.47802628  1  -1.253399  0  -0.231325  -0.589665  0  2.352963  0
O  O41  1  0.83139933  0.50824675  0.65180871  1  -1.25781  0  -0.244061  -0.607807  0  2.366869  0
O  O42  1  0.00939263  0.67002169  0.49709235  1  -1.256339  0  -0.22752  -0.587267  0  2.354667  0
O  O43  1  0.47784253  0.52103263  0.35589309  1  -1.264014  0  -0.235476  -0.587339  0  2.351155  0
O  O44  1  0.31583285  0.66957008  0.52623235  1  -1.26164  0  -0.228336  -0.583737  0  2.333894  0
O  O45  1  0.17214086  0.48605109  0.35557933  1  -1.26246  0  -0.242281  -0.601737  0  2.357872  0
O  O46  1  0.99315213  0.32804150  0.50733823  1  -1.249178  0  -0.224222  -0.577457  0  2.331904  0
O  O47  1  0.51910234  0.48257921  0.65095061  1  -1.260298  0  -0.235398  -0.592033  0  2.365243  0
O  O48  1  0.25616882  0.43918398  0.55073394  1  -1.439382  0  -0.453127  -0.971445  0  2.106427  0
O  O49  1  0.74511438  0.56180546  0.45642316  1  -1.40169  0  -0.453277  -0.972202  0  2.090797  0
