# generated using pymatgen
data_LiH8C8(NO)3
_symmetry_space_group_name_H-M   'P 1'
_cell_length_a   7.25430923
_cell_length_b   9.49259176
_cell_length_c   12.88508331
_cell_angle_alpha   89.99997374
_cell_angle_beta   100.63221643
_cell_angle_gamma   90.00035788
_symmetry_Int_Tables_number   1
_chemical_formula_structural   LiH8C8(NO)3
_chemical_formula_sum   'Li4 H32 C32 N12 O12'
_cell_volume   872.06183743
_cell_formula_units_Z   4
loop_
 _symmetry_equiv_pos_site_id
 _symmetry_equiv_pos_as_xyz
  1  'x, y, z'
loop_
 _atom_site_type_symbol
 _atom_site_label
 _atom_site_symmetry_multiplicity
 _atom_site_fract_x
 _atom_site_fract_y
 _atom_site_fract_z
 _atom_site_occupancy
 _atom_site_hle17_bader_spin_density
 _atom_site_hle17_ddec_charge
 _atom_site_hle17_ddec_spin_density
 _atom_site_hle17_ddec_sum_bond_order
 _atom_site_hle17_magmom
 _atom_site_hse06_10hf_bader_spin_density
 _atom_site_hse06_10hf_ddec_charge
 _atom_site_hse06_10hf_ddec_spin_density
 _atom_site_hse06_10hf_ddec_sum_bond_order
 _atom_site_hse06_10hf_magmom
 _atom_site_hse06_bader_spin_density
 _atom_site_hse06_ddec_charge
 _atom_site_hse06_ddec_spin_density
 _atom_site_hse06_ddec_sum_bond_order
 _atom_site_hse06_magmom
 _atom_site_pbe_bader_spin_density
 _atom_site_pbe_cm5_charge
 _atom_site_pbe_ddec_charge
 _atom_site_pbe_ddec_spin_density
 _atom_site_pbe_ddec_sum_bond_order
 _atom_site_pbe_magmom
Li  Li0  1  0.14462844  0.36576012  0.60710017  1  0  0.832716  0  0.43047  0  0  0.779084  0  0.556318  0  0  0.789123  0  0.539318  0  0  0.516907  0.771803  0  0.568698  0
Li  Li1  1  0.35536966  0.86576114  0.39289988  1  0  0.832726  0  0.430464  0  0  0.779106  0  0.556288  0  0  0.789143  0  0.53929  0  0  0.516923  0.771827  0  0.568668  0
Li  Li2  1  0.85536900  0.63423971  0.39289936  1  0  0.832708  0  0.430484  0  0  0.779102  0  0.55629  0  0  0.789141  0  0.539291  0  0  0.516918  0.771824  0  0.568669  0
Li  Li3  1  0.64463058  0.13423975  0.60709995  1  0  0.832723  0  0.43047  0  0  0.779107  0  0.556286  0  0  0.789145  0  0.539288  0  0  0.516916  0.771827  0  0.568667  0
H  H4  1  0.25959775  0.13349505  0.66547880  1  0  0.417343  0  0.892099  0  0  0.389635  0  0.951319  0  0  0.399282  0  0.937349  0  0  0.2932  0.382931  0  0.960912  0
H  H5  1  0.24040406  0.63349554  0.33452327  1  0  0.417382  0  0.892042  0  0  0.389697  0  0.951232  0  0  0.399344  0  0.937261  0  0  0.293227  0.382994  0  0.960824  0
H  H6  1  0.74040389  0.86650479  0.33452195  1  0  0.417418  0  0.891993  0  0  0.389731  0  0.951195  0  0  0.399376  0  0.937226  0  0  0.293236  0.383026  0  0.960792  0
H  H7  1  0.75959617  0.36650535  0.66547811  1  0  0.417409  0  0.892002  0  0  0.389729  0  0.951193  0  0  0.399373  0  0.937225  0  0  0.293236  0.383022  0  0.960791  0
H  H8  1  0.04702963  0.13148981  0.67521740  1  0  0.420738  0  0.884479  0  0  0.393934  0  0.941578  0  0  0.403714  0  0.927136  0  0  0.297373  0.387324  0  0.95127  0
H  H9  1  0.45297217  0.63149029  0.32478391  1  0  0.420735  0  0.884491  0  0  0.39394  0  0.941579  0  0  0.40372  0  0.927136  0  0  0.297376  0.387332  0  0.951267  0
H  H10  1  0.95297201  0.86851003  0.32478336  1  0  0.420714  0  0.884519  0  0  0.393924  0  0.941596  0  0  0.403702  0  0.927157  0  0  0.297368  0.387316  0  0.951286  0
H  H11  1  0.54702806  0.36850849  0.67521748  1  0  0.420727  0  0.884503  0  0  0.393929  0  0.941595  0  0  0.403708  0  0.927153  0  0  0.297373  0.387319  0  0.951285  0
H  H12  1  0.24854910  0.61298583  0.50957159  1  0  0.293324  0  0.922884  0  0  0.267281  0  0.996143  0  0  0.277814  0  0.986734  0  0  0.32961  0.259588  0  1.003272  0
H  H13  1  0.25144974  0.11298646  0.49042940  1  0  0.293328  0  0.922863  0  0  0.267292  0  0.996109  0  0  0.277823  0  0.986702  0  0  0.329614  0.259599  0  1.003241  0
H  H14  1  0.75144833  0.38701506  0.49042794  1  0  0.29336  0  0.922861  0  0  0.267304  0  0.996121  0  0  0.277835  0  0.986717  0  0  0.32962  0.25961  0  1.00325  0
H  H15  1  0.74855050  0.88701337  0.50957043  1  0  0.29331  0  0.922908  0  0  0.267272  0  0.996166  0  0  0.277805  0  0.986754  0  0  0.329601  0.259579  0  1.0033  0
H  H16  1  0.47578867  0.44439482  0.81705955  1  0  0.336572  0  0.917724  0  0  0.322081  0  0.972884  0  0  0.329808  0  0.966422  0  0  0.309119  0.316608  0  0.977425  0
H  H17  1  0.02421147  0.94439119  0.18294146  1  0  0.336665  0  0.917601  0  0  0.322132  0  0.97282  0  0  0.329858  0  0.966363  0  0  0.309172  0.31666  0  0.977363  0
H  H18  1  0.52421017  0.55560818  0.18293935  1  0  0.336589  0  0.917669  0  0  0.322078  0  0.972866  0  0  0.329804  0  0.966405  0  0  0.309136  0.316605  0  0.977409  0
H  H19  1  0.97579017  0.05560760  0.81706007  1  0  0.336644  0  0.917617  0  0  0.322107  0  0.972843  0  0  0.329834  0  0.966383  0  0  0.309159  0.316634  0  0.977384  0
H  H20  1  0.59630729  0.47372110  0.94637106  1  0  0.306923  0  0.930191  0  0  0.294932  0  0.989702  0  0  0.300583  0  0.986098  0  0  0.301434  0.290886  0  0.992336  0
H  H21  1  0.90368802  0.97371625  0.05363001  1  0  0.306867  0  0.930264  0  0  0.294963  0  0.989658  0  0  0.300618  0  0.98605  0  0  0.301454  0.290918  0  0.992294  0
H  H22  1  0.40368874  0.52628295  0.05362832  1  0  0.306849  0  0.930242  0  0  0.294946  0  0.989634  0  0  0.3006  0  0.986025  0  0  0.301444  0.290901  0  0.992269  0
H  H23  1  0.09630800  0.02628043  0.94637093  1  0  0.306907  0  0.930235  0  0  0.29491  0  0.989757  0  0  0.300562  0  0.986153  0  0  0.301403  0.290865  0  0.992393  0
H  H24  1  0.65056091  0.71022069  0.01557040  1  0  0.104486  0  0.945745  0  0  0.120045  0  0.99729  0  0  0.123712  0  0.995955  0  0  0.103619  0.117585  0  0.99819  0
H  H25  1  0.84943507  0.21021727  0.98443083  1  0  0.104502  0  0.945793  0  0  0.120025  0  0.997372  0  0  0.123689  0  0.996043  0  0  0.103622  0.11756  0  0.998273  0
H  H26  1  0.34943793  0.28977915  0.98442929  1  0  0.104522  0  0.945723  0  0  0.120072  0  0.997272  0  0  0.12374  0  0.995935  0  0  0.103617  0.117602  0  0.99818  0
H  H27  1  0.15056096  0.78978046  0.01557010  1  0  0.104479  0  0.945752  0  0  0.120041  0  0.997288  0  0  0.123707  0  0.995956  0  0  0.103622  0.117582  0  0.998188  0
H  H28  1  0.64212858  0.96559424  0.97956834  1  0  0.073087  0  0.980989  0  0  0.08673  0  1.040756  0  0  0.089208  0  1.038788  0  0  0.098233  0.084961  0  1.042203  0
H  H29  1  0.85787369  0.46559043  0.02043192  1  0  0.073082  0  0.981021  0  0  0.086712  0  1.040794  0  0  0.089224  0  1.038782  0  0  0.098227  0.084944  0  1.042237  0
H  H30  1  0.35787729  0.03440770  0.02042976  1  0  0.073064  0  0.981  0  0  0.086699  0  1.040778  0  0  0.089194  0  1.03879  0  0  0.098214  0.084931  0  1.042226  0
H  H31  1  0.14212373  0.53440730  0.97956917  1  0  0.073072  0  0.981023  0  0  0.086719  0  1.040786  0  0  0.0892  0  1.038814  0  0  0.098218  0.084949  0  1.042234  0
H  H32  1  0.52600342  0.05846663  0.79874906  1  0  0.105642  0  0.95373  0  0  0.115522  0  1.015655  0  0  0.120019  0  1.012693  0  0  0.112788  0.112026  0  1.018376  0
H  H33  1  0.97400116  0.55846519  0.20125003  1  0  0.105649  0  0.953741  0  0  0.115533  0  1.01566  0  0  0.120032  0  1.012695  0  0  0.112788  0.11204  0  1.018381  0
H  H34  1  0.47400527  0.94153426  0.20124778  1  0  0.105673  0  0.953714  0  0  0.115548  0  1.015633  0  0  0.120044  0  1.012675  0  0  0.112809  0.112056  0  1.018355  0
H  H35  1  0.02599486  0.44153360  0.79875091  1  0  0.105667  0  0.953713  0  0  0.115551  0  1.015628  0  0  0.120049  0  1.012666  0  0  0.1128  0.112057  0  1.018346  0
C  C36  1  0.37521814  0.61307563  0.66608227  1  0  0.510051  0  3.850704  0  0  0.456001  0  4.140511  0  0  0.483472  0  4.143323  0  0  0.231502  0.437773  0  4.138012  0
C  C37  1  0.12478351  0.11307364  0.33391902  1  0  0.51002  0  3.850834  0  0  0.455979  0  4.14066  0  0  0.483449  0  4.143475  0  0  0.231468  0.437748  0  4.138168  0
C  C38  1  0.62478211  0.38692631  0.33391756  1  0  0.510048  0  3.850683  0  0  0.455966  0  4.140532  0  0  0.483435  0  4.143344  0  0  0.231486  0.437738  0  4.138033  0
C  C39  1  0.87521672  0.88692409  0.66608159  1  0  0.510052  0  3.850714  0  0  0.456012  0  4.14054  0  0  0.483484  0  4.143352  0  0  0.231481  0.437781  0  4.138048  0
C  C40  1  0.45354707  0.70431537  0.75277928  1  0  -0.183934  0  3.70419  0  0  -0.16965  0  3.938843  0  0  -0.181698  0  3.962612  0  0  -0.015986  -0.16218  0  3.923227  0
C  C41  1  0.04645531  0.20431305  0.24722361  1  0  -0.183968  0  3.704183  0  0  -0.169746  0  3.938914  0  0  -0.181799  0  3.962686  0  0  -0.016012  -0.162262  0  3.923271  0
C  C42  1  0.54645456  0.29568658  0.24722225  1  0  -0.184001  0  3.704055  0  0  -0.169709  0  3.938798  0  0  -0.181755  0  3.962565  0  0  -0.01603  -0.162235  0  3.923172  0
C  C43  1  0.95354353  0.79568784  0.75277685  1  0  -0.184001  0  3.704148  0  0  -0.169758  0  3.938881  0  0  -0.181809  0  3.962648  0  0  -0.01604  -0.162277  0  3.923244  0
C  C44  1  0.52468822  0.65102343  0.85630924  1  0  0.332411  0  3.818913  0  0  0.321451  0  4.065727  0  0  0.334644  0  4.085574  0  0  0.116604  0.312627  0  4.052139  0
C  C45  1  0.97531569  0.15102011  0.14369207  1  0  0.332484  0  3.818827  0  0  0.321526  0  4.065658  0  0  0.334723  0  4.085507  0  0  0.116602  0.312698  0  4.052074  0
C  C46  1  0.47531343  0.34897957  0.14368918  1  0  0.332503  0  3.81876  0  0  0.321458  0  4.065686  0  0  0.334653  0  4.085531  0  0  0.116565  0.312633  0  4.052097  0
C  C47  1  0.02468595  0.84897762  0.85630868  1  0  0.332438  0  3.818905  0  0  0.321504  0  4.065686  0  0  0.3347  0  4.085534  0  0  0.116599  0.312677  0  4.052103  0
C  C48  1  0.59515005  0.74874504  0.93615442  1  0  -0.206043  0  3.723659  0  0  -0.224381  0  3.976783  0  0  -0.232525  0  3.996364  0  0  -0.107706  -0.21885  0  3.963518  0
C  C49  1  0.90484483  0.24874248  0.06384746  1  0  -0.206029  0  3.723666  0  0  -0.22432  0  3.976774  0  0  -0.23247  0  3.996369  0  0  -0.107654  -0.218785  0  3.963506  0
C  C50  1  0.40484457  0.25125269  0.06384637  1  0  -0.20618  0  3.723603  0  0  -0.22447  0  3.976725  0  0  -0.232617  0  3.996313  0  0  -0.107712  -0.218929  0  3.963455  0
C  C51  1  0.09514979  0.75125630  0.93615333  1  0  -0.205998  0  3.723725  0  0  -0.224332  0  3.97683  0  0  -0.232481  0  3.996416  0  0  -0.107659  -0.218803  0  3.963568  0
C  C52  1  0.59178708  0.89257720  0.91528022  1  0  -0.031009  0  3.824088  0  0  -0.048647  0  4.085138  0  0  -0.044206  0  4.10244  0  0  -0.089135  -0.05136  0  4.07314  0
C  C53  1  0.90821460  0.39257359  0.08471922  1  0  -0.031037  0  3.824154  0  0  -0.048656  0  4.085179  0  0  -0.044234  0  4.102468  0  0  -0.089178  -0.051368  0  4.073178  0
C  C54  1  0.40821737  0.10742264  0.08471928  1  0  -0.030894  0  3.824055  0  0  -0.048518  0  4.085058  0  0  -0.044088  0  4.102356  0  0  -0.089096  -0.051231  0  4.073058  0
C  C55  1  0.09178423  0.60742414  0.91528201  1  0  -0.031048  0  3.8242  0  0  -0.048691  0  4.085247  0  0  -0.044251  0  4.102547  0  0  -0.089167  -0.051404  0  4.073249  0
C  C56  1  0.52382133  0.94599873  0.81490798  1  0  -0.119292  0  3.75221  0  0  -0.15169  0  4.021173  0  0  -0.156307  0  4.039168  0  0  -0.101181  -0.148826  0  4.009258  0
C  C57  1  0.97618079  0.44599749  0.18509149  1  0  -0.119363  0  3.75229  0  0  -0.151772  0  4.021227  0  0  -0.15639  0  4.039228  0  0  -0.101213  -0.14891  0  4.009314  0
C  C58  1  0.47618174  0.05400111  0.18508982  1  0  -0.119379  0  3.75221  0  0  -0.151758  0  4.021181  0  0  -0.156376  0  4.039185  0  0  -0.10122  -0.148898  0  4.009273  0
C  C59  1  0.02381805  0.55400129  0.81490897  1  0  -0.119382  0  3.752193  0  0  -0.151773  0  4.021179  0  0  -0.156391  0  4.039173  0  0  -0.10121  -0.148908  0  4.009261  0
C  C60  1  0.45591948  0.85173982  0.73327753  1  0  -0.025155  0  3.773877  0  0  -0.016036  0  4.014503  0  0  -0.014114  0  4.034589  0  0  -0.005419  -0.017092  0  4.000842  0
C  C61  1  0.04408411  0.35173852  0.26672389  1  0  -0.025118  0  3.773953  0  0  -0.015944  0  4.014521  0  0  -0.014022  0  4.034602  0  0  -0.005366  -0.017  0  4.000858  0
C  C62  1  0.54408638  0.14826002  0.26672212  1  0  -0.025145  0  3.773842  0  0  -0.016065  0  4.014499  0  0  -0.014146  0  4.034586  0  0  -0.005389  -0.017119  0  4.00084  0
C  C63  1  0.95591611  0.64826342  0.73327982  1  0  -0.025025  0  3.77366  0  0  -0.015923  0  4.014342  0  0  -0.014  0  4.034426  0  0  -0.005361  -0.016978  0  4.000677  0
C  C64  1  0.39262072  0.90273947  0.62524402  1  0  0.460013  0  3.90623  0  0  0.420737  0  4.201921  0  0  0.441439  0  4.206997  0  0  0.216321  0.406811  0  4.197901  0
C  C65  1  0.10737768  0.40273842  0.37475682  1  0  0.459946  0  3.906419  0  0  0.420657  0  4.202111  0  0  0.441362  0  4.207184  0  0  0.216289  0.406729  0  4.198081  0
C  C66  1  0.60737954  0.09726037  0.37475426  1  0  0.460012  0  3.906421  0  0  0.420778  0  4.202071  0  0  0.441482  0  4.207144  0  0  0.21631  0.406849  0  4.198051  0
C  C67  1  0.89261834  0.59726142  0.62524489  1  0  0.460026  0  3.906255  0  0  0.420744  0  4.201972  0  0  0.441446  0  4.207049  0  0  0.216295  0.406815  0  4.197942  0
N  N68  1  0.31627531  0.67518501  0.57167003  1  0  -0.239174  0  3.454303  0  0  -0.18027  0  3.706975  0  0  -0.197941  0  3.71991  0  0  -0.272926  -0.168643  0  3.698608  0
N  N69  1  0.18372404  0.17518640  0.42833100  1  0  -0.239141  0  3.454312  0  0  -0.180242  0  3.706998  0  0  -0.197915  0  3.719938  0  0  -0.272917  -0.168615  0  3.698632  0
N  N70  1  0.68372213  0.32481483  0.42832950  1  0  -0.239269  0  3.454308  0  0  -0.180297  0  3.706941  0  0  -0.197966  0  3.71988  0  0  -0.272934  -0.168667  0  3.69857  0
N  N71  1  0.81627480  0.82481344  0.57166868  1  0  -0.239139  0  3.454322  0  0  -0.180274  0  3.707049  0  0  -0.197947  0  3.719988  0  0  -0.272907  -0.168647  0  3.698686  0
N  N72  1  0.32665574  0.81470752  0.54725700  1  0  -0.390514  0  3.019799  0  0  -0.379815  0  3.317355  0  0  -0.388861  0  3.32598  0  0  -0.307064  -0.373862  0  3.311737  0
N  N73  1  0.17334194  0.31470780  0.45274380  1  0  -0.390538  0  3.019902  0  0  -0.379825  0  3.317455  0  0  -0.388869  0  3.326078  0  0  -0.307055  -0.373869  0  3.311831  0
N  N74  1  0.67334170  0.18529231  0.45274176  1  0  -0.390461  0  3.019861  0  0  -0.379796  0  3.317389  0  0  -0.38884  0  3.326012  0  0  -0.307039  -0.373841  0  3.311767  0
N  N75  1  0.82665690  0.68529098  0.54725588  1  0  -0.390552  0  3.019894  0  0  -0.379832  0  3.317462  0  0  -0.388874  0  3.326086  0  0  -0.307065  -0.373876  0  3.311841  0
N  N76  1  0.51901100  0.51100264  0.87854176  1  0  -0.665353  0  3.159311  0  0  -0.629815  0  3.386321  0  0  -0.651286  0  3.387361  0  0  -0.589648  -0.614779  0  3.385188  0
N  N77  1  0.98099177  0.01100041  0.12146026  1  0  -0.665432  0  3.159308  0  0  -0.629949  0  3.38633  0  0  -0.651402  0  3.387327  0  0  -0.589703  -0.614915  0  3.385205  0
N  N78  1  0.48099065  0.48899826  0.12145744  1  0  -0.665303  0  3.159389  0  0  -0.629789  0  3.386363  0  0  -0.651262  0  3.387409  0  0  -0.589613  -0.614755  0  3.385235  0
N  N79  1  0.01900987  0.98899732  0.87854050  1  0  -0.665413  0  3.159322  0  0  -0.629844  0  3.386387  0  0  -0.651307  0  3.387405  0  0  -0.589632  -0.614809  0  3.385258  0
O  O80  1  0.35566773  0.47897311  0.67341610  1  0  -0.702188  0  2.031561  0  0  -0.643326  0  2.266836  0  0  -0.664107  0  2.255445  0  0  -0.383033  -0.629021  0  2.274306  0
O  O81  1  0.14433268  0.97897314  0.32658571  1  0  -0.70212  0  2.031581  0  0  -0.643263  0  2.266855  0  0  -0.664039  0  2.255461  0  0  -0.383035  -0.628968  0  2.274343  0
O  O82  1  0.64432969  0.52102883  0.32658499  1  0  -0.70215  0  2.031528  0  0  -0.643304  0  2.266833  0  0  -0.66408  0  2.255438  0  0  -0.38306  -0.629006  0  2.274316  0
O  O83  1  0.85566756  0.02102564  0.67341412  1  0  -0.702181  0  2.031527  0  0  -0.64329  0  2.266785  0  0  -0.664071  0  2.255391  0  0  -0.383033  -0.628988  0  2.27426  0
O  O84  1  0.40473511  0.03661356  0.60359240  1  0  -0.730926  0  2.039178  0  0  -0.671094  0  2.275229  0  0  -0.693186  0  2.264527  0  0  -0.385216  -0.65519  0  2.281621  0
O  O85  1  0.09526311  0.53661225  0.39640778  1  0  -0.730823  0  2.039164  0  0  -0.671007  0  2.275211  0  0  -0.693106  0  2.264513  0  0  -0.385197  -0.655119  0  2.281641  0
O  O86  1  0.59526515  0.96338628  0.39640511  1  0  -0.730932  0  2.039301  0  0  -0.67108  0  2.275285  0  0  -0.693175  0  2.264584  0  0  -0.385202  -0.655172  0  2.281672  0
O  O87  1  0.90473572  0.46338759  0.60359268  1  0  -0.730904  0  2.039208  0  0  -0.671055  0  2.275241  0  0  -0.69315  0  2.264542  0  0  -0.385176  -0.655168  0  2.281679  0
O  O88  1  0.15855380  0.19368384  0.68511974  1  0  -0.899736  0  1.736452  0  0  -0.852744  0  1.891799  0  0  -0.868631  0  1.861427  0  0  -0.669405  -0.841153  0  1.912553  0
O  O89  1  0.34144709  0.69368379  0.31488300  1  0  -0.899774  0  1.73644  0  0  -0.852803  0  1.891736  0  0  -0.868689  0  1.861362  0  0  -0.669425  -0.84121  0  1.91249  0
O  O90  1  0.84144922  0.80631600  0.31488349  1  0  -0.899793  0  1.736417  0  0  -0.852838  0  1.8917  0  0  -0.868723  0  1.861334  0  0  -0.669439  -0.841244  0  1.912455  0
O  O91  1  0.65855175  0.30631605  0.68511668  1  0  -0.899787  0  1.736431  0  0  -0.852832  0  1.891714  0  0  -0.868715  0  1.861345  0  0  -0.669439  -0.84124  0  1.912473  0
