# generated using pymatgen
data_Hg3H14C20(N2Cl3)2
_symmetry_space_group_name_H-M   'P 1'
_cell_length_a   7.59365567
_cell_length_b   8.29386535
_cell_length_c   10.51465376
_cell_angle_alpha   97.19947520
_cell_angle_beta   97.16573210
_cell_angle_gamma   99.99991250
_symmetry_Int_Tables_number   1
_chemical_formula_structural   Hg3H14C20(N2Cl3)2
_chemical_formula_sum   'Hg3 H14 C20 N4 Cl6'
_cell_volume   639.70379364
_cell_formula_units_Z   1
loop_
 _symmetry_equiv_pos_site_id
 _symmetry_equiv_pos_as_xyz
  1  'x, y, z'
loop_
 _atom_site_type_symbol
 _atom_site_label
 _atom_site_symmetry_multiplicity
 _atom_site_fract_x
 _atom_site_fract_y
 _atom_site_fract_z
 _atom_site_occupancy
 _atom_site_pbe_bader_spin_density
 _atom_site_pbe_cm5_charge
 _atom_site_pbe_ddec_charge
 _atom_site_pbe_ddec_spin_density
 _atom_site_pbe_ddec_sum_bond_order
 _atom_site_pbe_magmom
Hg  Hg0  1  0.49999902  0.00000110  0.00000032  1  0  0.447905  0.597425  0  2.686131  0
Hg  Hg1  1  0.86460514  0.77561157  0.87519993  1  0  0.503817  0.530433  0  2.675399  0
Hg  Hg2  1  0.13539295  0.22439105  0.12480045  1  0  0.503829  0.530433  0  2.675336  0
H  H3  1  0.72328849  0.81853297  0.62291525  1  0  0.087722  0.103424  0  1.052518  0
H  H4  1  0.27671282  0.18146595  0.37708219  1  0  0.087724  0.103433  0  1.052467  0
H  H5  1  0.61290234  0.85641180  0.39739193  1  0  0.09466  0.104234  0  1.014697  0
H  H6  1  0.38709340  0.14358587  0.60260678  1  0  0.094664  0.104241  0  1.014667  0
H  H7  1  0.58894510  0.63019773  0.21411666  1  0  0.086163  0.102158  0  1.04616  0
H  H8  1  0.41105144  0.36979746  0.78588283  1  0  0.086176  0.102187  0  1.046151  0
H  H9  1  0.67290069  0.36285125  0.25263958  1  0  0.092795  0.104501  0  1.031431  0
H  H10  1  0.32709903  0.63714643  0.74736045  1  0  0.092813  0.104524  0  1.03141  0
H  H11  1  0.79395276  0.18767489  0.40844597  1  0  0.102313  0.114262  0  1.008517  0
H  H12  1  0.20604854  0.81232403  0.59155528  1  0  0.102302  0.114255  0  1.008477  0
H  H13  1  0.90945948  0.16217162  0.63893355  1  0  0.103467  0.124199  0  1.004306  0
H  H14  1  0.09054075  0.83782853  0.36106772  1  0  0.103465  0.124198  0  1.004299  0
H  H15  1  0.97882800  0.27388973  0.86363561  1  0  0.107865  0.090404  0  1.035478  0
H  H16  1  0.02117300  0.72611413  0.13636610  1  0  0.107906  0.090473  0  1.035537  0
C  C17  1  0.76693087  0.56967887  0.56587123  1  0  0.115854  0.203081  0  3.991708  0
C  C18  1  0.23306885  0.43031881  0.43412595  1  0  0.115857  0.202934  0  3.991686  0
C  C19  1  0.71503267  0.72057766  0.54145195  1  0  -0.092629  -0.163684  0  3.949635  0
C  C20  1  0.28497181  0.27942374  0.45854603  1  0  -0.092604  -0.163603  0  3.949468  0
C  C21  1  0.65364117  0.74104211  0.41673956  1  0  -0.085516  -0.054012  0  3.973276  0
C  C22  1  0.34635589  0.25895556  0.58325928  1  0  -0.08557  -0.054074  0  3.973137  0
C  C23  1  0.63902553  0.61186160  0.31188601  1  0  -0.086439  -0.059002  0  3.953611  0
C  C24  1  0.36097311  0.38813731  0.68811500  1  0  -0.086394  -0.058995  0  3.953744  0
C  C25  1  0.68669334  0.46321916  0.33294179  1  0  -0.091019  -0.12411  0  3.955141  0
C  C26  1  0.31331036  0.53677852  0.66705765  1  0  -0.091065  -0.124156  0  3.955318  0
C  C27  1  0.75192587  0.43809650  0.45962718  1  0  0.001629  0.047046  0  3.974218  0
C  C28  1  0.24807676  0.56190242  0.54037324  1  0  0.001655  0.047155  0  3.974158  0
C  C29  1  0.80370400  0.28891068  0.48766780  1  0  -0.060874  -0.060899  0  3.91199  0
C  C30  1  0.19629837  0.71108700  0.51233153  1  0  -0.060921  -0.060973  0  3.912142  0
C  C31  1  0.86681948  0.27430822  0.61349630  1  0  -0.078918  -0.149054  0  3.930299  0
C  C32  1  0.13318233  0.72569317  0.38650619  1  0  -0.078917  -0.149039  0  3.930407  0
C  C33  1  0.87970364  0.41037665  0.71282710  1  0  0.121938  0.205363  0  4.019952  0
C  C34  1  0.12029737  0.58962722  0.28717271  1  0  0.121919  0.205336  0  4.019923  0
C  C35  1  0.94798728  0.39423828  0.84591422  1  0  0.090085  0.051278  0  3.841019  0
C  C36  1  0.05201347  0.60576435  0.15408544  1  0  0.09005  0.051112  0  3.841091  0
N  N37  1  0.83073501  0.55191806  0.68876409  1  0  -0.297199  -0.276235  0  3.425563  0
N  N38  1  0.16926655  0.44808210  0.31123540  1  0  -0.297146  -0.276106  0  3.425518  0
N  N39  1  0.97099265  0.51668994  0.93957850  1  0  -0.196802  -0.097962  0  3.443451  0
N  N40  1  0.02900703  0.48331393  0.06042023  1  0  -0.196846  -0.097802  0  3.44338  0
Cl  Cl41  1  0.10943752  0.97146941  0.82670958  1  0  -0.260007  -0.388204  0  1.392306  0
Cl  Cl42  1  0.89056297  0.02853198  0.17329089  1  0  -0.260012  -0.388219  0  1.392286  0
Cl  Cl43  1  0.59425210  0.67718099  0.96364126  1  0  -0.233449  -0.332726  0  1.50949  0
Cl  Cl44  1  0.40574732  0.32282164  0.03635829  1  0  -0.233439  -0.332726  0  1.509468  0
Cl  Cl45  1  0.61370068  0.05126680  0.80472245  1  0  -0.249397  -0.373235  0  1.351846  0
Cl  Cl46  1  0.38630113  0.94873459  0.19527909  1  0  -0.249413  -0.373272  0  1.351876  0
