# generated using pymatgen
data_Zn4H18C28O19
_symmetry_space_group_name_H-M   'P 1'
_cell_length_a   15.96132565
_cell_length_b   15.95876616
_cell_length_c   21.35265727
_cell_angle_alpha   111.94592876
_cell_angle_beta   111.93118869
_cell_angle_gamma   90.00602548
_symmetry_Int_Tables_number   1
_chemical_formula_structural   Zn4H18C28O19
_chemical_formula_sum   'Zn8 H36 C56 O38'
_cell_volume   4617.71539636
_cell_formula_units_Z   2
loop_
 _symmetry_equiv_pos_site_id
 _symmetry_equiv_pos_as_xyz
  1  'x, y, z'
loop_
 _atom_site_type_symbol
 _atom_site_label
 _atom_site_symmetry_multiplicity
 _atom_site_fract_x
 _atom_site_fract_y
 _atom_site_fract_z
 _atom_site_occupancy
 _atom_site_pbe_bader_charge
 _atom_site_pbe_bader_spin_density
 _atom_site_pbe_cm5_charge
 _atom_site_pbe_ddec_charge
 _atom_site_pbe_ddec_spin_density
 _atom_site_pbe_ddec_sum_bond_order
 _atom_site_pbe_magmom
Zn  Zn0  1  0.28216949  0.68269388  0.56439330  1  1.313233  0  0.678208  0.966182  0  2.366503  0
Zn  Zn1  1  0.68257179  0.28214942  0.56421718  1  1.310244  0  0.67824  0.966029  0  2.367325  0
Zn  Zn2  1  0.28205363  0.88166674  0.56421636  1  1.320354  0  0.678111  0.965781  0  2.366815  0
Zn  Zn3  1  0.71795076  0.11833669  0.43578634  1  1.320373  0  0.678121  0.965785  0  2.366746  0
Zn  Zn4  1  0.31742655  0.71785152  0.43578495  1  1.310246  0  0.678235  0.966064  0  2.367391  0
Zn  Zn5  1  0.71783564  0.31730550  0.43561014  1  1.313148  0  0.678187  0.966093  0  2.366605  0
Zn  Zn6  1  0.11830931  0.71779561  0.43560298  1  1.318733  0  0.678421  0.966431  0  2.365611  0
Zn  Zn7  1  0.88169517  0.28220669  0.56440119  1  1.318712  0  0.678444  0.966474  0  2.365518  0
H  H8  1  0.33991860  0.17965427  0.01933212  1  0.071119  0  0.097941  0.095338  0  1.010269  0
H  H9  1  0.90625268  0.71491617  0.03719693  1  0.074286  0  0.10056  0.100599  0  1.000953  0
H  H10  1  0.80886280  0.64075466  0.02017087  1  0.054703  0  0.099311  0.099663  0  1.003436  0
H  H11  1  0.79905984  0.70047815  0.96188804  1  0.065254  0  0.106891  0.112233  0  0.981466  0
H  H12  1  0.30367565  0.08787242  0.03716746  1  0.072646  0  0.10084  0.101516  0  0.998261  0
H  H13  1  0.22806209  0.11236598  0.96157415  1  0.04831  0  0.107407  0.112533  0  0.975847  0
H  H14  1  0.69632370  0.91213011  0.96283295  1  0.072692  0  0.100868  0.101596  0  0.998204  0
H  H15  1  0.66007764  0.82034533  0.98066381  1  0.07115  0  0.097957  0.095357  0  1.01025  0
H  H16  1  0.77193390  0.88763147  0.03842494  1  0.048398  0  0.107417  0.112593  0  0.975851  0
H  H17  1  0.19113389  0.35924145  0.97982483  1  0.054835  0  0.099367  0.099737  0  1.003428  0
H  H18  1  0.09374523  0.28507927  0.96279998  1  0.074199  0  0.100549  0.100565  0  1.000843  0
H  H19  1  0.20093910  0.29951909  0.03810852  1  0.065459  0  0.106906  0.112231  0  0.981482  0
H  H20  1  0.31630473  0.82885198  0.96324210  1  0.073466  0  0.102017  0.103065  0  0.998894  0
H  H21  1  0.25769928  0.92523410  0.97966496  1  0.058115  0  0.097792  0.096523  0  1.003243  0
H  H22  1  0.28024509  0.86401168  0.03826256  1  0.056909  0  0.106193  0.109561  0  0.98314  0
H  H23  1  0.74229505  0.07476785  0.02033522  1  0.058204  0  0.097788  0.096489  0  1.003217  0
H  H24  1  0.68369095  0.17115224  0.03675259  1  0.073505  0  0.102005  0.10302  0  0.998891  0
H  H25  1  0.71975169  0.13598297  0.96173254  1  0.056625  0  0.106169  0.109529  0  0.98318  0
H  H26  1  0.90239671  0.32372903  0.03589964  1  0.057618  0  0.101148  0.101554  0  1.000197  0
H  H27  1  0.99609435  0.27098257  0.02084608  1  0.04237  0  0.098358  0.097287  0  1.003128  0
H  H28  1  0.88072808  0.21389056  0.96123286  1  0.047985  0  0.106955  0.110832  0  0.98059  0
H  H29  1  0.00390301  0.72901422  0.97915028  1  0.042419  0  0.098351  0.097318  0  1.003164  0
H  H30  1  0.09760007  0.67626562  0.96409546  1  0.057619  0  0.101162  0.101584  0  1.000152  0
H  H31  1  0.11927111  0.78610557  0.03876122  1  0.048202  0  0.106959  0.11082  0  0.980548  0
H  H32  1  0.43268577  0.20032291  0.96128646  1  0.064286  0  0.101628  0.102593  0  0.99805  0
H  H33  1  0.55100491  0.22184059  0.97875793  1  0.039836  0  0.098416  0.096753  0  1.005922  0
H  H34  1  0.50460015  0.30310173  0.03619003  1  0.094344  0  0.109165  0.115012  0  0.970689  0
H  H35  1  0.44899089  0.77815956  0.02124098  1  0.039825  0  0.098408  0.096704  0  1.006066  0
H  H36  1  0.56731012  0.79967579  0.03871185  1  0.064353  0  0.101612  0.10345  0  0.997118  0
H  H37  1  0.49539499  0.69689764  0.96380753  1  0.094341  0  0.109184  0.11501  0  0.970799  0
H  H38  1  0.24398843  0.51769426  0.03838329  1  0.063664  0  0.101981  0.104395  0  0.997193  0
H  H39  1  0.22537948  0.61919565  0.02142237  1  0.056439  0  0.097536  0.095438  0  1.007633  0
H  H40  1  0.26332756  0.52795950  0.96363904  1  0.054482  0  0.109431  0.11537  0  0.971802  0
H  H41  1  0.77461836  0.38080136  0.97857583  1  0.056406  0  0.097533  0.095394  0  1.007546  0
H  H42  1  0.75601330  0.48230276  0.96161470  1  0.063516  0  0.101962  0.104352  0  0.997236  0
H  H43  1  0.73666989  0.47203931  0.03635741  1  0.054553  0  0.109458  0.115387  0  0.971788  0
C  C44  1  0.14997636  0.64992136  0.29917052  1  1.649609  0  0.233918  0.683371  0  4.233493  0
C  C45  1  0.53750196  0.03830252  0.07513949  1  0.131809  0  0.000274  -0.014931  0  3.833376  0
C  C46  1  0.07455450  0.71941776  0.00650293  1  0.400033  0  -0.137155  -0.173878  0  3.912008  0
C  C47  1  0.30672837  0.88786771  0.00623853  1  0.359821  0  -0.13723  -0.174479  0  3.912352  0
C  C48  1  0.69326667  0.11213290  0.99375825  1  0.359861  0  -0.137126  -0.174284  0  3.912327  0
C  C49  1  0.92544471  0.28057869  0.99349322  1  0.400354  0  -0.137174  -0.173819  0  3.911962  0
C  C50  1  0.50187641  0.23020282  0.00475554  1  0.361442  0  -0.137044  -0.175868  0  3.910575  0
C  C51  1  0.49812106  0.76979633  0.99524298  1  0.361436  0  -0.137036  -0.176515  0  3.91037  0
C  C52  1  0.22049110  0.54444651  0.99513979  1  0.36444  0  -0.13725  -0.17759  0  3.913123  0
C  C53  1  0.77950831  0.45555096  0.00485862  1  0.364506  0  -0.137217  -0.177471  0  3.913056  0
C  C54  1  0.03696006  0.53715701  0.07513765  1  0.006166  0  0.000282  -0.016082  0  3.834768  0
C  C55  1  0.96303816  0.46284157  0.92486231  1  0.006151  0  0.000194  -0.016161  0  3.835021  0
C  C56  1  0.46249525  0.96169764  0.92486083  1  0.131713  0  0.000342  -0.014777  0  3.833714  0
C  C57  1  0.42363930  0.92339184  0.84710198  1  -0.30073  0  -0.013964  0.033691  0  4.054855  0
C  C58  1  0.57636224  0.07661394  0.15290404  1  -0.300669  0  -0.013972  0.033547  0  4.055152  0
C  C59  1  0.07637626  0.57640568  0.15289798  1  0.010479  0  -0.014533  0.033797  0  4.054589  0
C  C60  1  0.85002533  0.35008117  0.70083223  1  1.649816  0  0.233912  0.683417  0  4.233645  0
C  C61  1  0.92362573  0.42359323  0.84710780  1  0.010237  0  -0.01451  0.03376  0  4.054232  0
C  C62  1  0.02678248  0.97306056  0.49995991  1  0.044245  0  -0.013471  -0.105755  0  3.917592  0
C  C63  1  0.97322249  0.02694196  0.50004611  1  -0.146504  0  -0.013379  -0.10546  0  3.917517  0
C  C64  1  0.47310122  0.52682720  0.50006839  1  -0.147213  0  -0.013465  -0.105611  0  3.915119  0
C  C65  1  0.52689988  0.47317297  0.49993172  1  0.048029  0  -0.013251  -0.105292  0  3.915018  0
C  C66  1  0.35053209  0.85064876  0.70082999  1  1.73691  0  0.233239  0.683214  0  4.234538  0
C  C67  1  0.47317593  0.97314605  0.50005676  1  -0.186317  0  -0.013713  -0.106044  0  3.917975  0
C  C68  1  0.52682276  0.02685569  0.49994230  1  0.034452  0  -0.013625  -0.106006  0  3.917933  0
C  C69  1  0.40897788  0.59085347  0.50009292  1  1.672577  0  0.242478  0.675236  0  4.229116  0
C  C70  1  0.59102072  0.40914319  0.49990810  1  1.672579  0  0.242414  0.675118  0  4.229138  0
C  C71  1  0.09080005  0.90892992  0.49993985  1  1.654681  0  0.24274  0.675457  0  4.227277  0
C  C72  1  0.64946931  0.14935433  0.29917178  1  1.736754  0  0.233309  0.6832  0  4.234558  0
C  C73  1  0.90920640  0.09107407  0.50006422  1  1.654911  0  0.242743  0.675543  0  4.226983  0
C  C74  1  0.40915264  0.90908974  0.50012670  1  1.687168  0  0.242905  0.676375  0  4.227603  0
C  C75  1  0.59084422  0.09091604  0.49987464  1  1.687261  0  0.242973  0.676583  0  4.227917  0
C  C76  1  0.09095513  0.59086245  0.49991958  1  1.689336  0  0.242749  0.676435  0  4.229396  0
C  C77  1  0.90905259  0.40913592  0.50008441  1  1.689884  0  0.242862  0.676561  0  4.229028  0
C  C78  1  0.02688023  0.52683199  0.49997214  1  -0.18601  0  -0.013714  -0.106106  0  3.918483  0
C  C79  1  0.97312722  0.47316694  0.50003088  1  0.034482  0  -0.013764  -0.106082  0  3.918435  0
C  C80  1  0.44276738  0.97089323  0.02545272  1  0.593938  0  0.080394  0.094605  0  3.732278  0
C  C81  1  0.55722862  0.02910771  0.97454707  1  0.593935  0  0.080438  0.094679  0  3.732203  0
C  C82  1  0.96095566  0.41016275  0.97445755  1  0.567207  0  0.080943  0.096215  0  3.730212  0
C  C83  1  0.03904526  0.58983685  0.02554306  1  0.567101  0  0.080982  0.096213  0  3.730206  0
C  C84  1  0.41602651  0.02683233  0.97451887  1  0.532253  0  0.079903  0.093353  0  3.730807  0
C  C85  1  0.58397069  0.97316772  0.02548076  1  0.532325  0  0.079898  0.093382  0  3.730747  0
C  C86  1  0.06631221  0.45118777  0.02535149  1  0.555709  0  0.079328  0.091592  0  3.734748  0
C  C87  1  0.93368787  0.54881059  0.97464896  1  0.555735  0  0.079358  0.091662  0  3.73466  0
C  C88  1  0.39009852  0.89022474  0.77996353  1  -0.035586  0  -0.045509  -0.205152  0  3.96192  0
C  C89  1  0.60989987  0.10977734  0.22003318  1  -0.035555  0  -0.045493  -0.204923  0  3.96226  0
C  C90  1  0.11037551  0.61029815  0.22003201  1  -0.153063  0  -0.045305  -0.205191  0  3.960361  0
C  C91  1  0.88962165  0.38969808  0.77996484  1  -0.152985  0  -0.045301  -0.205195  0  3.95995  0
C  C92  1  0.48876516  0.90563195  0.97490413  1  0.550681  0  0.077442  0.087245  0  3.747077  0
C  C93  1  0.51123131  0.09436899  0.02509613  1  0.550741  0  0.077528  0.087369  0  3.746985  0
C  C94  1  0.93230883  0.49670557  0.02513369  1  0.564286  0  0.077015  0.087711  0  3.74612  0
C  C95  1  0.06769099  0.50329369  0.97486787  1  0.564516  0  0.077148  0.088026  0  3.745958  0
C  C96  1  0.29957738  0.11067980  0.99354509  1  0.356663  0  -0.13808  -0.177284  0  3.915931  0
C  C97  1  0.70041869  0.88931957  0.00645341  1  0.356537  0  -0.138128  -0.177492  0  3.91596  0
C  C98  1  0.15552390  0.33376450  0.00607230  1  0.355516  0  -0.138095  -0.178715  0  3.91404  0
C  C99  1  0.84447438  0.66623218  0.99392429  1  0.355875  0  -0.138078  -0.178749  0  3.914185  0
O  O100  1  0.24993416  0.74996090  0.50000099  1  -1.224442  0  -0.570003  -1.039809  0  2.529291  0
O  O101  1  0.90601995  0.33436095  0.66938918  1  -1.157979  0  -0.309766  -0.538633  0  2.28124  0
O  O102  1  0.33484486  0.76320395  0.66941466  1  -1.134944  0  -0.309415  -0.538312  0  2.279129  0
O  O103  1  0.66515766  0.23679971  0.33058755  1  -1.134966  0  -0.309423  -0.538321  0  2.279294  0
O  O104  1  0.39715176  0.62833362  0.45488459  1  -1.151402  0  -0.299371  -0.525085  0  2.278272  0
O  O105  1  0.60284500  0.37166676  0.54511664  1  -1.151465  0  -0.299312  -0.524978  0  2.278439  0
O  O106  1  0.17355201  0.94240290  0.54487539  1  -1.142028  0  -0.2995  -0.525218  0  2.276418  0
O  O107  1  0.82645286  0.05760075  0.45512916  1  -1.142149  0  -0.29945  -0.525231  0  2.276267  0
O  O108  1  0.75006988  0.25004173  0.50000478  1  -1.224477  0  -0.570031  -1.039718  0  2.52914  0
O  O109  1  0.39805604  0.82620671  0.45548651  1  -1.14482  0  -0.299715  -0.525952  0  2.277116  0
O  O110  1  0.60193560  0.17379760  0.54451303  1  -1.145018  0  -0.299665  -0.525907  0  2.277235  0
O  O111  1  0.37097572  0.94267427  0.54480385  1  -1.148344  0  -0.299484  -0.525491  0  2.27675  0
O  O112  1  0.62902535  0.05733455  0.45519963  1  -1.148236  0  -0.299636  -0.525768  0  2.277101  0
O  O113  1  0.05762872  0.62805569  0.45449841  1  -1.150926  0  -0.299799  -0.525822  0  2.277592  0
O  O114  1  0.94238071  0.37194549  0.54550796  1  -1.151109  0  -0.299814  -0.525813  0  2.277325  0
O  O115  1  0.17356456  0.60292853  0.54530504  1  -1.144641  0  -0.299369  -0.525831  0  2.277117  0
O  O116  1  0.82644268  0.39706623  0.45469709  1  -1.144916  0  -0.299416  -0.525923  0  2.277125  0
O  O117  1  0.37146811  0.60262207  0.54528062  1  -1.154295  0  -0.299934  -0.525913  0  2.277298  0
O  O118  1  0.62853093  0.39737100  0.45471948  1  -1.154245  0  -0.299931  -0.525927  0  2.277139  0
O  O119  1  0.05731190  0.82614032  0.45500902  1  -1.145171  0  -0.299954  -0.525793  0  2.275973  0
O  O120  1  0.94269553  0.17386481  0.54499056  1  -1.145323  0  -0.29999  -0.525933  0  2.275884  0
O  O121  1  0.23739413  0.66566383  0.33066453  1  -1.134094  0  -0.310079  -0.538804  0  2.276656  0
O  O122  1  0.76260896  0.33434174  0.66933756  1  -1.134011  0  -0.310078  -0.538875  0  2.276849  0
O  O123  1  0.33475319  0.90655190  0.66929886  1  -1.156227  0  -0.310002  -0.539237  0  2.278506  0
O  O124  1  0.66524775  0.09345130  0.33070314  1  -1.156125  0  -0.309974  -0.539176  0  2.278465  0
O  O125  1  0.09398165  0.66563966  0.33061415  1  -1.157691  0  -0.309763  -0.538669  0  2.281369  0
O  O126  1  0.33106348  0.04744247  0.94169881  1  -1.064797  0  -0.210504  -0.18303  0  2.52607  0
O  O127  1  0.66893316  0.95255566  0.05830094  1  -1.06482  0  -0.210493  -0.183017  0  2.526057  0
O  O128  1  0.13315767  0.40811047  0.05801350  1  -1.071011  0  -0.210688  -0.182758  0  2.526725  0
O  O129  1  0.86684202  0.59188620  0.94198450  1  -1.071072  0  -0.210646  -0.182679  0  2.526712  0
O  O130  1  0.39242832  0.94705817  0.05824115  1  -1.074094  0  -0.211609  -0.184986  0  2.527923  0
O  O131  1  0.60756655  0.05294210  0.94175752  1  -1.073904  0  -0.211722  -0.185165  0  2.527986  0
O  O132  1  0.91907341  0.32010014  0.94154581  1  -1.071674  0  -0.21169  -0.185615  0  2.526988  0
O  O133  1  0.08092618  0.67989777  0.05845141  1  -1.071597  0  -0.211732  -0.185597  0  2.52711  0
O  O134  1  0.52549504  0.18864269  0.05724961  1  -1.090645  0  -0.210816  -0.182401  0  2.528815  0
O  O135  1  0.47450188  0.81135804  0.94274974  1  -1.090661  0  -0.210821  -0.182513  0  2.529061  0
O  O136  1  0.12836105  0.50197444  0.94265171  1  -1.056794  0  -0.210419  -0.18249  0  2.529792  0
O  O137  1  0.87163799  0.49802178  0.05734702  1  -1.056599  0  -0.21031  -0.182299  0  2.529821  0
