# generated using pymatgen
data_CsSi2H30C12NO3
_symmetry_space_group_name_H-M   'P 1'
_cell_length_a   11.62692843
_cell_length_b   12.37514814
_cell_length_c   14.53269988
_cell_angle_alpha   97.20963281
_cell_angle_beta   89.99946565
_cell_angle_gamma   90.00015242
_symmetry_Int_Tables_number   1
_chemical_formula_structural   CsSi2H30C12NO3
_chemical_formula_sum   'Cs4 Si8 H120 C48 N4 O12'
_cell_volume   2074.50442373
_cell_formula_units_Z   4
loop_
 _symmetry_equiv_pos_site_id
 _symmetry_equiv_pos_as_xyz
  1  'x, y, z'
loop_
 _atom_site_type_symbol
 _atom_site_label
 _atom_site_symmetry_multiplicity
 _atom_site_fract_x
 _atom_site_fract_y
 _atom_site_fract_z
 _atom_site_occupancy
 _atom_site_pbe_bader_charge
 _atom_site_pbe_bader_spin_density
 _atom_site_pbe_cm5_charge
 _atom_site_pbe_ddec_charge
 _atom_site_pbe_ddec_spin_density
 _atom_site_pbe_ddec_sum_bond_order
 _atom_site_pbe_magmom
Cs  Cs0  1  0.51766742  0.13310226  0.43855290  1  0.876241  0  0.945117  0.856319  0  0.901857  0
Cs  Cs1  1  0.01766777  0.36690445  0.06145240  1  0.876186  0  0.945144  0.856302  0  0.901884  0
Cs  Cs2  1  0.48233340  0.86690545  0.56145250  1  0.876162  0  0.945139  0.856332  0  0.901869  0
Cs  Cs3  1  0.98233649  0.63310160  0.93855556  1  0.876202  0  0.945139  0.856301  0  0.901861  0
Si  Si4  1  0.38885368  0.85768961  0.29737001  1  2.787176  0  0.131119  1.118523  0  4.093864  0
Si  Si5  1  0.88885529  0.64230957  0.20264002  1  2.787375  0  0.131154  1.118588  0  4.093859  0
Si  Si6  1  0.61113510  0.14231402  0.70263493  1  2.787335  0  0.131157  1.118627  0  4.093714  0
Si  Si7  1  0.11114038  0.35769328  0.79736138  1  2.787367  0  0.131195  1.118578  0  4.09394  0
Si  Si8  1  0.20994512  0.96971098  0.42747978  1  2.786348  0  0.134055  1.118197  0  4.094079  0
Si  Si9  1  0.70994794  0.53029455  0.07252404  1  2.786382  0  0.134007  1.117965  0  4.094313  0
Si  Si10  1  0.79004711  0.03029267  0.57252378  1  2.786398  0  0.13396  1.117921  0  4.09433  0
Si  Si11  1  0.29005203  0.46970668  0.92747650  1  2.786392  0  0.13401  1.118039  0  4.094016  0
H  H12  1  0.35581838  0.80605965  0.12626996  1  0.018743  0  0.080449  0.156045  0  1.047585  0
H  H13  1  0.85581639  0.69392967  0.37374332  1  0.018602  0  0.080473  0.155995  0  1.047598  0
H  H14  1  0.64417471  0.19394231  0.87373891  1  0.018766  0  0.080457  0.156026  0  1.047524  0
H  H15  1  0.14417841  0.30606662  0.62626216  1  0.01891  0  0.080459  0.156001  0  1.047622  0
H  H16  1  0.33176045  0.94793069  0.15804918  1  0.011527  0  0.076023  0.138738  0  1.061614  0
H  H17  1  0.83176875  0.55205954  0.34195199  1  0.011301  0  0.075999  0.138658  0  1.061751  0
H  H18  1  0.66822834  0.05207055  0.84195067  1  0.011557  0  0.076012  0.138693  0  1.061561  0
H  H19  1  0.16823551  0.44793850  0.65804198  1  0.011272  0  0.076008  0.138686  0  1.061684  0
H  H20  1  0.22640473  0.85152030  0.18330460  1  0.034726  0  0.0823  0.151165  0  1.058319  0
H  H21  1  0.72640415  0.64846558  0.31670924  1  0.03476  0  0.082328  0.151163  0  1.058428  0
H  H22  1  0.77358663  0.14848086  0.81670212  1  0.034717  0  0.082307  0.151148  0  1.058295  0
H  H23  1  0.27359151  0.35152989  0.68329614  1  0.034813  0  0.082378  0.151218  0  1.058292  0
H  H24  1  0.27407747  0.69378593  0.32675604  1  0.018986  0  0.082596  0.151921  0  1.05888  0
H  H25  1  0.77408506  0.80622289  0.17325318  1  0.018981  0  0.082608  0.152005  0  1.058985  0
H  H26  1  0.72590873  0.30621773  0.67324546  1  0.01909  0  0.082557  0.151874  0  1.059083  0
H  H27  1  0.22591405  0.19378569  0.82674613  1  0.019071  0  0.082584  0.151966  0  1.058951  0
H  H28  1  0.40032524  0.65204669  0.26255449  1  0.020013  0  0.080204  0.155386  0  1.054952  0
H  H29  1  0.90033046  0.84795163  0.23746086  1  0.01968  0  0.080245  0.155544  0  1.054861  0
H  H30  1  0.59966441  0.34795856  0.73745132  1  0.019792  0  0.080227  0.155485  0  1.054895  0
H  H31  1  0.09966778  0.15204955  0.76254448  1  0.019763  0  0.080237  0.155504  0  1.054922  0
H  H32  1  0.40878081  0.69482981  0.38381037  1  -0.007187  0  0.076063  0.127304  0  1.111572  0
H  H33  1  0.90879509  0.80517179  0.11620461  1  -0.007249  0  0.076042  0.127342  0  1.111592  0
H  H34  1  0.59120281  0.30517300  0.61619516  1  -0.007423  0  0.076048  0.127334  0  1.111531  0
H  H35  1  0.09120917  0.19483510  0.88380001  1  -0.007903  0  0.076048  0.127319  0  1.111608  0
H  H36  1  0.56820066  0.95313573  0.25481075  1  0.019404  0  0.084558  0.145968  0  1.063338  0
H  H37  1  0.06819620  0.54685976  0.24519985  1  0.019278  0  0.084591  0.146062  0  1.063356  0
H  H38  1  0.43179672  0.04685970  0.74519876  1  0.019694  0  0.08456  0.146011  0  1.063356  0
H  H39  1  0.93179947  0.45314551  0.75480459  1  0.019615  0  0.084583  0.146029  0  1.063369  0
H  H40  1  0.60212904  0.86387252  0.33777883  1  -0.024527  0  0.083332  0.133531  0  1.081838  0
H  H41  1  0.10213269  0.63612382  0.16223230  1  -0.024358  0  0.08334  0.133466  0  1.081868  0
H  H42  1  0.39784770  0.13611962  0.66223373  1  -0.02464  0  0.08343  0.133571  0  1.081904  0
H  H43  1  0.89786383  0.36388144  0.83777214  1  -0.024435  0  0.083339  0.133474  0  1.081891  0
H  H44  1  0.57923195  0.81117544  0.22048496  1  0.002886  0  0.086863  0.163167  0  1.040307  0
H  H45  1  0.07923437  0.68881923  0.27952753  1  0.003206  0  0.086859  0.163156  0  1.040158  0
H  H46  1  0.42076114  0.18881918  0.77952377  1  0.003241  0  0.086865  0.163218  0  1.040177  0
H  H47  1  0.92076388  0.31118602  0.72047828  1  0.003326  0  0.086865  0.163209  0  1.040197  0
H  H48  1  0.11136525  0.12385696  0.52835956  1  0.002535  0  0.085252  0.163037  0  1.04206  0
H  H49  1  0.61136521  0.37615676  0.97164711  1  0.002618  0  0.085176  0.163027  0  1.042081  0
H  H50  1  0.88862956  0.87614989  0.47164987  1  0.002698  0  0.085205  0.16304  0  1.042082  0
H  H51  1  0.38863390  0.62384357  0.02836088  1  0.002548  0  0.085198  0.163012  0  1.042137  0
H  H52  1  0.25745523  0.11544157  0.55970807  1  0.009676  0  0.083913  0.13901  0  1.07452  0
H  H53  1  0.75745644  0.38456422  0.94029524  1  0.009759  0  0.083928  0.138986  0  1.074452  0
H  H54  1  0.74253872  0.88455636  0.44029621  1  0.009714  0  0.083922  0.139008  0  1.074468  0
H  H55  1  0.24254266  0.61542880  0.05971054  1  0.009584  0  0.083916  0.139049  0  1.074564  0
H  H56  1  0.21915000  0.17457712  0.45885605  1  0.00698  0  0.078625  0.132787  0  1.081221  0
H  H57  1  0.71914802  0.32542742  0.04114683  1  0.007012  0  0.07858  0.132712  0  1.081168  0
H  H58  1  0.78084480  0.82542486  0.54115076  1  0.006801  0  0.078595  0.132736  0  1.081368  0
H  H59  1  0.28084936  0.67457453  0.95886273  1  0.007166  0  0.078591  0.132723  0  1.08115  0
H  H60  1  0.08410855  0.87981256  0.30092210  1  0.033695  0  0.085755  0.157281  0  1.05394  0
H  H61  1  0.58410755  0.62018867  0.19908697  1  0.033612  0  0.085764  0.1573  0  1.05382  0
H  H62  1  0.91588196  0.12019192  0.69907949  1  0.033798  0  0.085754  0.157295  0  1.05386  0
H  H63  1  0.41588983  0.37981582  0.80091256  1  0.033669  0  0.085752  0.157272  0  1.053955  0
H  H64  1  0.10804150  0.01695367  0.28342277  1  0.009699  0  0.078699  0.144219  0  1.071599  0
H  H65  1  0.60804393  0.48304830  0.21657858  1  0.009811  0  0.078691  0.144185  0  1.071634  0
H  H66  1  0.89195158  0.98305244  0.71657901  1  0.009937  0  0.078667  0.144139  0  1.071669  0
H  H67  1  0.39194744  0.51695618  0.78342301  1  0.009725  0  0.078661  0.144175  0  1.071751  0
H  H68  1  0.00715848  0.98537182  0.36823893  1  -0.004853  0  0.082202  0.156485  0  1.050252  0
H  H69  1  0.50716142  0.51463016  0.13176666  1  -0.004743  0  0.082216  0.156518  0  1.050179  0
H  H70  1  0.99283116  0.01463429  0.63176284  1  -0.004646  0  0.0822  0.156461  0  1.050328  0
H  H71  1  0.49283596  0.48537598  0.86823237  1  -0.004722  0  0.082256  0.156525  0  1.0502  0
H  H72  1  0.07132825  0.87854768  0.52691612  1  0.033485  0  0.081025  0.153853  0  1.060649  0
H  H73  1  0.57134123  0.62146946  0.97308786  1  0.033561  0  0.080992  0.153792  0  1.060762  0
H  H74  1  0.92866225  0.12144867  0.47308317  1  0.033615  0  0.081019  0.153819  0  1.060763  0
H  H75  1  0.42866476  0.37854404  0.02690787  1  0.033579  0  0.080982  0.153739  0  1.060816  0
H  H76  1  0.21296643  0.86857981  0.56963710  1  -0.008007  0  0.074257  0.12801  0  1.113856  0
H  H77  1  0.71297907  0.63143181  0.93036796  1  -0.008078  0  0.074248  0.127999  0  1.113849  0
H  H78  1  0.78702752  0.13141085  0.43036016  1  -0.007972  0  0.074195  0.127883  0  1.113945  0
H  H79  1  0.28703207  0.36857104  0.06963413  1  -0.007956  0  0.07427  0.128016  0  1.11387  0
H  H80  1  0.16889851  0.78276176  0.46890967  1  0.00492  0  0.083721  0.154221  0  1.043304  0
H  H81  1  0.66891784  0.71724038  0.03110094  1  0.004781  0  0.083727  0.154182  0  1.04324  0
H  H82  1  0.83109114  0.21723792  0.53108243  1  0.004982  0  0.083718  0.154198  0  1.043258  0
H  H83  1  0.33109761  0.28275755  0.96890334  1  0.005039  0  0.083695  0.154174  0  1.043276  0
H  H84  1  0.41179339  0.34608246  0.19660511  1  0.071845  0  0.101954  0.070849  0  1.00117  0
H  H85  1  0.91180072  0.15392485  0.30339254  1  0.07203  0  0.102024  0.070903  0  1.001187  0
H  H86  1  0.58822120  0.65390901  0.80339362  1  0.071933  0  0.101908  0.070839  0  1.00112  0
H  H87  1  0.08821128  0.84607156  0.69660124  1  0.072013  0  0.101975  0.070896  0  1.001144  0
H  H88  1  0.43943294  0.40771202  0.31281292  1  0.075167  0  0.105639  0.074626  0  1.02755  0
H  H89  1  0.93944405  0.09230021  0.18718440  1  0.075235  0  0.105609  0.074755  0  1.027352  0
H  H90  1  0.56057219  0.59228104  0.68718874  1  0.075152  0  0.105656  0.074711  0  1.027539  0
H  H91  1  0.06055592  0.90769866  0.81280760  1  0.075115  0  0.10565  0.074806  0  1.027338  0
H  H92  1  0.26094781  0.48442419  0.24146676  1  0.069218  0  0.114554  0.092835  0  0.981207  0
H  H93  1  0.76096215  0.01557476  0.25853036  1  0.068746  0  0.114581  0.092861  0  0.981118  0
H  H94  1  0.73906076  0.51556804  0.75853618  1  0.068972  0  0.11459  0.092791  0  0.981196  0
H  H95  1  0.23904899  0.98441913  0.74147002  1  0.068819  0  0.114569  0.092814  0  0.981271  0
H  H96  1  0.23035434  0.42423187  0.34457253  1  0.019629  0  0.098221  0.060984  0  0.984067  0
H  H97  1  0.73036577  0.07576787  0.15542284  1  0.019656  0  0.098167  0.060863  0  0.983932  0
H  H98  1  0.76965423  0.57574656  0.65542402  1  0.019738  0  0.098199  0.060958  0  0.983951  0
H  H99  1  0.26964279  0.92422116  0.84457424  1  0.019542  0  0.098113  0.060858  0  0.983882  0
H  H100  1  0.14350065  0.24119308  0.32461413  1  0.036285  0  0.103138  0.073097  0  0.97587  0
H  H101  1  0.64349861  0.25880077  0.17538809  1  0.036297  0  0.103124  0.073043  0  0.975941  0
H  H102  1  0.85651394  0.75878954  0.67537120  1  0.035901  0  0.103037  0.072986  0  0.975811  0
H  H103  1  0.35650050  0.74118423  0.82460440  1  0.036003  0  0.103121  0.073013  0  0.975926  0
H  H104  1  0.11742471  0.18133102  0.20787370  1  0.058759  0  0.111193  0.083323  0  1.003574  0
H  H105  1  0.61741975  0.31865953  0.29212902  1  0.058762  0  0.111151  0.0833  0  1.003559  0
H  H106  1  0.88259847  0.81865079  0.79211154  1  0.058893  0  0.111227  0.083263  0  1.003672  0
H  H107  1  0.38256989  0.68132631  0.70786081  1  0.058556  0  0.111147  0.083272  0  1.003583  0
H  H108  1  0.32713804  0.16530811  0.17761309  1  0.003576  0  0.098952  0.062425  0  0.979573  0
H  H109  1  0.82713018  0.33469250  0.32238993  1  0.003564  0  0.098933  0.062392  0  0.979563  0
H  H110  1  0.67288859  0.83467439  0.82238531  1  0.003622  0  0.098868  0.062313  0  0.979608  0
H  H111  1  0.17286118  0.66529980  0.67760615  1  0.003393  0  0.098911  0.062391  0  0.979697  0
H  H112  1  0.29691440  0.10455060  0.28129366  1  0.106872  0  0.114977  0.091362  0  1.024039  0
H  H113  1  0.79690708  0.39545078  0.21870967  1  0.106715  0  0.11494  0.091279  0  1.024111  0
H  H114  1  0.70309761  0.89543920  0.71870763  1  0.107005  0  0.114919  0.091292  0  1.024005  0
H  H115  1  0.20308772  0.60454233  0.78128719  1  0.106593  0  0.114981  0.091353  0  1.024102  0
H  H116  1  0.64081920  0.46165359  0.56464095  1  0.053298  0  0.101045  0.065837  0  1.021672  0
H  H117  1  0.14082020  0.03836436  0.93535360  1  0.053691  0  0.100956  0.065819  0  1.021598  0
H  H118  1  0.35917733  0.53836552  0.43536437  1  0.053128  0  0.101003  0.065916  0  1.021525  0
H  H119  1  0.85917891  0.96163781  0.06463396  1  0.053261  0  0.101  0.065843  0  1.021546  0
H  H120  1  0.68728097  0.43630879  0.44656180  1  0.072555  0  0.113564  0.089851  0  0.970365  0
H  H121  1  0.18726764  0.06370801  0.05343515  1  0.073539  0  0.11358  0.089836  0  0.970369  0
H  H122  1  0.31273620  0.56370786  0.55344600  1  0.073378  0  0.113562  0.089843  0  0.970398  0
H  H123  1  0.81273319  0.93630398  0.94654940  1  0.073385  0  0.113614  0.089951  0  0.970503  0
H  H124  1  0.43952072  0.41788159  0.59733943  1  0.054928  0  0.103939  0.071325  0  1.001077  0
H  H125  1  0.93950775  0.08212784  0.90265057  1  0.05487  0  0.103963  0.071262  0  1.001061  0
H  H126  1  0.56049903  0.58213843  0.40265705  1  0.055229  0  0.103983  0.071281  0  1.001032  0
H  H127  1  0.06048448  0.91787925  0.09733411  1  0.054932  0  0.103956  0.071363  0  1.001036  0
H  H128  1  0.35361030  0.36237972  0.50035386  1  0.071658  0  0.113519  0.085368  0  0.98616  0
H  H129  1  0.85359549  0.13762382  0.99964298  1  0.071766  0  0.113504  0.085345  0  0.986232  0
H  H130  1  0.64640514  0.63763858  0.49965137  1  0.071319  0  0.113456  0.085253  0  0.986276  0
H  H131  1  0.14640018  0.86238485  0.00034808  1  0.070669  0  0.113526  0.085391  0  0.986347  0
C  C132  1  0.31933044  0.86685868  0.18013036  1  -0.763082  0  -0.305244  -0.735685  0  3.842571  0
C  C133  1  0.81932805  0.63313305  0.31988140  1  -0.762778  0  -0.305299  -0.735554  0  3.842731  0
C  C134  1  0.68066007  0.13314577  0.81987398  1  -0.763128  0  -0.305269  -0.735616  0  3.842345  0
C  C135  1  0.18066675  0.36686652  0.68012239  1  -0.763155  0  -0.305366  -0.735684  0  3.842652  0
C  C136  1  0.36627558  0.71061481  0.31923289  1  -0.734333  0  -0.308073  -0.750883  0  3.851273  0
C  C137  1  0.86628045  0.78938919  0.18078198  1  -0.734063  0  -0.308098  -0.751135  0  3.851432  0
C  C138  1  0.63371234  0.28938964  0.68077145  1  -0.734001  0  -0.308035  -0.750945  0  3.851391  0
C  C139  1  0.13371694  0.21061692  0.81922048  1  -0.733527  0  -0.308077  -0.751017  0  3.851458  0
C  C140  1  0.54911885  0.87289267  0.27636032  1  -0.704155  0  -0.307174  -0.751136  0  3.864512  0
C  C141  1  0.04911573  0.62710279  0.22365042  1  -0.704489  0  -0.307221  -0.751185  0  3.864546  0
C  C142  1  0.45087165  0.12710361  0.72364584  1  -0.704805  0  -0.30729  -0.751342  0  3.864636  0
C  C143  1  0.95087821  0.37290246  0.77635539  1  -0.704952  0  -0.307219  -0.751189  0  3.864566  0
C  C144  1  0.19833075  0.10823779  0.50001716  1  -0.727897  0  -0.305384  -0.747491  0  3.866636  0
C  C145  1  0.69833214  0.39177035  0.99998823  1  -0.728178  0  -0.305258  -0.747292  0  3.866529  0
C  C146  1  0.80166147  0.89176419  0.49998965  1  -0.728032  0  -0.305291  -0.747348  0  3.866693  0
C  C147  1  0.30166610  0.60822916  0.00002105  1  -0.72811  0  -0.305295  -0.747408  0  3.866684  0
C  C148  1  0.09131242  0.96327632  0.33669428  1  -0.731699  0  -0.304644  -0.748385  0  3.836947  0
C  C149  1  0.59131677  0.53672825  0.16330823  1  -0.73193  0  -0.30467  -0.748381  0  3.836894  0
C  C150  1  0.90867808  0.03672979  0.66330749  1  -0.732251  0  -0.304592  -0.748227  0  3.83707  0
C  C151  1  0.40868320  0.46327790  0.83668942  1  -0.731835  0  -0.30464  -0.748323  0  3.837059  0
C  C152  1  0.16173315  0.86579494  0.50581500  1  -0.737476  0  -0.31294  -0.756816  0  3.866979  0
C  C153  1  0.66174333  0.63421253  0.99418997  1  -0.737341  0  -0.312881  -0.756637  0  3.866942  0
C  C154  1  0.83825822  0.13420060  0.49418351  1  -0.737746  0  -0.312833  -0.756572  0  3.867027  0
C  C155  1  0.33826180  0.36578953  0.00580928  1  -0.73783  0  -0.312875  -0.756647  0  3.867017  0
C  C156  1  0.37917216  0.35665123  0.26850087  1  0.37902  0  -0.081706  -0.027647  0  3.939963  0
C  C157  1  0.87918375  0.14335354  0.23150086  1  0.37849  0  -0.08173  -0.027846  0  3.939573  0
C  C158  1  0.62083985  0.64333859  0.73149836  1  0.379409  0  -0.081767  -0.027824  0  3.940139  0
C  C159  1  0.12082224  0.85664204  0.76849421  1  0.378693  0  -0.081772  -0.028008  0  3.939725  0
C  C160  1  0.26052178  0.40760054  0.27194117  1  0.425691  0  -0.075323  -0.013953  0  3.937782  0
C  C161  1  0.76053585  0.09240083  0.22805898  1  0.426101  0  -0.07519  -0.013751  0  3.937243  0
C  C162  1  0.73949022  0.59238523  0.72805622  1  0.424921  0  -0.07516  -0.013646  0  3.937581  0
C  C163  1  0.23946928  0.90759064  0.77193838  1  0.426251  0  -0.075184  -0.013706  0  3.937218  0
C  C164  1  0.17742403  0.23190175  0.25299207  1  0.421411  0  -0.077147  -0.015978  0  3.925853  0
C  C165  1  0.67742289  0.26809298  0.24700862  1  0.421361  0  -0.077109  -0.015906  0  3.925909  0
C  C166  1  0.82259228  0.76808164  0.74699885  1  0.421409  0  -0.077042  -0.015708  0  3.925672  0
C  C167  1  0.32257621  0.73189936  0.75298401  1  0.42192  0  -0.077096  -0.015803  0  3.925801  0
C  C168  1  0.29641585  0.18127718  0.25017785  1  0.409925  0  -0.081126  -0.028415  0  3.926919  0
C  C169  1  0.79641138  0.31872422  0.24982410  1  0.409988  0  -0.081053  -0.028305  0  3.927029  0
C  C170  1  0.70360218  0.81871347  0.74982010  1  0.410136  0  -0.080975  -0.028235  0  3.926304  0
C  C171  1  0.20358514  0.68126811  0.75016991  1  0.410697  0  -0.081057  -0.028339  0  3.927113  0
C  C172  1  0.61480244  0.46436155  0.49192783  1  0.406923  0  -0.073615  -0.018354  0  3.924338  0
C  C173  1  0.11479644  0.03565029  0.00806633  1  0.405444  0  -0.073649  -0.018414  0  3.924219  0
C  C174  1  0.38520613  0.53565434  0.50807438  1  0.406207  0  -0.07371  -0.018658  0  3.92419  0
C  C175  1  0.88520438  0.96435108  0.99192045  1  0.406327  0  -0.07378  -0.018713  0  3.924633  0
C  C176  1  0.42147254  0.42154937  0.52316683  1  0.376109  0  -0.080003  -0.027531  0  3.932921  0
C  C177  1  0.92146471  0.07845751  0.97683127  1  0.375836  0  -0.080039  -0.02759  0  3.933266  0
C  C178  1  0.57853344  0.57846977  0.47683712  1  0.376921  0  -0.080066  -0.027553  0  3.933305  0
C  C179  1  0.07853096  0.92154791  0.02315804  1  0.377026  0  -0.080089  -0.027846  0  3.93344  0
N  N180  1  0.34479436  0.95035227  0.38558389  1  -2.196939  0  -0.732266  -1.236302  0  3.174275  0
N  N181  1  0.84479675  0.54965342  0.11442170  1  -2.196864  0  -0.732271  -1.236246  0  3.174241  0
N  N182  1  0.65519786  0.04965627  0.61441954  1  -2.19686  0  -0.732305  -1.236252  0  3.174233  0
N  N183  1  0.15520150  0.45034944  0.88557902  1  -2.196764  0  -0.732278  -1.236258  0  3.174245  0
O  O184  1  0.37600674  0.25300994  0.30326332  1  -1.045911  0  -0.304472  -0.267803  0  2.503187  0
O  O185  1  0.87600613  0.24699894  0.19673477  1  -1.04566  0  -0.304513  -0.267774  0  2.503188  0
O  O186  1  0.62400957  0.74697746  0.69673425  1  -1.046076  0  -0.304397  -0.26778  0  2.502941  0
O  O187  1  0.12399383  0.75299990  0.80325930  1  -1.046133  0  -0.304531  -0.267799  0  2.503317  0
O  O188  1  0.17967691  0.33664693  0.21978273  1  -1.059249  0  -0.31479  -0.274452  0  2.518302  0
O  O189  1  0.67968368  0.16334701  0.28021580  1  -1.059042  0  -0.314878  -0.274522  0  2.518233  0
O  O190  1  0.82033596  0.66334133  0.78021013  1  -1.058746  0  -0.314971  -0.274716  0  2.518282  0
O  O191  1  0.32031715  0.83664207  0.71977647  1  -1.059227  0  -0.314774  -0.274475  0  2.518221  0
O  O192  1  0.52231114  0.38864055  0.46910964  1  -1.044377  0  -0.292808  -0.26617  0  2.513019  0
O  O193  1  0.02229993  0.11137612  0.03087887  1  -1.044392  0  -0.292771  -0.265977  0  2.512874  0
O  O194  1  0.47770344  0.61137706  0.53088381  1  -1.045456  0  -0.292807  -0.265918  0  2.513071  0
O  O195  1  0.97769573  0.88863506  0.96910559  1  -1.044522  0  -0.29271  -0.265804  0  2.513129  0
