# generated using pymatgen
data_FeH12C4(ClO2)2
_symmetry_space_group_name_H-M   'P 1'
_cell_length_a   6.92836147
_cell_length_b   7.85352054
_cell_length_c   9.15293645
_cell_angle_alpha   90.00000638
_cell_angle_beta   89.99927132
_cell_angle_gamma   115.14713534
_symmetry_Int_Tables_number   1
_chemical_formula_structural   FeH12C4(ClO2)2
_chemical_formula_sum   'Fe2 H24 C8 Cl4 O8'
_cell_volume   450.82633553
_cell_formula_units_Z   2
loop_
 _symmetry_equiv_pos_site_id
 _symmetry_equiv_pos_as_xyz
  1  'x, y, z'
loop_
 _atom_site_type_symbol
 _atom_site_label
 _atom_site_symmetry_multiplicity
 _atom_site_fract_x
 _atom_site_fract_y
 _atom_site_fract_z
 _atom_site_occupancy
 _atom_site_hle17_ddec_charge
 _atom_site_hle17_ddec_spin_density
 _atom_site_hle17_ddec_sum_bond_order
 _atom_site_hle17_magmom
 _atom_site_hse06_10hf_ddec_charge
 _atom_site_hse06_10hf_ddec_spin_density
 _atom_site_hse06_10hf_ddec_sum_bond_order
 _atom_site_hse06_10hf_magmom
 _atom_site_hse06_ddec_charge
 _atom_site_hse06_ddec_spin_density
 _atom_site_hse06_ddec_sum_bond_order
 _atom_site_hse06_magmom
 _atom_site_pbe_cm5_charge
 _atom_site_pbe_ddec_charge
 _atom_site_pbe_ddec_spin_density
 _atom_site_pbe_ddec_sum_bond_order
 _atom_site_pbe_magmom
Fe  Fe0  1  0.00000101  0.99999984  0.50000034  1  1.052264  -3.866624  1.981044  -3.643  0.943976  -3.851509  2.436488  -3.641  1.011062  -3.881379  2.367155  -3.701  0.564975  0.887548  -3.822078  2.488014  -3.583
Fe  Fe1  1  0.50000070  0.50000154  0.99999985  1  1.052151  -3.866613  1.981329  -3.643  0.94383  -3.851504  2.436814  -3.641  1.010903  -3.88137  2.367481  -3.701  0.564905  0.887383  -3.822072  2.488354  -3.583
H  H2  1  0.74957097  0.64331122  0.42346714  1  0.406097  -0.000377  0.895269  -0.001  0.377711  -0.000928  0.963371  -0.002  0.388133  -0.000594  0.948432  -0.002  0.268261  0.369575  -0.001109  0.975026  -0.003
H  H3  1  0.75044595  0.85667563  0.92348375  1  0.406133  -0.000376  0.895317  -0.001  0.377768  -0.000928  0.963348  -0.002  0.388188  -0.000593  0.94841  -0.002  0.2683  0.369628  -0.001108  0.975013  -0.003
H  H4  1  0.25042949  0.35668939  0.57653404  1  0.406099  -0.000377  0.89525  -0.001  0.377725  -0.000928  0.963373  -0.002  0.388146  -0.000594  0.948432  -0.002  0.268268  0.369585  -0.001109  0.975035  -0.003
H  H5  1  0.24955451  0.14332498  0.07651634  1  0.40613  -0.000377  0.89532  -0.001  0.37776  -0.000928  0.96336  -0.002  0.38818  -0.000593  0.948422  -0.002  0.268286  0.369621  -0.001108  0.975025  -0.003
H  H6  1  0.71514895  0.65983191  0.59292986  1  0.403325  -0.000204  0.901489  -0.001  0.374035  -0.000723  0.970829  -0.002  0.384806  -0.000442  0.955399  -0.002  0.264697  0.365919  -0.00083  0.982366  -0.002
H  H7  1  0.78489083  0.84017305  0.09293919  1  0.403308  -0.000204  0.901438  -0.001  0.373991  -0.000723  0.970898  -0.002  0.384767  -0.000442  0.955462  -0.002  0.26463  0.365863  -0.00083  0.982434  -0.002
H  H8  1  0.28485073  0.34017010  0.40707241  1  0.403322  -0.000204  0.901496  -0.001  0.374035  -0.000723  0.970826  -0.002  0.384806  -0.000442  0.955398  -0.002  0.264703  0.365916  -0.00083  0.982361  -0.002
H  H9  1  0.21511030  0.15982896  0.90706199  1  0.403312  -0.000204  0.901455  -0.001  0.373995  -0.000723  0.9709  -0.002  0.384772  -0.000442  0.955462  -0.002  0.264618  0.365867  -0.00083  0.982435  -0.002
H  H10  1  0.79396441  0.24992502  0.61869602  1  0.081476  0.000145  0.935919  0.0  0.094757  5.5e-05  0.998513  0.0  0.095094  0.000119  0.998115  0.0  0.105939  0.094453  -5.5e-05  0.998918  0.0
H  H11  1  0.70604512  0.25008905  0.11871373  1  0.081401  0.000145  0.936074  0.0  0.094648  5.5e-05  0.998634  0.0  0.094976  0.000119  0.99823  0.0  0.105852  0.094343  -5.5e-05  0.99904  0.0
H  H12  1  0.20603828  0.75007420  0.38130298  1  0.081501  0.000145  0.935898  0.0  0.094779  5.5e-05  0.998491  0.0  0.095112  0.000119  0.998092  0.0  0.105945  0.094474  -5.5e-05  0.998895  0.0
H  H13  1  0.29395379  0.74991436  0.88128636  1  0.081429  0.000145  0.936038  0.0  0.094637  5.5e-05  0.998638  0.0  0.09497  0.000119  0.99824  0.0  0.105851  0.094332  -5.5e-05  0.999044  0.0
H  H14  1  0.63289151  0.27324097  0.47307359  1  0.064478  -0.000546  0.946873  -0.001  0.07473  -0.000703  1.016526  -0.001  0.076068  -0.000474  1.01482  0.0  0.091885  0.073678  -0.000849  1.017953  -0.001
H  H15  1  0.86711612  0.22674227  0.97309231  1  0.06454  -0.000546  0.946808  -0.001  0.074645  -0.000704  1.01655  -0.001  0.075971  -0.000474  1.014849  0.0  0.091884  0.073597  -0.000849  1.017971  -0.001
H  H16  1  0.36711117  0.72675825  0.52692541  1  0.064502  -0.000546  0.946874  -0.001  0.074783  -0.000703  1.016495  -0.001  0.07612  -0.000474  1.014784  0.0  0.091889  0.073731  -0.000849  1.017922  -0.001
H  H17  1  0.13287922  0.77325972  0.02690778  1  0.064487  -0.000546  0.946846  -0.001  0.074638  -0.000704  1.016532  -0.001  0.07597  -0.000474  1.014831  0.0  0.091858  0.073587  -0.000849  1.017959  -0.001
H  H18  1  0.51087724  0.03174125  0.28741460  1  0.064604  -0.000151  0.927806  0.0  0.074928  -0.000161  0.996406  0.0  0.075917  -4.9e-05  0.994943  0.0  0.097875  0.074092  -0.000297  0.997644  -0.001
H  H19  1  0.98912138  0.46821952  0.78740818  1  0.064615  -0.000151  0.927551  0.0  0.074962  -0.000161  0.996207  0.0  0.075948  -4.9e-05  0.994742  0.0  0.097862  0.074126  -0.000298  0.997442  -0.001
H  H20  1  0.48912622  0.96825656  0.71258550  1  0.064569  -0.000151  0.927815  0.0  0.074912  -0.000161  0.996418  0.0  0.075901  -4.9e-05  0.994955  0.0  0.097849  0.074077  -0.000297  0.997655  -0.001
H  H21  1  0.01087909  0.53178108  0.21258972  1  0.064615  -0.000151  0.927557  0.0  0.074962  -0.000161  0.99622  0.0  0.075948  -4.9e-05  0.994757  0.0  0.097856  0.074125  -0.000298  0.997455  -0.001
H  H22  1  0.58931530  0.84218407  0.30347039  1  0.076396  0.000401  0.958997  0.0  0.086517  0.000305  1.027436  0.0  0.086788  0.000355  1.027408  0.0  0.10031  0.086291  0.000219  1.027474  0.0
H  H23  1  0.91066444  0.65778108  0.80346027  1  0.076508  0.000402  0.959079  0.0  0.086701  0.000305  1.027457  0.0  0.086969  0.000355  1.027427  0.0  0.100402  0.086474  0.000219  1.027495  0.0
H  H24  1  0.41068883  0.15781516  0.69652861  1  0.076412  0.000401  0.958984  0.0  0.086549  0.000305  1.027424  0.0  0.08682  0.000355  1.027395  0.0  0.100326  0.086323  0.000219  1.027463  0.0
H  H25  1  0.08933457  0.34221952  0.19653873  1  0.076537  0.000401  0.959007  0.0  0.086736  0.000305  1.027382  0.0  0.087005  0.000355  1.027352  0.0  0.100417  0.086509  0.000219  1.027422  0.0
C  C26  1  0.65801611  0.17376309  0.54695684  1  0.057124  -0.000956  3.600391  -0.002  -0.002948  -0.001461  3.864766  -0.002  0.003914  -0.00092  3.870139  -0.002  -0.079224  -0.007952  -0.002039  3.861309  -0.003
C  C27  1  0.84197894  0.32623321  0.04696780  1  0.057274  -0.000958  3.600101  -0.002  -0.002516  -0.001463  3.864137  -0.002  0.004385  -0.000921  3.869453  -0.002  -0.079045  -0.007517  -0.00204  3.860681  -0.003
C  C28  1  0.34198735  0.82623472  0.45304215  1  0.057064  -0.000956  3.600448  -0.002  -0.003034  -0.001461  3.864769  -0.002  0.003845  -0.00092  3.870122  -0.002  -0.079231  -0.008039  -0.002039  3.861314  -0.003
C  C29  1  0.15801862  0.67376738  0.95303119  1  0.057294  -0.000958  3.600025  -0.002  -0.002482  -0.001462  3.864047  -0.002  0.004391  -0.000921  3.869396  -0.002  -0.079018  -0.007486  -0.00204  3.86059  -0.003
C  C30  1  0.53989210  0.93704696  0.36419760  1  0.054168  -0.000863  3.607678  -0.002  -0.005279  -0.001196  3.872358  -0.002  0.001904  -0.000718  3.877592  -0.002  -0.077476  -0.010226  -0.001756  3.868741  -0.003
C  C31  1  0.96008060  0.56291769  0.86419244  1  0.054101  -0.000864  3.607388  -0.002  -0.005612  -0.001196  3.872201  -0.002  0.001593  -0.000717  3.8774  -0.002  -0.07756  -0.010562  -0.001757  3.868589  -0.003
C  C32  1  0.46011059  0.06295226  0.63580140  1  0.054198  -0.000863  3.607625  -0.002  -0.005306  -0.001196  3.872363  -0.002  0.001883  -0.000718  3.8776  -0.002  -0.077481  -0.010255  -0.001756  3.868746  -0.003
C  C33  1  0.03991552  0.43708290  0.13580547  1  0.054045  -0.000863  3.607417  -0.002  -0.005674  -0.001197  3.872259  -0.002  0.001521  -0.000717  3.877456  -0.002  -0.077574  -0.010621  -0.001757  3.868648  -0.003
Cl  Cl34  1  0.96153376  0.03033644  0.76337334  1  -0.587525  -0.025092  0.989071  -0.042  -0.538216  -0.025874  1.254812  -0.034  -0.559807  -0.01982  1.229734  -0.027  -0.245792  -0.519207  -0.032398  1.272066  -0.044
Cl  Cl35  1  0.53845953  0.46966379  0.26336869  1  -0.587467  -0.025093  0.989051  -0.042  -0.538169  -0.025875  1.25474  -0.034  -0.559762  -0.019822  1.229667  -0.027  -0.245783  -0.519153  -0.0324  1.271997  -0.044
Cl  Cl36  1  0.03846882  0.96966558  0.23662784  1  -0.587509  -0.025092  0.989078  -0.042  -0.5382  -0.025875  1.254819  -0.034  -0.559789  -0.019819  1.229737  -0.027  -0.245781  -0.51919  -0.032398  1.272074  -0.044
Cl  Cl37  1  0.46154227  0.53033963  0.73663140  1  -0.587477  -0.025093  0.98907  -0.042  -0.538174  -0.025875  1.254785  -0.034  -0.559767  -0.019821  1.229712  -0.027  -0.245779  -0.519155  -0.0324  1.27205  -0.044
O  O38  1  0.82348110  0.70909625  0.51368811  1  -0.804573  -0.024842  2.004425  -0.034  -0.751186  -0.027732  2.207578  -0.034  -0.777307  -0.023897  2.173426  -0.028  -0.576749  -0.731648  -0.030859  2.232808  -0.039
O  O39  1  0.67653794  0.79090782  0.01369192  1  -0.804572  -0.02484  2.004309  -0.034  -0.751209  -0.027731  2.207394  -0.034  -0.777325  -0.023897  2.173233  -0.028  -0.576744  -0.731642  -0.030856  2.232683  -0.039
O  O40  1  0.17652013  0.29090296  0.48631307  1  -0.804565  -0.024841  2.004417  -0.034  -0.751207  -0.027731  2.207515  -0.034  -0.777327  -0.023896  2.173362  -0.028  -0.576755  -0.73166  -0.030858  2.232765  -0.039
O  O41  1  0.32346319  0.20909419  0.98630927  1  -0.804575  -0.02484  2.004309  -0.034  -0.751213  -0.02773  2.207381  -0.034  -0.77733  -0.023896  2.17322  -0.028  -0.576722  -0.731644  -0.030854  2.232669  -0.039
O  O42  1  0.71493930  0.04869014  0.45919674  1  -0.341733  -0.014205  2.376771  -0.027  -0.257045  -0.015827  2.636731  -0.027  -0.281057  -0.012873  2.638183  -0.022  -0.232212  -0.238768  -0.018989  2.634831  -0.032
O  O43  1  0.78503280  0.45130286  0.95921086  1  -0.341926  -0.01421  2.376699  -0.027  -0.257147  -0.01583  2.636547  -0.027  -0.281174  -0.012877  2.63798  -0.022  -0.232272  -0.238861  -0.018992  2.634648  -0.032
O  O44  1  0.28506193  0.95130907  0.54080335  1  -0.34171  -0.014205  2.376715  -0.027  -0.257  -0.015827  2.636675  -0.027  -0.281015  -0.012874  2.638124  -0.022  -0.232188  -0.238721  -0.018989  2.634775  -0.032
O  O45  1  0.21496120  0.54869632  0.04079033  1  -0.34185  -0.014208  2.376705  -0.027  -0.257095  -0.015829  2.636554  -0.027  -0.281115  -0.012876  2.637996  -0.022  -0.232255  -0.238811  -0.018991  2.634656  -0.032
