# generated using pymatgen
data_GdH11C16(NO7)2
_symmetry_space_group_name_H-M   'P 1'
_cell_length_a   9.12512982
_cell_length_b   10.05247758
_cell_length_c   12.82315950
_cell_angle_alpha   69.70966657
_cell_angle_beta   67.57549691
_cell_angle_gamma   68.51758590
_symmetry_Int_Tables_number   1
_chemical_formula_structural   GdH11C16(NO7)2
_chemical_formula_sum   'Gd2 H22 C32 N4 O28'
_cell_volume   982.03030705
_cell_formula_units_Z   2
loop_
 _symmetry_equiv_pos_site_id
 _symmetry_equiv_pos_as_xyz
  1  'x, y, z'
loop_
 _atom_site_type_symbol
 _atom_site_label
 _atom_site_symmetry_multiplicity
 _atom_site_fract_x
 _atom_site_fract_y
 _atom_site_fract_z
 _atom_site_occupancy
 _atom_site_hle17_bader_spin_density
 _atom_site_hle17_ddec_charge
 _atom_site_hle17_ddec_spin_density
 _atom_site_hle17_ddec_sum_bond_order
 _atom_site_hle17_magmom
 _atom_site_hse06_10hf_bader_spin_density
 _atom_site_hse06_10hf_ddec_charge
 _atom_site_hse06_10hf_ddec_spin_density
 _atom_site_hse06_10hf_ddec_sum_bond_order
 _atom_site_hse06_10hf_magmom
 _atom_site_hse06_bader_spin_density
 _atom_site_hse06_ddec_charge
 _atom_site_hse06_ddec_spin_density
 _atom_site_hse06_ddec_sum_bond_order
 _atom_site_hse06_magmom
 _atom_site_pbe_bader_spin_density
 _atom_site_pbe_cm5_charge
 _atom_site_pbe_ddec_charge
 _atom_site_pbe_ddec_spin_density
 _atom_site_pbe_ddec_sum_bond_order
 _atom_site_pbe_magmom
Gd  Gd0  1  0.69947588  0.52945830  0.53368592  1  0  2.224832  0  1.749502  0  0  2.133862  0  2.102424  0  0  2.186237  0  2.050286  0  0  1.473903  2.090808  0  2.147894  0
Gd  Gd1  1  0.30053213  0.47055575  0.46632270  1  0  2.224906  0  1.74942  0  0  2.133882  0  2.102405  0  0  2.186205  0  2.050348  0  0  1.473949  2.090833  0  2.147866  0
H  H2  1  0.38361137  0.78175278  0.75960486  1  0  0.41479  0  0.837516  0  0  0.384747  0  0.915841  0  0  0.39706  0  0.901535  0  0  0.316839  0.376042  0  0.925915  0
H  H3  1  0.61638491  0.21821089  0.24041639  1  0  0.414919  0  0.837476  0  0  0.384891  0  0.915787  0  0  0.397199  0  0.901492  0  0  0.316866  0.376179  0  0.925883  0
H  H4  1  0.89003238  0.48075241  0.69407907  1  0  0.439336  0  0.85813  0  0  0.408583  0  0.922467  0  0  0.419315  0  0.906722  0  0  0.302912  0.400929  0  0.933662  0
H  H5  1  0.10997388  0.51926369  0.30592552  1  0  0.439314  0  0.858134  0  0  0.408554  0  0.922495  0  0  0.419286  0  0.906746  0  0  0.302874  0.400899  0  0.933691  0
H  H6  1  0.72181612  0.59262709  0.73934280  1  0  0.437277  0  0.84917  0  0  0.411985  0  0.902549  0  0  0.42123  0  0.88881  0  0  0.313333  0.405506  0  0.912183  0
H  H7  1  0.27819193  0.40739115  0.26065682  1  0  0.437403  0  0.849023  0  0  0.412067  0  0.902475  0  0  0.421319  0  0.888725  0  0  0.313356  0.405588  0  0.912114  0
H  H8  1  0.49528687  0.31807440  0.69094614  1  0  0.447224  0  0.851115  0  0  0.417216  0  0.912088  0  0  0.4278  0  0.896772  0  0  0.305491  0.409749  0  0.92283  0
H  H9  1  0.50470730  0.68195610  0.30906608  1  0  0.447323  0  0.850958  0  0  0.417283  0  0.911991  0  0  0.427866  0  0.896677  0  0  0.305526  0.409817  0  0.922736  0
H  H10  1  0.60677646  0.31317079  0.76662674  1  0  0.454538  0  0.823834  0  0  0.424815  0  0.883759  0  0  0.435583  0  0.867609  0  0  0.314231  0.417071  0  0.89536  0
H  H11  1  0.39323983  0.68683322  0.23337478  1  0  0.454521  0  0.82384  0  0  0.424784  0  0.883775  0  0  0.435544  0  0.867634  0  0  0.314293  0.417039  0  0.895379  0
H  H12  1  0.31762694  0.99640556  0.55114593  1  0  0.132731  0  0.910589  0  0  0.141247  0  0.968863  0  0  0.145658  0  0.964952  0  0  0.124502  0.137943  0  0.972054  0
H  H13  1  0.68239526  0.00360960  0.44884779  1  0  0.132776  0  0.910597  0  0  0.141202  0  0.968978  0  0  0.145613  0  0.965064  0  0  0.124508  0.137894  0  0.972173  0
H  H14  1  0.78886224  0.13865271  0.64102721  1  0  0.130227  0  0.963218  0  0  0.129939  0  1.039583  0  0  0.134975  0  1.034467  0  0  0.121574  0.126227  0  1.043237  0
H  H15  1  0.21117128  0.86135029  0.35896000  1  0  0.130188  0  0.963168  0  0  0.129926  0  1.039507  0  0  0.134965  0  1.034384  0  0  0.121564  0.126213  0  1.04317  0
H  H16  1  0.03989503  0.67344423  0.69294960  1  0  0.137714  0  0.953824  0  0  0.140439  0  1.02285  0  0  0.144935  0  1.019271  0  0  0.122476  0.137204  0  1.025405  0
H  H17  1  0.96011378  0.32656076  0.30705514  1  0  0.137635  0  0.954037  0  0  0.140396  0  1.023011  0  0  0.144885  0  1.019442  0  0  0.122481  0.137193  0  1.02553  0
H  H18  1  0.08474887  0.58831620  0.11852936  1  0  0.122654  0  0.929031  0  0  0.12952  0  0.993116  0  0  0.133738  0  0.988985  0  0  0.120418  0.126436  0  0.996054  0
H  H19  1  0.91520499  0.41164213  0.88147394  1  0  0.122692  0  0.928944  0  0  0.129483  0  0.993117  0  0  0.133705  0  0.988989  0  0  0.120398  0.126397  0  0.996056  0
H  H20  1  0.98839770  0.97806252  0.84785541  1  0  0.121736  0  0.955614  0  0  0.124773  0  1.027886  0  0  0.128105  0  1.025967  0  0  0.114008  0.122349  0  1.029276  0
H  H21  1  0.01158687  0.02190328  0.15213940  1  0  0.121747  0  0.955502  0  0  0.124805  0  1.027809  0  0  0.12814  0  1.025884  0  0  0.114031  0.122374  0  1.029196  0
H  H22  1  0.61533716  0.91641980  0.17718263  1  0  0.134975  0  0.952203  0  0  0.134031  0  1.027282  0  0  0.13889  0  1.022056  0  0  0.119334  0.130544  0  1.031005  0
H  H23  1  0.38466203  0.08359696  0.82281502  1  0  0.135022  0  0.952007  0  0  0.134012  0  1.027182  0  0  0.138862  0  1.021968  0  0  0.119366  0.130524  0  1.030904  0
C  C24  1  0.19586943  0.82223960  0.61955266  1  0  -0.053808  0  3.727843  0  0  -0.025936  0  3.96277  0  0  -0.036046  0  3.984632  0  0  -0.002932  -0.019689  0  3.948665  0
C  C25  1  0.80414504  0.17776991  0.38044778  1  0  -0.053711  0  3.727605  0  0  -0.025853  0  3.962559  0  0  -0.035965  0  3.984409  0  0  -0.002851  -0.019609  0  3.948462  0
C  C26  1  0.20030637  0.96921266  0.58542672  1  0  -0.018715  0  3.621429  0  0  -0.064945  0  3.876157  0  0  -0.059041  0  3.890922  0  0  -0.052993  -0.069097  0  3.867157  0
C  C27  1  0.79970768  0.03079800  0.41457505  1  0  -0.018563  0  3.621401  0  0  -0.064648  0  3.876145  0  0  -0.058737  0  3.890903  0  0  -0.052907  -0.068799  0  3.867139  0
C  C28  1  0.05463102  0.08322705  0.59118587  1  0  -0.072636  0  3.726483  0  0  -0.043703  0  3.95773  0  0  -0.054786  0  3.981241  0  0  -0.009571  -0.037058  0  3.942496  0
C  C29  1  0.94538749  0.91678474  0.40881131  1  0  -0.072862  0  3.7266  0  0  -0.044157  0  3.958041  0  0  -0.055252  0  3.981559  0  0  -0.009714  -0.037504  0  3.942818  0
C  C30  1  0.90292417  0.05056034  0.63601954  1  0  -0.077279  0  3.687416  0  0  -0.117845  0  3.94668  0  0  -0.113539  0  3.964093  0  0  -0.061576  -0.119642  0  3.934361  0
C  C31  1  0.09709997  0.94944581  0.36397076  1  0  -0.077086  0  3.687075  0  0  -0.117571  0  3.946304  0  0  -0.113261  0  3.963719  0  0  -0.06148  -0.119352  0  3.933932  0
C  C32  1  0.90176195  0.90312151  0.67474473  1  0  0.047622  0  3.721997  0  0  0.042642  0  3.986507  0  0  0.036276  0  4.010523  0  0  0.07632  0.046564  0  3.970295  0
C  C33  1  0.09826451  0.09688472  0.32524574  1  0  0.047391  0  3.72232  0  0  0.042374  0  3.986879  0  0  0.036  0  4.010893  0  0  0.076124  0.0463  0  3.970676  0
C  C34  1  0.04542830  0.78726354  0.66614717  1  0  -0.078375  0  3.647427  0  0  -0.118974  0  3.90461  0  0  -0.114629  0  3.920829  0  0  -0.059901  -0.121979  0  3.894114  0
C  C35  1  0.95458965  0.21273931  0.33385114  1  0  -0.07836  0  3.647409  0  0  -0.118969  0  3.904647  0  0  -0.114625  0  3.920881  0  0  -0.059903  -0.121999  0  3.894128  0
C  C36  1  0.35571999  0.70583471  0.60169948  1  0  0.699646  0  3.851873  0  0  0.651465  0  4.14455  0  0  0.686523  0  4.135383  0  0  0.230497  0.627755  0  4.149423  0
C  C37  1  0.64428743  0.29417464  0.39830283  1  0  0.699661  0  3.851608  0  0  0.651414  0  4.144374  0  0  0.686474  0  4.135201  0  0  0.230392  0.627705  0  4.149246  0
C  C38  1  0.06252795  0.24059932  0.54537495  1  0  0.725191  0  3.862543  0  0  0.677665  0  4.154147  0  0  0.712663  0  4.14493  0  0  0.236662  0.654126  0  4.158856  0
C  C39  1  0.93749632  0.75941610  0.45462517  1  0  0.72485  0  3.862952  0  0  0.677562  0  4.154187  0  0  0.712567  0  4.14496  0  0  0.236616  0.654003  0  4.158936  0
C  C40  1  0.84559012  0.74389946  0.16213538  1  0  -0.051834  0  3.707922  0  0  -0.023497  0  3.940811  0  0  -0.034668  0  3.963594  0  0  -0.00528  -0.016973  0  3.926223  0
C  C41  1  0.15439155  0.25609554  0.83786516  1  0  -0.051874  0  3.707826  0  0  -0.02345  0  3.940595  0  0  -0.034656  0  3.963412  0  0  -0.00521  -0.016917  0  3.92599  0
C  C42  1  0.00151554  0.69266295  0.08839769  1  0  -0.009157  0  3.609685  0  0  -0.052356  0  3.857491  0  0  -0.046257  0  3.873128  0  0  -0.044338  -0.055703  0  3.846599  0
C  C43  1  0.99845068  0.30730800  0.91160196  1  0  -0.009324  0  3.609736  0  0  -0.052489  0  3.857513  0  0  -0.046394  0  3.873182  0  0  -0.044391  -0.055833  0  3.846614  0
C  C44  1  0.05379062  0.77611879  0.97535813  1  0  -0.059168  0  3.740383  0  0  -0.034535  0  3.981012  0  0  -0.045746  0  4.005283  0  0  -0.008363  -0.027387  0  3.964351  0
C  C45  1  0.94617522  0.22384307  0.02463795  1  0  -0.059243  0  3.740647  0  0  -0.034541  0  3.981076  0  0  -0.045772  0  4.005347  0  0  -0.008392  -0.027393  0  3.964419  0
C  C46  1  0.94873188  0.91011245  0.93458120  1  0  -0.082158  0  3.674096  0  0  -0.123632  0  3.933927  0  0  -0.119505  0  3.953137  0  0  -0.065568  -0.125701  0  3.92053  0
C  C47  1  0.05125759  0.08986691  0.06541240  1  0  -0.082008  0  3.674081  0  0  -0.123557  0  3.933859  0  0  -0.119429  0  3.953065  0  0  -0.065558  -0.125617  0  3.920458  0
C  C48  1  0.79021881  0.95450015  0.00724672  1  0  0.065072  0  3.693476  0  0  0.0601  0  3.955859  0  0  0.054202  0  3.978472  0  0  0.079597  0.063493  0  3.940634  0
C  C49  1  0.20977012  0.04548126  0.99274175  1  0  0.064905  0  3.693391  0  0  0.059967  0  3.955789  0  0  0.054064  0  3.978396  0  0  0.079597  0.063359  0  3.940569  0
C  C50  1  0.73693102  0.87492831  0.12088684  1  0  -0.047778  0  3.623669  0  0  -0.089106  0  3.879756  0  0  -0.08292  0  3.893625  0  0  -0.052873  -0.09281  0  3.870721  0
C  C51  1  0.26305289  0.12506426  0.87910523  1  0  -0.047629  0  3.623378  0  0  -0.08897  0  3.87953  0  0  -0.082756  0  3.893389  0  0  -0.052879  -0.09268  0  3.870495  0
C  C52  1  0.79489462  0.66175221  0.28588083  1  0  0.665211  0  3.8803  0  0  0.614011  0  4.172266  0  0  0.648048  0  4.165858  0  0  0.216135  0.591261  0  4.175342  0
C  C53  1  0.20508543  0.33827876  0.71412554  1  0  0.665157  0  3.879986  0  0  0.61391  0  4.171993  0  0  0.647957  0  4.165583  0  0  0.216003  0.591156  0  4.17507  0
C  C54  1  0.22015141  0.71615764  0.89827056  1  0  0.639131  0  3.829275  0  0  0.590151  0  4.131045  0  0  0.621537  0  4.12533  0  0  0.225182  0.568715  0  4.134515  0
C  C55  1  0.77980578  0.28379918  0.10171670  1  0  0.639495  0  3.829257  0  0  0.590668  0  4.130751  0  0  0.622097  0  4.124957  0  0  0.225317  0.569222  0  4.134252  0
N  N56  1  0.74277086  0.86845207  0.72132886  1  0  0.511124  0  3.873376  0  0  0.533954  0  4.177326  0  0  0.555188  0  4.186043  0  0  0.059672  0.519756  0  4.171527  0
N  N57  1  0.25724479  0.13155748  0.27867126  1  0  0.511422  0  3.873592  0  0  0.534279  0  4.177471  0  0  0.55552  0  4.186186  0  0  0.05993  0.520076  0  4.171675  0
N  N58  1  0.67560486  0.09080734  0.96291945  1  0  0.506655  0  3.88368  0  0  0.532422  0  4.183822  0  0  0.553791  0  4.192422  0  0  0.060986  0.518173  0  4.178005  0
N  N59  1  0.32439118  0.90919122  0.03707247  1  0  0.506457  0  3.884209  0  0  0.532225  0  4.184338  0  0  0.553596  0  4.192936  0  0  0.060829  0.517971  0  4.178528  0
O  O60  1  0.47205043  0.71385875  0.62925220  1  0  -0.669234  0  1.991231  0  0  -0.623578  0  2.222654  0  0  -0.648353  0  2.211012  0  0  -0.344666  -0.605903  0  2.230055  0
O  O61  1  0.52795687  0.28613967  0.37075869  1  0  -0.669329  0  1.991188  0  0  -0.623554  0  2.222545  0  0  -0.648339  0  2.210937  0  0  -0.344601  -0.605859  0  2.22991  0
O  O62  1  0.37670431  0.60454478  0.55493478  1  0  -0.754669  0  2.101529  0  0  -0.71385  0  2.358093  0  0  -0.740846  0  2.348847  0  0  -0.383053  -0.693836  0  2.36361  0
O  O63  1  0.62330856  0.39546585  0.44506731  1  0  -0.754701  0  2.101419  0  0  -0.713918  0  2.358115  0  0  -0.740915  0  2.348869  0  0  -0.382996  -0.693905  0  2.363631  0
O  O64  1  0.20293177  0.26316677  0.51057967  1  0  -0.705837  0  2.0633  0  0  -0.669103  0  2.314973  0  0  -0.6945  0  2.305414  0  0  -0.381289  -0.650281  0  2.32071  0
O  O65  1  0.79708475  0.73684645  0.48942932  1  0  -0.70558  0  2.063236  0  0  -0.668902  0  2.31475  0  0  -0.694313  0  2.305194  0  0  -0.381184  -0.650051  0  2.320447  0
O  O66  1  0.92859333  0.34013096  0.54281555  1  0  -0.737589  0  2.10608  0  0  -0.69566  0  2.376383  0  0  -0.721423  0  2.363467  0  0  -0.414698  -0.676359  0  2.384038  0
O  O67  1  0.07142157  0.65988081  0.45718492  1  0  -0.737522  0  2.106401  0  0  -0.695645  0  2.376562  0  0  -0.721401  0  2.363641  0  0  -0.414759  -0.676343  0  2.38423  0
O  O68  1  0.62232643  0.96548354  0.69581405  1  0  -0.327717  0  1.739437  0  0  -0.3052  0  1.942041  0  0  -0.316928  0  1.938197  0  0  -0.103242  -0.297461  0  1.944945  0
O  O69  1  0.37768732  0.03452056  0.30419279  1  0  -0.327827  0  1.739286  0  0  -0.305354  0  1.941904  0  0  -0.317088  0  1.938058  0  0  -0.103354  -0.297611  0  1.944807  0
O  O70  1  0.73871981  0.74233737  0.78339961  1  0  -0.36841  0  1.771809  0  0  -0.343068  0  1.972538  0  0  -0.355187  0  1.965937  0  0  -0.119921  -0.335132  0  1.977351  0
O  O71  1  0.26129675  0.25766902  0.21660585  1  0  -0.368502  0  1.771949  0  0  -0.343121  0  1.972672  0  0  -0.355234  0  1.966053  0  0  -0.119993  -0.335193  0  1.977498  0
O  O72  1  0.90005136  0.55512841  0.33012802  1  0  -0.688881  0  2.060812  0  0  -0.637294  0  2.295905  0  0  -0.663537  0  2.286984  0  0  -0.337178  -0.618467  0  2.301068  0
O  O73  1  0.09992315  0.44489453  0.66987816  1  0  -0.68894  0  2.060783  0  0  -0.637262  0  2.295803  0  0  -0.663491  0  2.28686  0  0  -0.337117  -0.618438  0  2.300976  0
O  O74  1  0.64624930  0.70103664  0.34806890  1  0  -0.675021  0  2.037689  0  0  -0.622452  0  2.263238  0  0  -0.648324  0  2.254598  0  0  -0.345657  -0.603842  0  2.268294  0
O  O75  1  0.35373943  0.29900275  0.65194688  1  0  -0.674865  0  2.03755  0  0  -0.622395  0  2.26321  0  0  -0.648258  0  2.254565  0  0  -0.345681  -0.603774  0  2.268253  0
O  O76  1  0.28292612  0.58429965  0.90457373  1  0  -0.508681  0  1.854439  0  0  -0.474573  0  2.039423  0  0  -0.492854  0  2.033166  0  0  -0.286489  -0.462083  0  2.043731  0
O  O77  1  0.71700166  0.41564611  0.09537824  1  0  -0.508821  0  1.854418  0  0  -0.474765  0  2.039348  0  0  -0.493019  0  2.033008  0  0  -0.286503  -0.46227  0  2.043666  0
O  O78  1  0.28830622  0.82389048  0.82150488  1  0  -0.559321  0  2.100002  0  0  -0.512999  0  2.325077  0  0  -0.535747  0  2.312635  0  0  -0.334916  -0.496911  0  2.333319  0
O  O79  1  0.71169420  0.17606015  0.17852446  1  0  -0.559528  0  2.100194  0  0  -0.513396  0  2.325346  0  0  -0.536164  0  2.312878  0  0  -0.335038  -0.497302  0  2.333597  0
O  O80  1  0.73335596  0.16929441  0.86612032  1  0  -0.38495  0  1.782063  0  0  -0.35216  0  1.984276  0  0  -0.368036  0  1.981072  0  0  -0.121822  -0.34173  0  1.986796  0
O  O81  1  0.26664861  0.83069308  0.13386707  1  0  -0.384772  0  1.78216  0  0  -0.352088  0  1.984431  0  0  -0.36797  0  1.981242  0  0  -0.121761  -0.341635  0  1.986923  0
O  O82  1  0.53001720  0.12055732  0.02139025  1  0  -0.325396  0  1.764523  0  0  -0.319887  0  1.975984  0  0  -0.330453  0  1.972389  0  0  -0.114768  -0.312769  0  1.978612  0
O  O83  1  0.46998107  0.87946519  0.97861303  1  0  -0.325399  0  1.764834  0  0  -0.31979  0  1.976217  0  0  -0.330355  0  1.972623  0  0  -0.114676  -0.312675  0  1.978847  0
O  O84  1  0.76977437  0.50758952  0.70466362  1  0  -0.88053  0  1.865601  0  0  -0.841231  0  2.042535  0  0  -0.860962  0  2.012714  0  0  -0.631247  -0.826536  0  2.063202  0
O  O85  1  0.23022807  0.49241993  0.29534697  1  0  -0.880567  0  1.865494  0  0  -0.84126  0  2.042473  0  0  -0.860987  0  2.012655  0  0  -0.631192  -0.826565  0  2.063142  0
O  O86  1  0.58275047  0.35434772  0.69164653  1  0  -0.920611  0  1.893774  0  0  -0.877987  0  2.083997  0  0  -0.897468  0  2.050848  0  0  -0.651746  -0.863334  0  2.107185  0
O  O87  1  0.41725700  0.64567179  0.30835834  1  0  -0.920705  0  1.893708  0  0  -0.878019  0  2.083981  0  0  -0.897481  0  2.050839  0  0  -0.651867  -0.863383  0  2.107182  0
