# generated using pymatgen
data_CaH10C10N2O5
_symmetry_space_group_name_H-M   'P 1'
_cell_length_a   6.45274451
_cell_length_b   10.78617099
_cell_length_c   16.34614780
_cell_angle_alpha   89.99986355
_cell_angle_beta   99.81864842
_cell_angle_gamma   89.99962665
_symmetry_Int_Tables_number   1
_chemical_formula_structural   CaH10C10N2O5
_chemical_formula_sum   'Ca4 H40 C40 N8 O20'
_cell_volume   1121.03401822
_cell_formula_units_Z   4
loop_
 _symmetry_equiv_pos_site_id
 _symmetry_equiv_pos_as_xyz
  1  'x, y, z'
loop_
 _atom_site_type_symbol
 _atom_site_label
 _atom_site_symmetry_multiplicity
 _atom_site_fract_x
 _atom_site_fract_y
 _atom_site_fract_z
 _atom_site_occupancy
 _atom_site_hle17_bader_spin_density
 _atom_site_hle17_ddec_charge
 _atom_site_hle17_ddec_spin_density
 _atom_site_hle17_ddec_sum_bond_order
 _atom_site_hle17_magmom
 _atom_site_hse06_10hf_bader_spin_density
 _atom_site_hse06_10hf_ddec_charge
 _atom_site_hse06_10hf_ddec_spin_density
 _atom_site_hse06_10hf_ddec_sum_bond_order
 _atom_site_hse06_10hf_magmom
 _atom_site_hse06_bader_spin_density
 _atom_site_hse06_ddec_charge
 _atom_site_hse06_ddec_spin_density
 _atom_site_hse06_ddec_sum_bond_order
 _atom_site_hse06_magmom
 _atom_site_pbe_bader_spin_density
 _atom_site_pbe_cm5_charge
 _atom_site_pbe_ddec_charge
 _atom_site_pbe_ddec_spin_density
 _atom_site_pbe_ddec_sum_bond_order
 _atom_site_pbe_magmom
Ca  Ca0  1  0.75778865  0.07102178  0.04922880  1  0  1.505576  0  1.15553  0  0  1.36332  0  1.512096  0  0  1.41032  0  1.466138  0  0  0.875628  1.328217  0  1.544602  0
Ca  Ca1  1  0.74221236  0.57101964  0.45077204  1  0  1.505507  0  1.155575  0  0  1.363291  0  1.512112  0  0  1.410283  0  1.466165  0  0  0.875598  1.328188  0  1.544623  0
Ca  Ca2  1  0.24221280  0.92897806  0.95077127  1  0  1.505522  0  1.155585  0  0  1.363342  0  1.512018  0  0  1.410333  0  1.466067  0  0  0.875606  1.328227  0  1.544507  0
Ca  Ca3  1  0.25778908  0.42897834  0.54923048  1  0  1.505523  0  1.155557  0  0  1.363337  0  1.512031  0  0  1.410328  0  1.466081  0  0  0.875627  1.32824  0  1.544529  0
H  H4  1  0.45696719  0.29467693  0.23386788  1  0  0.113607  0  0.986727  0  0  0.120289  0  1.051549  0  0  0.124911  0  1.047716  0  0  0.108905  0.116823  0  1.054655  0
H  H5  1  0.04302454  0.79467254  0.26613109  1  0  0.113636  0  0.986726  0  0  0.120296  0  1.051561  0  0  0.124918  0  1.047729  0  0  0.108894  0.116826  0  1.054666  0
H  H6  1  0.54303741  0.70532754  0.76613119  1  0  0.113691  0  0.986595  0  0  0.120337  0  1.05145  0  0  0.12496  0  1.047616  0  0  0.108958  0.116868  0  1.054559  0
H  H7  1  0.95698163  0.20532823  0.73386869  1  0  0.113592  0  0.98677  0  0  0.120268  0  1.051587  0  0  0.124892  0  1.04775  0  0  0.10889  0.116806  0  1.054695  0
H  H8  1  0.71145561  0.21169796  0.23362788  1  0  0.076868  0  0.987246  0  0  0.081796  0  1.059829  0  0  0.085432  0  1.055805  0  0  0.117504  0.078913  0  1.063159  0
H  H9  1  0.78854689  0.71169817  0.26636978  1  0  0.076755  0  0.98717  0  0  0.081726  0  1.059751  0  0  0.085367  0  1.055722  0  0  0.117493  0.078836  0  1.06309  0
H  H10  1  0.28855056  0.78830930  0.76637006  1  0  0.076857  0  0.987234  0  0  0.081865  0  1.059724  0  0  0.08549  0  1.055714  0  0  0.117565  0.078999  0  1.063034  0
H  H11  1  0.21146399  0.28830074  0.73363399  1  0  0.076714  0  0.987202  0  0  0.081693  0  1.059769  0  0  0.085324  0  1.055749  0  0  0.117487  0.078806  0  1.063107  0
H  H12  1  0.29266669  0.38744027  0.34549864  1  0  0.114933  0  0.950174  0  0  0.123392  0  1.013382  0  0  0.12689  0  1.010718  0  0  0.123848  0.120847  0  1.015367  0
H  H13  1  0.20732393  0.88744770  0.15450317  1  0  0.11496  0  0.950012  0  0  0.123388  0  1.013268  0  0  0.126886  0  1.010604  0  0  0.123812  0.120841  0  1.015248  0
H  H14  1  0.70734105  0.61255771  0.65450125  1  0  0.114957  0  0.950146  0  0  0.123404  0  1.013364  0  0  0.126902  0  1.0107  0  0  0.123833  0.120852  0  1.015349  0
H  H15  1  0.79268381  0.11255214  0.84549733  1  0  0.114953  0  0.950038  0  0  0.123372  0  1.01329  0  0  0.12687  0  1.010626  0  0  0.123791  0.120831  0  1.015271  0
H  H16  1  0.09235261  0.26678600  0.95116994  1  0  0.04562  0  0.932679  0  0  0.053224  0  1.004284  0  0  0.055143  0  0.999497  0  0  0.130901  0.051668  0  1.007804  0
H  H17  1  0.40763075  0.76678653  0.54882897  1  0  0.045641  0  0.932927  0  0  0.053288  0  1.0045  0  0  0.055199  0  0.999727  0  0  0.130978  0.051743  0  1.008011  0
H  H18  1  0.90761896  0.73320550  0.04882750  1  0  0.045579  0  0.932784  0  0  0.053217  0  1.004365  0  0  0.055133  0  0.999585  0  0  0.130919  0.05166  0  1.00788  0
H  H19  1  0.59235654  0.23320867  0.45117381  1  0  0.045725  0  0.932737  0  0  0.053332  0  1.004318  0  0  0.055251  0  0.999533  0  0  0.130967  0.051778  0  1.007834  0
H  H20  1  0.75514752  0.58855325  0.92142502  1  0  0.094504  0  0.9529  0  0  0.115158  0  1.017483  0  0  0.114761  0  1.018366  0  0  0.104101  0.11528  0  1.016978  0
H  H21  1  0.74485561  0.08854049  0.57857029  1  0  0.094581  0  0.952829  0  0  0.115214  0  1.017443  0  0  0.114817  0  1.018323  0  0  0.104135  0.115338  0  1.016944  0
H  H22  1  0.24487439  0.41145957  0.07856726  1  0  0.094574  0  0.952915  0  0  0.115158  0  1.017579  0  0  0.114762  0  1.018462  0  0  0.104112  0.115291  0  1.017079  0
H  H23  1  0.25513955  0.91145471  0.42142997  1  0  0.094571  0  0.952888  0  0  0.115179  0  1.017529  0  0  0.114785  0  1.018411  0  0  0.104105  0.115306  0  1.017031  0
H  H24  1  0.63079173  0.45101714  0.95185037  1  0  0.11248  0  0.941028  0  0  0.131779  0  1.001799  0  0  0.133965  0  0.999737  0  0  0.112913  0.130036  0  1.003478  0
H  H25  1  0.86920395  0.95100021  0.54814754  1  0  0.112429  0  0.94104  0  0  0.131748  0  1.001785  0  0  0.133933  0  0.999729  0  0  0.112902  0.130006  0  1.003464  0
H  H26  1  0.36919715  0.54900402  0.04814274  1  0  0.11256  0  0.940943  0  0  0.131861  0  1.001689  0  0  0.13405  0  0.99963  0  0  0.112942  0.130132  0  1.003362  0
H  H27  1  0.13078806  0.04899128  0.45185311  1  0  0.112473  0  0.940967  0  0  0.131764  0  1.001745  0  0  0.133951  0  0.999686  0  0  0.112894  0.130036  0  1.003416  0
H  H28  1  0.62720150  0.48519629  0.84408796  1  0  0.101672  0  0.927053  0  0  0.126047  0  0.983383  0  0  0.125435  0  0.985312  0  0  0.10648  0.126318  0  0.982188  0
H  H29  1  0.87279849  0.98518267  0.65590897  1  0  0.101723  0  0.926947  0  0  0.126045  0  0.983353  0  0  0.125432  0  0.985285  0  0  0.106536  0.126341  0  0.982143  0
H  H30  1  0.37281255  0.51481745  0.15590440  1  0  0.101728  0  0.927005  0  0  0.126043  0  0.983413  0  0  0.125431  0  0.985344  0  0  0.106486  0.126333  0  0.982207  0
H  H31  1  0.12719509  0.01480976  0.34409241  1  0  0.101644  0  0.927055  0  0  0.126018  0  0.983375  0  0  0.125406  0  0.985305  0  0  0.10651  0.126302  0  0.982181  0
H  H32  1  0.99060801  0.45980761  0.79359490  1  0  0.097628  0  0.949379  0  0  0.115188  0  1.017126  0  0  0.114458  0  1.019737  0  0  0.101516  0.11558  0  1.01544  0
H  H33  1  0.50939228  0.95980820  0.70640392  1  0  0.09766  0  0.949389  0  0  0.115206  0  1.017144  0  0  0.114472  0  1.019759  0  0  0.101531  0.115598  0  1.01545  0
H  H34  1  0.00940602  0.54018759  0.20640663  1  0  0.097752  0  0.949319  0  0  0.115287  0  1.017067  0  0  0.114555  0  1.019682  0  0  0.101541  0.115667  0  1.015396  0
H  H35  1  0.49059186  0.04019164  0.29359682  1  0  0.09767  0  0.949412  0  0  0.115198  0  1.017191  0  0  0.11446  0  1.019808  0  0  0.101515  0.115581  0  1.015506  0
H  H36  1  0.19740898  0.39546553  0.86773228  1  0  0.098537  0  0.948604  0  0  0.118758  0  1.013047  0  0  0.11903  0  1.013314  0  0  0.109147  0.118401  0  1.013045  0
H  H37  1  0.30258700  0.89546895  0.63226790  1  0  0.098503  0  0.948676  0  0  0.118775  0  1.013056  0  0  0.119045  0  1.013322  0  0  0.109174  0.118422  0  1.013052  0
H  H38  1  0.80259717  0.60452504  0.13227362  1  0  0.098566  0  0.94862  0  0  0.118798  0  1.013012  0  0  0.119069  0  1.013278  0  0  0.10916  0.118439  0  1.013006  0
H  H39  1  0.69739872  0.10452811  0.36772988  1  0  0.098587  0  0.948551  0  0  0.118804  0  1.012983  0  0  0.119076  0  1.013248  0  0  0.109185  0.118446  0  1.012981  0
H  H40  1  0.12157397  0.55376372  0.87688653  1  0  0.111658  0  0.937747  0  0  0.130902  0  0.998385  0  0  0.131716  0  0.998772  0  0  0.107637  0.130239  0  0.998238  0
H  H41  1  0.37842765  0.05376419  0.62311028  1  0  0.111597  0  0.937775  0  0  0.13084  0  0.998437  0  0  0.131652  0  0.998824  0  0  0.107597  0.13017  0  0.998294  0
H  H42  1  0.87843848  0.44623241  0.12311612  1  0  0.111684  0  0.937735  0  0  0.130898  0  0.998418  0  0  0.13171  0  0.998806  0  0  0.107618  0.130218  0  0.998276  0
H  H43  1  0.62155650  0.94623565  0.37688618  1  0  0.111649  0  0.93786  0  0  0.130902  0  0.998488  0  0  0.131714  0  0.998874  0  0  0.107644  0.130237  0  0.998345  0
C  C44  1  0.98820234  0.30564166  0.30012877  1  0  -0.099693  0  3.724003  0  0  -0.073684  0  3.958135  0  0  -0.082644  0  3.977755  0  0  -0.005058  -0.06816  0  3.94517  0
C  C45  1  0.51178646  0.80564134  0.19986905  1  0  -0.100002  0  3.724321  0  0  -0.073808  0  3.958241  0  0  -0.082765  0  3.977866  0  0  -0.005128  -0.068269  0  3.945241  0
C  C46  1  0.01180068  0.69436096  0.69987080  1  0  -0.099662  0  3.724182  0  0  -0.073627  0  3.958251  0  0  -0.082586  0  3.977871  0  0  -0.00502  -0.068093  0  3.945282  0
C  C47  1  0.48821813  0.19435664  0.80013246  1  0  -0.099937  0  3.724358  0  0  -0.073909  0  3.958484  0  0  -0.082869  0  3.978105  0  0  -0.005164  -0.068369  0  3.945496  0
C  C48  1  0.17392518  0.19787957  0.17795849  1  0  0.084465  0  3.748462  0  0  0.088081  0  3.996075  0  0  0.0898  0  4.013406  0  0  0.115782  0.086762  0  3.984527  0
C  C49  1  0.32606925  0.69787479  0.32204388  1  0  0.084381  0  3.748578  0  0  0.087883  0  3.996377  0  0  0.089603  0  4.013709  0  0  0.115766  0.086574  0  3.984831  0
C  C50  1  0.82607626  0.80212584  0.82204097  1  0  0.084359  0  3.748681  0  0  0.087901  0  3.996346  0  0  0.089622  0  4.013676  0  0  0.11573  0.086589  0  3.984787  0
C  C51  1  0.67393219  0.30212690  0.67795803  1  0  0.084449  0  3.748785  0  0  0.087966  0  3.996521  0  0  0.089684  0  4.013857  0  0  0.115797  0.086662  0  3.984956  0
C  C52  1  0.29353273  0.27476657  0.23665638  1  0  -0.118427  0  3.719317  0  0  -0.141727  0  3.975988  0  0  -0.145996  0  3.993893  0  0  -0.079775  -0.138947  0  3.964257  0
C  C53  1  0.20646866  0.77475783  0.26334633  1  0  -0.118443  0  3.719645  0  0  -0.14165  0  3.976318  0  0  -0.145921  0  3.99423  0  0  -0.079742  -0.138889  0  3.964583  0
C  C54  1  0.70647658  0.72524254  0.76334484  1  0  -0.118473  0  3.71945  0  0  -0.141714  0  3.976115  0  0  -0.145983  0  3.994021  0  0  -0.079798  -0.138951  0  3.964391  0
C  C55  1  0.79354064  0.22524200  0.73665549  1  0  -0.118272  0  3.719406  0  0  -0.141526  0  3.976048  0  0  -0.145795  0  3.99396  0  0  -0.079619  -0.138751  0  3.964321  0
C  C56  1  0.87864669  0.23017128  0.23743746  1  0  0.116015  0  3.693903  0  0  0.078775  0  3.948659  0  0  0.086038  0  3.963041  0  0  0.057248  0.074161  0  3.939084  0
C  C57  1  0.62134300  0.73017494  0.26256175  1  0  0.11609  0  3.694048  0  0  0.078752  0  3.94877  0  0  0.086009  0  3.963156  0  0  0.057218  0.074138  0  3.939204  0
C  C58  1  0.12135948  0.76982856  0.76256048  1  0  0.115942  0  3.693987  0  0  0.078653  0  3.948709  0  0  0.085922  0  3.963099  0  0  0.057189  0.07402  0  3.939143  0
C  C59  1  0.37865844  0.26982861  0.73744077  1  0  0.116331  0  3.693621  0  0  0.079035  0  3.948383  0  0  0.086303  0  3.962768  0  0  0.057318  0.074408  0  3.938813  0
C  C60  1  0.20105280  0.32765009  0.29913753  1  0  -0.015573  0  3.676941  0  0  -0.046046  0  3.930067  0  0  -0.041756  0  3.945684  0  0  -0.058417  -0.048602  0  3.919497  0
C  C61  1  0.29892751  0.82765327  0.20086612  1  0  -0.015416  0  3.676984  0  0  -0.045954  0  3.930075  0  0  -0.041663  0  3.945695  0  0  -0.058332  -0.048522  0  3.919487  0
C  C62  1  0.79894864  0.67234790  0.70086437  1  0  -0.015553  0  3.676851  0  0  -0.046026  0  3.929899  0  0  -0.041733  0  3.945515  0  0  -0.058394  -0.048601  0  3.91934  0
C  C63  1  0.70107393  0.17234749  0.79913640  1  0  -0.01558  0  3.677024  0  0  -0.046017  0  3.930089  0  0  -0.041726  0  3.945711  0  0  -0.05835  -0.04858  0  3.919514  0
C  C64  1  0.87949291  0.36864558  0.36304898  1  0  0.647061  0  3.962558  0  0  0.598093  0  4.256822  0  0  0.632869  0  4.248508  0  0  0.205679  0.574472  0  4.261653  0
C  C65  1  0.62050930  0.86865156  0.13694903  1  0  0.647193  0  3.962679  0  0  0.598195  0  4.256892  0  0  0.632971  0  4.248579  0  0  0.205729  0.574571  0  4.261713  0
C  C66  1  0.12052582  0.63134962  0.63695838  1  0  0.646971  0  3.96281  0  0  0.597978  0  4.257104  0  0  0.632757  0  4.248788  0  0  0.205517  0.574342  0  4.261915  0
C  C67  1  0.37949688  0.13135014  0.86304831  1  0  0.647093  0  3.962575  0  0  0.598106  0  4.256851  0  0  0.632884  0  4.248534  0  0  0.205611  0.574471  0  4.261667  0
C  C68  1  0.27239704  0.13470787  0.11080924  1  0  0.641083  0  3.907472  0  0  0.588497  0  4.211191  0  0  0.623173  0  4.200809  0  0  0.230712  0.564853  0  4.217571  0
C  C69  1  0.22759973  0.63470045  0.38919216  1  0  0.641127  0  3.907677  0  0  0.588499  0  4.211544  0  0  0.623172  0  4.201161  0  0  0.230616  0.564846  0  4.217934  0
C  C70  1  0.72759970  0.86529568  0.88918624  1  0  0.641184  0  3.90732  0  0  0.588665  0  4.210941  0  0  0.623339  0  4.200559  0  0  0.230794  0.565021  0  4.217314  0
C  C71  1  0.77240171  0.36529476  0.61081158  1  0  0.641162  0  3.907328  0  0  0.588608  0  4.211032  0  0  0.623281  0  4.200651  0  0  0.230715  0.564962  0  4.217412  0
C  C72  1  0.94656733  0.31710523  0.95755478  1  0  0.39096  0  3.828325  0  0  0.31639  0  4.125374  0  0  0.344706  0  4.12536  0  0  0.180855  0.297447  0  4.124821  0
C  C73  1  0.55340634  0.81709883  0.54244674  1  0  0.39104  0  3.827784  0  0  0.31637  0  4.124965  0  0  0.34469  0  4.124951  0  0  0.180848  0.297419  0  4.124405  0
C  C74  1  0.05340896  0.68289368  0.04244236  1  0  0.390992  0  3.828422  0  0  0.316374  0  4.125523  0  0  0.344691  0  4.125508  0  0  0.18082  0.297418  0  4.124955  0
C  C75  1  0.44657465  0.18289359  0.45755990  1  0  0.39084  0  3.828506  0  0  0.316283  0  4.125538  0  0  0.344598  0  4.125524  0  0  0.180786  0.297335  0  4.124983  0
C  C76  1  0.72043895  0.49057232  0.90698542  1  0  -0.163764  0  3.641625  0  0  -0.263631  0  3.884778  0  0  -0.259467  0  3.895238  0  0  -0.130979  -0.266113  0  3.877728  0
C  C77  1  0.77955626  0.99055929  0.59301178  1  0  -0.163746  0  3.641454  0  0  -0.26358  0  3.884646  0  0  -0.259417  0  3.895105  0  0  -0.130975  -0.26607  0  3.877592  0
C  C78  1  0.27956565  0.50944049  0.09300936  1  0  -0.163878  0  3.641552  0  0  -0.26365  0  3.884739  0  0  -0.259493  0  3.895201  0  0  -0.130958  -0.266145  0  3.877692  0
C  C79  1  0.22043261  0.00943406  0.40698866  1  0  -0.163778  0  3.641541  0  0  -0.263585  0  3.884661  0  0  -0.25943  0  3.895126  0  0  -0.130972  -0.26607  0  3.877618  0
C  C80  1  0.06402251  0.45988069  0.85941414  1  0  -0.175462  0  3.652116  0  0  -0.275859  0  3.901472  0  0  -0.272519  0  3.913637  0  0  -0.131813  -0.27781  0  3.893235  0
C  C81  1  0.43597428  0.95987892  0.64058416  1  0  -0.175348  0  3.652243  0  0  -0.275767  0  3.901581  0  0  -0.272421  0  3.913741  0  0  -0.131783  -0.277722  0  3.893334  0
C  C82  1  0.93598679  0.54011451  0.14058769  1  0  -0.175674  0  3.652215  0  0  -0.276037  0  3.90158  0  0  -0.272694  0  3.913741  0  0  -0.131892  -0.277992  0  3.893353  0
C  C83  1  0.56401144  0.04011813  0.35941485  1  0  -0.175569  0  3.652379  0  0  -0.275947  0  3.901708  0  0  -0.272597  0  3.913866  0  0  -0.131885  -0.277907  0  3.893477  0
N  N84  1  0.96807900  0.17664063  0.17831127  1  0  -0.359179  0  3.19488  0  0  -0.309902  0  3.45631  0  0  -0.322879  0  3.47252  0  0  -0.345844  -0.300684  0  3.44502  0
N  N85  1  0.53192077  0.67663701  0.32168627  1  0  -0.359033  0  3.194818  0  0  -0.309705  0  3.456283  0  0  -0.322681  0  3.472499  0  0  -0.345808  -0.300522  0  3.445033  0
N  N86  1  0.03192718  0.82336940  0.82168484  1  0  -0.359054  0  3.194707  0  0  -0.309799  0  3.456189  0  0  -0.322773  0  3.472397  0  0  -0.345893  -0.300609  0  3.444935  0
N  N87  1  0.46808382  0.32336561  0.67831463  1  0  -0.359205  0  3.194978  0  0  -0.309913  0  3.456465  0  0  -0.32289  0  3.472677  0  0  -0.345912  -0.300707  0  3.445184  0
N  N88  1  0.91400901  0.42019571  0.91105960  1  0  -0.097371  0  3.510924  0  0  0.005804  0  3.746388  0  0  -0.015222  0  3.772677  0  0  -0.284761  0.019844  0  3.728187  0
N  N89  1  0.58598546  0.92018809  0.58893828  1  0  -0.09742  0  3.510883  0  0  0.005806  0  3.746333  0  0  -0.015215  0  3.772605  0  0  -0.284794  0.019862  0  3.728125  0
N  N90  1  0.08598457  0.57980783  0.08893750  1  0  -0.097406  0  3.510981  0  0  0.00581  0  3.746407  0  0  -0.015211  0  3.772684  0  0  -0.284745  0.019881  0  3.728191  0
N  N91  1  0.41400655  0.07980526  0.41106177  1  0  -0.09734  0  3.511076  0  0  0.005836  0  3.746506  0  0  -0.015189  0  3.772793  0  0  -0.284699  0.019899  0  3.728291  0
O  O92  1  0.14866278  0.07095528  0.05694046  1  0  -0.719638  0  2.011814  0  0  -0.656866  0  2.267396  0  0  -0.685438  0  2.256514  0  0  -0.363848  -0.63641  0  2.274146  0
O  O93  1  0.35133789  0.57095367  0.44305824  1  0  -0.719537  0  2.011833  0  0  -0.656852  0  2.267603  0  0  -0.68542  0  2.256722  0  0  -0.363826  -0.636402  0  2.274363  0
O  O94  1  0.85134340  0.92905105  0.94305504  1  0  -0.719713  0  2.011513  0  0  -0.65701  0  2.267157  0  0  -0.685583  0  2.256279  0  0  -0.363952  -0.636594  0  2.273923  0
O  O95  1  0.64865883  0.42904895  0.55694396  1  0  -0.719668  0  2.011509  0  0  -0.656942  0  2.267161  0  0  -0.685512  0  2.256283  0  0  -0.363915  -0.636515  0  2.273928  0
O  O96  1  0.46773876  0.14905641  0.11441710  1  0  -0.643444  0  1.964164  0  0  -0.588503  0  2.201751  0  0  -0.614265  0  2.192779  0  0  -0.330096  -0.570171  0  2.207384  0
O  O97  1  0.03226256  0.64904884  0.38558152  1  0  -0.643485  0  1.964212  0  0  -0.588491  0  2.201792  0  0  -0.614249  0  2.192821  0  0  -0.330049  -0.570107  0  2.207412  0
O  O98  1  0.53226584  0.85094251  0.88558135  1  0  -0.64338  0  1.964195  0  0  -0.588493  0  2.201782  0  0  -0.614251  0  2.19281  0  0  -0.330115  -0.570199  0  2.207427  0
O  O99  1  0.96774203  0.35094729  0.61441815  1  0  -0.643465  0  1.964166  0  0  -0.588537  0  2.201758  0  0  -0.614297  0  2.192785  0  0  -0.330122  -0.570233  0  2.207402  0
O  O100  1  0.68756555  0.39866870  0.34235600  1  0  -0.65771  0  1.913313  0  0  -0.610278  0  2.148226  0  0  -0.636494  0  2.140412  0  0  -0.336932  -0.591488  0  2.152899  0
O  O101  1  0.81242842  0.89868033  0.15765119  1  0  -0.657765  0  1.913305  0  0  -0.610314  0  2.148191  0  0  -0.636531  0  2.140374  0  0  -0.336992  -0.591561  0  2.152874  0
O  O102  1  0.31244533  0.60132372  0.65764960  1  0  -0.657678  0  1.913686  0  0  -0.610194  0  2.14856  0  0  -0.636408  0  2.140743  0  0  -0.336929  -0.591467  0  2.15325  0
O  O103  1  0.18756830  0.10133248  0.84235040  1  0  -0.657714  0  1.913364  0  0  -0.610249  0  2.14822  0  0  -0.636465  0  2.140406  0  0  -0.336889  -0.591476  0  2.15289  0
O  O104  1  0.82525995  0.27872750  0.00386164  1  0  -0.568412  0  2.058639  0  0  -0.516802  0  2.311517  0  0  -0.540897  0  2.305536  0  0  -0.33294  -0.499907  0  2.31508  0
O  O105  1  0.67473547  0.77871527  0.49613483  1  0  -0.568583  0  2.057857  0  0  -0.51697  0  2.310843  0  0  -0.541069  0  2.304864  0  0  -0.332975  -0.500036  0  2.314393  0
O  O106  1  0.17471163  0.72127326  0.99613152  1  0  -0.568412  0  2.058606  0  0  -0.516809  0  2.311564  0  0  -0.540907  0  2.305588  0  0  -0.332917  -0.499909  0  2.315115  0
O  O107  1  0.32526755  0.22127252  0.50386657  1  0  -0.568437  0  2.058712  0  0  -0.516851  0  2.311628  0  0  -0.540945  0  2.305648  0  0  -0.332961  -0.499951  0  2.315189  0
O  O108  1  0.98804783  0.39497804  0.43352404  1  0  -0.733994  0  2.084638  0  0  -0.672185  0  2.339123  0  0  -0.701054  0  2.329234  0  0  -0.388325  -0.651478  0  2.345092  0
O  O109  1  0.51195249  0.89497449  0.06647564  1  0  -0.734005  0  2.084826  0  0  -0.672219  0  2.33933  0  0  -0.701088  0  2.329439  0  0  -0.388356  -0.651534  0  2.345305  0
O  O110  1  0.01195204  0.60501439  0.56647593  1  0  -0.734032  0  2.084381  0  0  -0.672232  0  2.338898  0  0  -0.701107  0  2.329011  0  0  -0.388323  -0.651572  0  2.344871  0
O  O111  1  0.48805839  0.10501515  0.93352629  1  0  -0.734053  0  2.084565  0  0  -0.672245  0  2.339066  0  0  -0.701117  0  2.329173  0  0  -0.388345  -0.651544  0  2.345037  0
