# generated using pymatgen
data_CdH26C30(N2O3)2
_symmetry_space_group_name_H-M   'P 1'
_cell_length_a   11.66994588
_cell_length_b   11.66946241
_cell_length_c   12.63600000
_cell_angle_alpha   69.06697840
_cell_angle_beta   69.06788638
_cell_angle_gamma   83.16109314
_symmetry_Int_Tables_number   1
_chemical_formula_structural   CdH26C30(N2O3)2
_chemical_formula_sum   'Cd2 H52 C60 N8 O12'
_cell_volume   1501.07910221
_cell_formula_units_Z   2
loop_
 _symmetry_equiv_pos_site_id
 _symmetry_equiv_pos_as_xyz
  1  'x, y, z'
loop_
 _atom_site_type_symbol
 _atom_site_label
 _atom_site_symmetry_multiplicity
 _atom_site_fract_x
 _atom_site_fract_y
 _atom_site_fract_z
 _atom_site_occupancy
 _atom_site_hle17_bader_spin_density
 _atom_site_hle17_ddec_charge
 _atom_site_hle17_ddec_spin_density
 _atom_site_hle17_ddec_sum_bond_order
 _atom_site_hle17_magmom
 _atom_site_hse06_10hf_bader_spin_density
 _atom_site_hse06_10hf_ddec_charge
 _atom_site_hse06_10hf_ddec_spin_density
 _atom_site_hse06_10hf_ddec_sum_bond_order
 _atom_site_hse06_10hf_magmom
 _atom_site_hse06_bader_spin_density
 _atom_site_hse06_ddec_charge
 _atom_site_hse06_ddec_spin_density
 _atom_site_hse06_ddec_sum_bond_order
 _atom_site_hse06_magmom
 _atom_site_pbe_bader_charge
 _atom_site_pbe_bader_spin_density
 _atom_site_pbe_cm5_charge
 _atom_site_pbe_ddec_charge
 _atom_site_pbe_ddec_spin_density
 _atom_site_pbe_ddec_sum_bond_order
 _atom_site_pbe_magmom
Cd  Cd0  1  0.49767075  0.50233248  0.74999711  1  0  1.079529  0  1.758135  0  0  0.891258  0  2.210336  0  0  0.947188  0  2.159942  0  1.240746  0  0.767373  0.851874  0  2.244322  0
Cd  Cd1  1  0.50232964  0.49766772  0.25000222  1  0  1.079482  0  1.758134  0  0  0.891209  0  2.210325  0  0  0.947152  0  2.15991  0  1.240748  0  0.767344  0.851823  0  2.244316  0
H  H2  1  0.50870642  0.80888449  0.65433362  1  0  0.100348  0  0.965249  0  0  0.111723  0  1.023472  0  0  0.113562  0  1.023308  0  0.084744  0  0.116255  0.110385  0  1.023678  0
H  H3  1  0.19111676  0.49129175  0.84566847  1  0  0.10045  0  0.965172  0  0  0.111818  0  1.023405  0  0  0.113657  0  1.023241  0  0.084716  0  0.116278  0.110477  0  1.02361  0
H  H4  1  0.49129397  0.19111571  0.34566571  1  0  0.100353  0  0.965247  0  0  0.111727  0  1.02347  0  0  0.113565  0  1.023307  0  0.084749  0  0.116258  0.110388  0  1.023676  0
H  H5  1  0.80888363  0.50870845  0.15433166  1  0  0.100432  0  0.965166  0  0  0.1118  0  1.023403  0  0  0.113639  0  1.023239  0  0.084718  0  0.116287  0.110459  0  1.023608  0
H  H6  1  0.36022175  0.94647106  0.79160939  1  0  0.112668  0  0.944393  0  0  0.126545  0  0.998303  0  0  0.129333  0  0.996896  0  0.117973  0  0.124853  0.124599  0  0.999247  0
H  H7  1  0.05353745  0.63977683  0.70838858  1  0  0.112641  0  0.944422  0  0  0.126495  0  0.998371  0  0  0.129296  0  0.996946  0  0.117967  0  0.124821  0.124548  0  0.999316  0
H  H8  1  0.63977864  0.05352913  0.20839073  1  0  0.112667  0  0.944365  0  0  0.126536  0  0.998283  0  0  0.129309  0  0.996895  0  0.117976  0  0.124857  0.12459  0  0.999228  0
H  H9  1  0.94646295  0.36022336  0.29161154  1  0  0.112632  0  0.944411  0  0  0.126492  0  0.998351  0  0  0.129284  0  0.996938  0  0.117963  0  0.124822  0.124546  0  0.999295  0
H  H10  1  0.36067626  0.57804583  0.01712632  1  0  0.116808  0  0.920122  0  0  0.128198  0  0.977645  0  0  0.131152  0  0.973898  0  0.186782  0  0.144145  0.126036  0  0.980328  0
H  H11  1  0.42194867  0.63932357  0.48287744  1  0  0.116786  0  0.920124  0  0  0.128154  0  0.977668  0  0  0.131107  0  0.97392  0  0.186779  0  0.144104  0.125993  0  0.980351  0
H  H12  1  0.63932321  0.42195436  0.98287410  1  0  0.116802  0  0.920132  0  0  0.128193  0  0.977654  0  0  0.131146  0  0.973907  0  0.18678  0  0.144142  0.126032  0  0.980336  0
H  H13  1  0.57805172  0.36067663  0.51712268  1  0  0.116782  0  0.920165  0  0  0.128164  0  0.977687  0  0  0.131118  0  0.97394  0  0.18678  0  0.144108  0.126002  0  0.980371  0
H  H14  1  0.26068664  0.89262354  0.02539353  1  0  0.09642  0  0.918096  0  0  0.1069  0  0.985372  0  0  0.108396  0  0.984588  0  0.078692  0  0.117166  0.105749  0  0.986027  0
H  H15  1  0.10737970  0.73931221  0.47460609  1  0  0.096439  0  0.918041  0  0  0.106903  0  0.985342  0  0  0.108395  0  0.984556  0  0.078745  0  0.117181  0.105752  0  0.985998  0
H  H16  1  0.73931375  0.10737665  0.97460659  1  0  0.09639  0  0.918096  0  0  0.106877  0  0.985391  0  0  0.108372  0  0.984606  0  0.078702  0  0.117156  0.105723  0  0.986047  0
H  H17  1  0.89261976  0.26068707  0.52539464  1  0  0.096459  0  0.918036  0  0  0.106924  0  0.985329  0  0  0.108418  0  0.984543  0  0.078743  0  0.11719  0.105774  0  0.985985  0
H  H18  1  0.25615500  0.73630361  0.11652332  1  0  0.115744  0  0.912122  0  0  0.129765  0  0.973496  0  0  0.131342  0  0.972067  0  0.130844  0  0.122971  0.128446  0  0.974816  0
H  H19  1  0.26369430  0.74384393  0.38347724  1  0  0.115711  0  0.912112  0  0  0.129744  0  0.973473  0  0  0.131319  0  0.972049  0  0.130831  0  0.122953  0.128426  0  0.974787  0
H  H20  1  0.74384538  0.26369567  0.88347710  1  0  0.115722  0  0.912137  0  0  0.129752  0  0.973517  0  0  0.131332  0  0.972089  0  0.130851  0  0.122969  0.12843  0  0.974834  0
H  H21  1  0.73630609  0.25615627  0.61652288  1  0  0.115719  0  0.912115  0  0  0.129753  0  0.973476  0  0  0.131329  0  0.972052  0  0.13083  0  0.122951  0.128434  0  0.974791  0
H  H22  1  0.82286522  0.87208906  0.16649950  1  0  0.10084  0  0.957942  0  0  0.113856  0  1.015822  0  0  0.117089  0  1.01423  0  0.078  0  0.102251  0.111631  0  1.016917  0
H  H23  1  0.12791094  0.17713886  0.33349947  1  0  0.100949  0  0.957851  0  0  0.113911  0  1.015785  0  0  0.117144  0  1.014195  0  0.077934  0  0.102261  0.111687  0  1.01688  0
H  H24  1  0.17713335  0.12791206  0.83350171  1  0  0.100743  0  0.958066  0  0  0.1138  0  1.015905  0  0  0.117034  0  1.014312  0  0.078027  0  0.102207  0.111574  0  1.017001  0
H  H25  1  0.87208945  0.82286042  0.66650095  1  0  0.10094  0  0.957847  0  0  0.113901  0  1.015785  0  0  0.117133  0  1.014194  0  0.077928  0  0.102261  0.111676  0  1.01688  0
H  H26  1  0.77760277  0.75094383  0.05946093  1  0  0.098121  0  0.961599  0  0  0.107768  0  1.022193  0  0  0.110421  0  1.020741  0  0.115074  0  0.099932  0.105679  0  1.023519  0
H  H27  1  0.24905583  0.22240465  0.44053705  1  0  0.09808  0  0.961622  0  0  0.10769  0  1.022259  0  0  0.110372  0  1.020777  0  0.114954  0  0.099911  0.105605  0  1.023579  0
H  H28  1  0.22239670  0.24905636  0.94053870  1  0  0.098109  0  0.96162  0  0  0.107767  0  1.022204  0  0  0.110412  0  1.020761  0  0.11508  0  0.099926  0.105677  0  1.023529  0
H  H29  1  0.75094364  0.77759554  0.55946259  1  0  0.098082  0  0.961623  0  0  0.107693  0  1.022261  0  0  0.110373  0  1.020779  0  0.114955  0  0.099908  0.105606  0  1.023582  0
H  H30  1  0.94771652  0.65459873  0.93411130  1  0  0.083683  0  0.952498  0  0  0.098094  0  1.005585  0  0  0.10096  0  1.004665  0  0.042339  0  0.096182  0.096055  0  1.006345  0
H  H31  1  0.34539995  0.05228495  0.56588817  1  0  0.083698  0  0.952501  0  0  0.098106  0  1.00559  0  0  0.100967  0  1.004675  0  0.042329  0  0.096195  0.096078  0  1.006338  0
H  H32  1  0.05228387  0.34540146  0.06588882  1  0  0.083686  0  0.952475  0  0  0.098095  0  1.005564  0  0  0.100963  0  1.004641  0  0.042328  0  0.096189  0.096056  0  1.006325  0
H  H33  1  0.65459952  0.94771524  0.43411225  1  0  0.083672  0  0.952499  0  0  0.098081  0  1.005589  0  0  0.100941  0  1.004675  0  0.042328  0  0.096182  0.096052  0  1.006339  0
H  H34  1  0.16253140  0.67810146  0.91767444  1  0  0.080945  0  0.993907  0  0  0.087517  0  1.064993  0  0  0.089504  0  1.065098  0  0.083189  0  0.09464  0.086086  0  1.064968  0
H  H35  1  0.32189785  0.83746395  0.58232765  1  0  0.08097  0  0.993827  0  0  0.087513  0  1.06494  0  0  0.089498  0  1.06505  0  0.082967  0  0.094647  0.086082  0  1.064915  0
H  H36  1  0.83746900  0.32189874  0.08232489  1  0  0.080955  0  0.993899  0  0  0.087527  0  1.064986  0  0  0.089514  0  1.065092  0  0.08324  0  0.094653  0.086095  0  1.064961  0
H  H37  1  0.67810162  0.16253533  0.41767308  1  0  0.080923  0  0.993877  0  0  0.087492  0  1.06496  0  0  0.089476  0  1.06507  0  0.082969  0  0.094648  0.08606  0  1.064936  0
H  H38  1  0.90127213  0.89927202  0.30622823  1  0  0.060339  0  0.934493  0  0  0.072447  0  1.000934  0  0  0.072158  0  1.001201  0  0.070123  0  0.103397  0.072521  0  1.000903  0
H  H39  1  0.10072613  0.09873070  0.19377176  1  0  0.060327  0  0.934524  0  0  0.072479  0  1.000934  0  0  0.072188  0  1.001199  0  0.070111  0  0.10341  0.072551  0  1.000907  0
H  H40  1  0.09872826  0.10072818  0.69377189  1  0  0.060333  0  0.934529  0  0  0.072449  0  1.000975  0  0  0.072158  0  1.001241  0  0.07012  0  0.103411  0.072522  0  1.000943  0
H  H41  1  0.89927426  0.90126858  0.80622866  1  0  0.060301  0  0.934539  0  0  0.072462  0  1.000923  0  0  0.072175  0  1.001187  0  0.070106  0  0.103397  0.072534  0  1.000897  0
H  H42  1  0.91330646  0.03402321  0.17627029  1  0  0.054568  0  0.948125  0  0  0.065321  0  1.019862  0  0  0.064174  0  1.021971  0  0.050205  0  0.100396  0.066092  0  1.018412  0
H  H43  1  0.96597864  0.08669628  0.32372852  1  0  0.054555  0  0.948055  0  0  0.0653  0  1.019815  0  0  0.064152  0  1.021924  0  0.050202  0  0.100393  0.066073  0  1.018363  0
H  H44  1  0.08669394  0.96597699  0.82372904  1  0  0.054536  0  0.948103  0  0  0.065293  0  1.019857  0  0  0.064145  0  1.021966  0  0.050214  0  0.100374  0.066065  0  1.018407  0
H  H45  1  0.03402084  0.91330392  0.67627112  1  0  0.054587  0  0.948056  0  0  0.065319  0  1.019815  0  0  0.064174  0  1.021924  0  0.050197  0  0.100399  0.066093  0  1.018362  0
H  H46  1  0.38394334  0.15065873  0.09640351  1  0  0.102638  0  0.943668  0  0  0.111854  0  1.005289  0  0  0.115616  0  1.002967  0  0.087692  0  0.101592  0.109059  0  1.00719  0
H  H47  1  0.84934358  0.61605574  0.40359556  1  0  0.102628  0  0.943697  0  0  0.111841  0  1.005322  0  0  0.115608  0  1.002997  0  0.087865  0  0.1016  0.109044  0  1.007226  0
H  H48  1  0.61605612  0.84934055  0.90359722  1  0  0.102628  0  0.943684  0  0  0.111844  0  1.005308  0  0  0.115604  0  1.002993  0  0.0877  0  0.101592  0.109049  0  1.007209  0
H  H49  1  0.15065589  0.38394354  0.59640517  1  0  0.102623  0  0.943695  0  0  0.111842  0  1.00531  0  0  0.115609  0  1.002985  0  0.087866  0  0.101597  0.109044  0  1.007218  0
H  H50  1  0.59720873  0.06808495  0.77699290  1  0  0.097672  0  0.962607  0  0  0.105254  0  1.027075  0  0  0.108559  0  1.025608  0  0.094172  0  0.099388  0.102863  0  1.028228  0
H  H51  1  0.93191715  0.40279068  0.72300771  1  0  0.097676  0  0.962607  0  0  0.105277  0  1.02705  0  0  0.108585  0  1.02558  0  0.094186  0  0.099396  0.102886  0  1.028203  0
H  H52  1  0.40279167  0.93191525  0.22300722  1  0  0.097652  0  0.96261  0  0  0.105233  0  1.027081  0  0  0.108539  0  1.025611  0  0.094172  0  0.099388  0.102842  0  1.028234  0
H  H53  1  0.06808324  0.59720952  0.27699241  1  0  0.097687  0  0.962618  0  0  0.105286  0  1.027063  0  0  0.108592  0  1.025596  0  0.094182  0  0.0994  0.102895  0  1.028214  0
C  C54  1  0.45422231  0.78042340  0.74923605  1  0  -0.004689  0  3.776682  0  0  -0.036933  0  4.042132  0  0  -0.035062  0  4.063884  0  0.428089  0  -0.006925  -0.038097  0  4.027336  0
C  C55  1  0.21957871  0.54577604  0.75076491  1  0  -0.004916  0  3.776753  0  0  -0.037157  0  4.04222  0  0  -0.035288  0  4.063973  0  0.428016  0  -0.006977  -0.038315  0  4.027418  0
C  C56  1  0.54577809  0.21957680  0.25076407  1  0  -0.004681  0  3.776686  0  0  -0.036925  0  4.042138  0  0  -0.035054  0  4.063887  0  0.428067  0  -0.006924  -0.038089  0  4.027341  0
C  C57  1  0.78042168  0.45422416  0.24923521  1  0  -0.004806  0  3.776783  0  0  -0.037044  0  4.042242  0  0  -0.035175  0  4.063996  0  0.428004  0  -0.006937  -0.038203  0  4.027442  0
C  C58  1  0.38189294  0.84973968  0.81550087  1  0  -0.066826  0  3.690629  0  0  -0.107107  0  3.949546  0  0  -0.106024  0  3.969044  0  0.287216  0  0.002067  -0.107749  0  3.936377  0
C  C59  1  0.15026430  0.61810552  0.68449785  1  0  -0.066606  0  3.690696  0  0  -0.106874  0  3.9496  0  0  -0.105801  0  3.969094  0  0.287242  0  0.002123  -0.107517  0  3.93643  0
C  C60  1  0.61810745  0.15026052  0.18449925  1  0  -0.066815  0  3.69064  0  0  -0.107091  0  3.949553  0  0  -0.105995  0  3.969055  0  0.287223  0  0.002056  -0.107733  0  3.936384  0
C  C61  1  0.84973517  0.38189468  0.31550178  1  0  -0.066715  0  3.690749  0  0  -0.106986  0  3.949665  0  0  -0.105907  0  3.969159  0  0.287243  0  0.002057  -0.107629  0  3.936496  0
C  C62  1  0.38177753  0.65720821  0.93488816  1  0  0.177399  0  3.631436  0  0  0.115764  0  3.897188  0  0  0.130245  0  3.909051  0  0.94681  0  0.150607  0.106272  0  3.889057  0
C  C63  1  0.34278767  0.61822204  0.56511366  1  0  0.177434  0  3.63167  0  0  0.11582  0  3.897423  0  0  0.130303  0  3.909282  0  0.946739  0  0.15066  0.106327  0  3.889292  0
C  C64  1  0.61822195  0.34279199  0.06511148  1  0  0.177418  0  3.63144  0  0  0.11578  0  3.897188  0  0  0.130262  0  3.909054  0  0.946811  0  0.150607  0.106287  0  3.88906  0
C  C65  1  0.65721272  0.38177815  0.43488646  1  0  0.177422  0  3.631655  0  0  0.115802  0  3.897404  0  0  0.130284  0  3.909268  0  0.946734  0  0.150663  0.106309  0  3.889274  0
C  C66  1  0.24409631  0.79914299  0.03231266  1  0  -0.035499  0  3.643305  0  0  -0.106374  0  3.904641  0  0  -0.101216  0  3.913323  0  0.322159  0  -0.044476  -0.109794  0  3.898982  0
C  C67  1  0.20085724  0.75590037  0.46768630  1  0  -0.035387  0  3.643279  0  0  -0.106296  0  3.904705  0  0  -0.101138  0  3.91337  0  0.322135  0  -0.044497  -0.109721  0  3.899052  0
C  C68  1  0.75590317  0.20085720  0.96768777  1  0  -0.03541  0  3.643177  0  0  -0.106346  0  3.904572  0  0  -0.10119  0  3.913266  0  0.322152  0  -0.044475  -0.109759  0  3.898909  0
C  C69  1  0.79914315  0.24409982  0.53231382  1  0  -0.035471  0  3.643295  0  0  -0.106386  0  3.904731  0  0  -0.101231  0  3.913398  0  0.322129  0  -0.044514  -0.10981  0  3.899077  0
C  C70  1  0.11580509  0.78609286  0.03402551  1  0  -0.039107  0  3.734312  0  0  -0.024096  0  3.980039  0  0  -0.028082  0  4.002232  0  -0.027193  0  -0.024596  -0.021644  0  3.96533  0
C  C71  1  0.21390663  0.88419413  0.46597444  1  0  -0.039228  0  3.734452  0  0  -0.024225  0  3.980168  0  0  -0.02819  0  4.00233  0  -0.026511  0  -0.02462  -0.021771  0  3.965456  0
C  C72  1  0.88419530  0.21390642  0.96597492  1  0  -0.039138  0  3.734329  0  0  -0.024076  0  3.980018  0  0  -0.028077  0  4.002232  0  -0.027198  0  -0.0246  -0.021628  0  3.965314  0
C  C73  1  0.78609376  0.11580607  0.53402489  1  0  -0.039233  0  3.734442  0  0  -0.024228  0  3.980162  0  0  -0.028193  0  4.002322  0  -0.026507  0  -0.024628  -0.021775  0  3.96545  0
C  C74  1  0.01906267  0.84244617  0.10275779  1  0  0.228146  0  3.801916  0  0  0.213874  0  4.061402  0  0  0.224821  0  4.078324  0  0.437811  0  0.08386  0.206457  0  4.049957  0
C  C75  1  0.15755138  0.98093744  0.39724408  1  0  0.228202  0  3.801893  0  0  0.213986  0  4.061321  0  0  0.224926  0  4.078239  0  0.437993  0  0.083874  0.206568  0  4.049874  0
C  C76  1  0.98093588  0.15755402  0.89724293  1  0  0.228141  0  3.801972  0  0  0.213871  0  4.061447  0  0  0.224822  0  4.078372  0  0.43787  0  0.08385  0.206453  0  4.050002  0
C  C77  1  0.84244902  0.01906276  0.60275604  1  0  0.228235  0  3.801829  0  0  0.214021  0  4.061258  0  0  0.224963  0  4.078172  0  0.437998  0  0.083892  0.206604  0  4.049811  0
C  C78  1  0.89757015  0.82962818  0.11236190  1  0  -0.195383  0  3.765974  0  0  -0.21634  0  4.019136  0  0  -0.221876  0  4.038883  0  -0.022434  0  -0.110253  -0.212688  0  4.005862  0
C  C79  1  0.17037123  0.10243480  0.38763777  1  0  -0.195603  0  3.765947  0  0  -0.216527  0  4.019092  0  0  -0.222066  0  4.038851  0  -0.022437  0  -0.110309  -0.212876  0  4.005822  0
C  C80  1  0.10242842  0.17037294  0.88763693  1  0  -0.195186  0  3.765925  0  0  -0.216176  0  4.019067  0  0  -0.221712  0  4.038813  0  -0.02252  0  -0.110162  -0.212524  0  4.005793  0
C  C81  1  0.82962917  0.89756540  0.61236156  1  0  -0.19556  0  3.765917  0  0  -0.216481  0  4.019065  0  0  -0.222019  0  4.038819  0  -0.02259  0  -0.11029  -0.21283  0  4.005793  0
C  C82  1  0.87222050  0.76152855  0.05181354  1  0  -0.04645  0  3.78848  0  0  -0.061572  0  4.042387  0  0  -0.060351  0  4.062313  0  -0.086051  0  -0.094839  -0.062205  0  4.029015  0
C  C83  1  0.23847277  0.12778269  0.44818450  1  0  -0.046298  0  3.788464  0  0  -0.06138  0  4.042345  0  0  -0.060183  0  4.062259  0  -0.08607  0  -0.094785  -0.062017  0  4.028982  0
C  C84  1  0.12777901  0.23847440  0.94818438  1  0  -0.046559  0  3.788375  0  0  -0.061696  0  4.042304  0  0  -0.06047  0  4.062235  0  -0.086046  0  -0.094878  -0.062326  0  4.028927  0
C  C85  1  0.76152763  0.87221751  0.55181483  1  0  -0.046341  0  3.788498  0  0  -0.061426  0  4.04238  0  0  -0.060229  0  4.062295  0  -0.0859  0  -0.0948  -0.062063  0  4.029017  0
C  C86  1  0.96735194  0.70705251  0.98201365  1  0  -0.11545  0  3.835271  0  0  -0.129027  0  4.088882  0  0  -0.133316  0  4.111146  0  -0.028442  0  -0.111946  -0.126176  0  4.073765  0
C  C87  1  0.29294654  0.03264965  0.51798566  1  0  -0.115531  0  3.835332  0  0  -0.129111  0  4.088943  0  0  -0.133396  0  4.111214  0  -0.028341  0  -0.111974  -0.126271  0  4.073826  0
C  C88  1  0.03264845  0.29294768  0.01798568  1  0  -0.115404  0  3.835205  0  0  -0.128975  0  4.088816  0  0  -0.133264  0  4.111076  0  -0.028437  0  -0.111948  -0.126125  0  4.073699  0
C  C89  1  0.70705294  0.96735054  0.48201476  1  0  -0.115509  0  3.835358  0  0  -0.129091  0  4.08897  0  0  -0.133378  0  4.111244  0  -0.028343  0  -0.111967  -0.12625  0  4.073853  0
C  C90  1  0.08838937  0.71967875  0.97349429  1  0  -0.115557  0  3.805774  0  0  -0.135625  0  4.054575  0  0  -0.135649  0  4.076068  0  -0.086281  0  -0.102088  -0.135406  0  4.039975  0
C  C91  1  0.28032015  0.91160739  0.52650588  1  0  -0.115538  0  3.805753  0  0  -0.135566  0  4.054549  0  0  -0.135595  0  4.076032  0  -0.086738  0  -0.102091  -0.135346  0  4.039951  0
C  C92  1  0.91161103  0.28032145  0.02650583  1  0  -0.115593  0  3.805755  0  0  -0.135675  0  4.054545  0  0  -0.135693  0  4.076043  0  -0.086329  0  -0.102105  -0.135454  0  4.039947  0
C  C93  1  0.71967932  0.08839280  0.47349455  1  0  -0.115461  0  3.805794  0  0  -0.135508  0  4.054579  0  0  -0.135536  0  4.076061  0  -0.086749  0  -0.102072  -0.135289  0  4.039982  0
C  C94  1  0.96514251  0.96753497  0.22875329  1  0  0.06663  0  3.642864  0  0  0.002117  0  3.917577  0  0  0.010117  0  3.92286  0  0.414211  0  -0.06671  -0.003253  0  3.913826  0
C  C95  1  0.03246574  0.03485908  0.27124706  1  0  0.066711  0  3.642815  0  0  0.002165  0  3.91756  0  0  0.010177  0  3.922831  0  0.46233  0  -0.066711  -0.003208  0  3.91381  0
C  C96  1  0.03485788  0.03246523  0.77124683  1  0  0.066772  0  3.642722  0  0  0.002226  0  3.917484  0  0  0.010236  0  3.922758  0  0.414201  0  -0.06669  -0.003145  0  3.913732  0
C  C97  1  0.96753465  0.96514020  0.72875337  1  0  0.066627  0  3.642818  0  0  0.002123  0  3.917517  0  0  0.01012  0  3.922798  0  0.46233  0  -0.066708  -0.00325  0  3.913766  0
C  C98  1  0.48273664  0.25305866  0.85429292  1  0  0.621419  0  3.947122  0  0  0.576196  0  4.234779  0  0  0.610344  0  4.228751  0  1.534267  0  0.18449  0.55313  0  4.23797  0
C  C99  1  0.74694341  0.51726265  0.64570537  1  0  0.621214  0  3.947119  0  0  0.576006  0  4.234799  0  0  0.610157  0  4.228768  0  1.534233  0  0.1844  0.55294  0  4.237989  0
C  C100  1  0.51726375  0.74694062  0.14570672  1  0  0.621364  0  3.947184  0  0  0.576139  0  4.234848  0  0  0.610286  0  4.228821  0  1.534266  0  0.184461  0.553073  0  4.238037  0
C  C101  1  0.25305606  0.48273663  0.35429457  1  0  0.621298  0  3.946994  0  0  0.576095  0  4.234667  0  0  0.610245  0  4.228637  0  1.534237  0  0.184424  0.553029  0  4.237858  0
C  C102  1  0.48856198  0.12149755  0.92940375  1  0  -0.058091  0  3.756185  0  0  -0.035852  0  3.988366  0  0  -0.042714  0  4.010986  0  0.018638  0  -0.020469  -0.03134  0  3.973072  0
C  C103  1  0.87850264  0.51143720  0.57059598  1  0  -0.057952  0  3.756017  0  0  -0.035783  0  3.988291  0  0  -0.042642  0  4.010909  0  0.018621  0  -0.020428  -0.031269  0  3.972996  0
C  C104  1  0.51143840  0.87850172  0.07059668  1  0  -0.058108  0  3.756215  0  0  -0.035872  0  3.988396  0  0  -0.042735  0  4.011015  0  0.018681  0  -0.020482  -0.031359  0  3.973101  0
C  C105  1  0.12149683  0.48856208  0.42940396  1  0  -0.057999  0  3.756051  0  0  -0.035838  0  3.988338  0  0  -0.042697  0  4.010954  0  0.018625  0  -0.020438  -0.031325  0  3.973044  0
C  C106  1  0.43350278  0.08351793  0.05520302  1  0  -0.078628  0  3.745301  0  0  -0.104089  0  3.999347  0  0  -0.104701  0  4.019115  0  -0.081482  0  -0.088682  -0.103545  0  3.986066  0
C  C107  1  0.91648419  0.56649679  0.44479595  1  0  -0.078604  0  3.745276  0  0  -0.104027  0  3.999326  0  0  -0.104654  0  4.019117  0  -0.081635  0  -0.088697  -0.103483  0  3.986042  0
C  C108  1  0.56649669  0.91648135  0.94479771  1  0  -0.078556  0  3.74538  0  0  -0.104016  0  3.999422  0  0  -0.104629  0  4.019188  0  -0.081466  0  -0.088655  -0.103472  0  3.986138  0
C  C109  1  0.08351529  0.43350341  0.55520448  1  0  -0.078619  0  3.745356  0  0  -0.104042  0  3.999406  0  0  -0.104668  0  4.019195  0  -0.08164  0  -0.088713  -0.103499  0  3.986122  0
C  C110  1  0.55503370  0.03716027  0.87474290  1  0  -0.083219  0  3.747015  0  0  -0.104015  0  3.995976  0  0  -0.104679  0  4.01552  0  -0.071806  0  -0.089431  -0.103429  0  3.982525  0
C  C111  1  0.96284091  0.44496620  0.62525627  1  0  -0.083256  0  3.746951  0  0  -0.104048  0  3.995937  0  0  -0.104715  0  4.015485  0  -0.07187  0  -0.089428  -0.103461  0  3.982485  0
C  C112  1  0.44496576  0.96283901  0.12525704  1  0  -0.083082  0  3.746891  0  0  -0.103875  0  3.99584  0  0  -0.104537  0  4.015385  0  -0.071802  0  -0.089365  -0.103289  0  3.98239  0
C  C113  1  0.03715948  0.55503399  0.37474306  1  0  -0.083254  0  3.74688  0  0  -0.104038  0  3.99586  0  0  -0.104704  0  4.015405  0  -0.071829  0  -0.08942  -0.103451  0  3.982409  0
N  N114  1  0.45315255  0.66040491  0.82466846  1  0  -0.394425  0  3.258533  0  0  -0.320295  0  3.546561  0  0  -0.341778  0  3.562819  0  -1.200393  0  -0.36285  -0.30563  0  3.535046  0
N  N115  1  0.33959164  0.54684681  0.67533479  1  0  -0.394413  0  3.258662  0  0  -0.320292  0  3.546707  0  0  -0.341775  0  3.562961  0  -1.200408  0  -0.362887  -0.305628  0  3.535191  0
N  N116  1  0.54684784  0.33959437  0.17533118  1  0  -0.394417  0  3.258482  0  0  -0.320284  0  3.546508  0  0  -0.341771  0  3.56277  0  -1.200389  0  -0.362826  -0.30562  0  3.534993  0
N  N117  1  0.66040876  0.45315339  0.32466454  1  0  -0.394439  0  3.258674  0  0  -0.320321  0  3.546724  0  0  -0.341805  0  3.562982  0  -1.2004  0  -0.362888  -0.305656  0  3.535208  0
N  N118  1  0.33738828  0.77055987  0.93278863  1  0  -0.051805  0  3.590106  0  0  0.041684  0  3.809206  0  0  0.026641  0  3.836408  0  -1.234904  0  -0.242369  0.051654  0  3.790914  0
N  N119  1  0.22944031  0.66260792  0.56721130  1  0  -0.051937  0  3.590441  0  0  0.041587  0  3.80951  0  0  0.026544  0  3.836714  0  -1.234813  0  -0.242302  0.051557  0  3.791218  0
N  N120  1  0.66261120  0.22944033  0.06721180  1  0  -0.051826  0  3.590063  0  0  0.041684  0  3.809162  0  0  0.026646  0  3.836358  0  -1.234919  0  -0.242351  0.051653  0  3.790869  0
N  N121  1  0.77056009  0.33739228  0.43278882  1  0  -0.05182  0  3.59031  0  0  0.041696  0  3.809384  0  0  0.026653  0  3.836588  0  -1.234802  0  -0.242276  0.051666  0  3.791092  0
O  O122  1  0.05565866  0.90785925  0.15551907  1  0  -0.27633  0  2.362599  0  0  -0.202802  0  2.599763  0  0  -0.22141  0  2.603527  0  -1.082946  0  -0.17584  -0.189803  0  2.596838  0
O  O123  1  0.09213946  0.94433871  0.34448333  1  0  -0.276365  0  2.362558  0  0  -0.202876  0  2.599745  0  0  -0.221487  0  2.603508  0  -1.082979  0  -0.175867  -0.189871  0  2.596816  0
O  O124  1  0.94434081  0.09214003  0.84448166  1  0  -0.276391  0  2.362558  0  0  -0.202884  0  2.599753  0  0  -0.221493  0  2.603513  0  -1.082951  0  -0.175858  -0.189881  0  2.596826  0
O  O125  1  0.90786093  0.05566149  0.65551679  1  0  -0.276365  0  2.36256  0  0  -0.202892  0  2.599745  0  0  -0.221499  0  2.603509  0  -1.082977  0  -0.175876  -0.189888  0  2.596817  0
O  O126  1  0.42647863  0.32755536  0.91038178  1  0  -0.650416  0  1.935751  0  0  -0.585271  0  2.171087  0  0  -0.613935  0  2.159901  0  -1.159642  0  -0.34858  -0.565195  0  2.177976  0
O  O127  1  0.67244822  0.57352054  0.58961684  1  0  -0.650369  0  1.935825  0  0  -0.585216  0  2.171151  0  0  -0.613881  0  2.159966  0  -1.159598  0  -0.34856  -0.565139  0  2.178039  0
O  O128  1  0.57352177  0.67244484  0.08961834  1  0  -0.650408  0  1.935767  0  0  -0.585256  0  2.171094  0  0  -0.613924  0  2.159913  0  -1.159661  0  -0.348575  -0.565181  0  2.177982  0
O  O129  1  0.32755218  0.42647966  0.41038328  1  0  -0.650409  0  1.935759  0  0  -0.58526  0  2.171083  0  0  -0.61393  0  2.159906  0  -1.159597  0  -0.348583  -0.565183  0  2.17797  0
O  O130  1  0.53585732  0.28683688  0.74100304  1  0  -0.642322  0  1.925556  0  0  -0.591142  0  2.155346  0  0  -0.617273  0  2.1457  0  -1.171871  0  -0.33783  -0.572729  0  2.16111  0
O  O131  1  0.71316722  0.46414274  0.75899670  1  0  -0.642241  0  1.925498  0  0  -0.59107  0  2.155294  0  0  -0.617193  0  2.145622  0  -1.171867  0  -0.337783  -0.572661  0  2.161058  0
O  O132  1  0.46414307  0.71316331  0.25899708  1  0  -0.642296  0  1.925562  0  0  -0.591114  0  2.155348  0  0  -0.617249  0  2.145702  0  -1.171868  0  -0.33782  -0.572701  0  2.16111  0
O  O133  1  0.28683317  0.53585746  0.24100343  1  0  -0.642254  0  1.925474  0  0  -0.591083  0  2.155268  0  0  -0.617203  0  2.145599  0  -1.171863  0  -0.337777  -0.572672  0  2.161036  0
