# generated using pymatgen
data_TbH13(C4O3)4
_symmetry_space_group_name_H-M   'P 1'
_cell_length_a   8.83680995
_cell_length_b   9.73691848
_cell_length_c   12.15834799
_cell_angle_alpha   101.03693658
_cell_angle_beta   103.78392904
_cell_angle_gamma   108.43771335
_symmetry_Int_Tables_number   1
_chemical_formula_structural   TbH13(C4O3)4
_chemical_formula_sum   'Tb2 H26 C32 O24'
_cell_volume   922.56666280
_cell_formula_units_Z   2
loop_
 _symmetry_equiv_pos_site_id
 _symmetry_equiv_pos_as_xyz
  1  'x, y, z'
loop_
 _atom_site_type_symbol
 _atom_site_label
 _atom_site_symmetry_multiplicity
 _atom_site_fract_x
 _atom_site_fract_y
 _atom_site_fract_z
 _atom_site_occupancy
 _atom_site_hle17_bader_spin_density
 _atom_site_hle17_ddec_charge
 _atom_site_hle17_ddec_spin_density
 _atom_site_hle17_ddec_sum_bond_order
 _atom_site_hle17_magmom
 _atom_site_hse06_10hf_bader_spin_density
 _atom_site_hse06_10hf_ddec_charge
 _atom_site_hse06_10hf_ddec_spin_density
 _atom_site_hse06_10hf_ddec_sum_bond_order
 _atom_site_hse06_10hf_magmom
 _atom_site_hse06_bader_spin_density
 _atom_site_hse06_ddec_charge
 _atom_site_hse06_ddec_spin_density
 _atom_site_hse06_ddec_sum_bond_order
 _atom_site_hse06_magmom
 _atom_site_pbe_bader_spin_density
 _atom_site_pbe_cm5_charge
 _atom_site_pbe_ddec_charge
 _atom_site_pbe_ddec_spin_density
 _atom_site_pbe_ddec_sum_bond_order
 _atom_site_pbe_magmom
Tb  Tb0  1  0.27276761  0.53773891  0.96195636  1  0  2.275831  0  1.618897  0  0  2.129572  0  2.08406  0  0  2.251441  0  1.903618  0  0  1.498756  2.093119  0  2.115853  0
Tb  Tb1  1  0.72723110  0.46226182  0.03804211  1  0  2.275813  0  1.618941  0  0  2.129528  0  2.084154  0  0  2.251422  0  1.903666  0  0  1.498741  2.093075  0  2.115947  0
H  H2  1  0.68254809  0.93069539  0.32410272  1  0  0.105375  0  0.956129  0  0  0.112948  0  1.022557  0  0  0.117692  0  1.017764  0  0  0.105007  0.109522  0  1.025996  0
H  H3  1  0.31745490  0.06930986  0.67589638  1  0  0.105404  0  0.956128  0  0  0.112979  0  1.022547  0  0  0.117724  0  1.017751  0  0  0.105008  0.109553  0  1.025986  0
H  H4  1  0.68468154  0.95908717  0.68307626  1  0  0.114099  0  0.988536  0  0  0.119054  0  1.059415  0  0  0.121343  0  1.06003  0  0  0.104881  0.117373  0  1.059092  0
H  H5  1  0.31531670  0.04091241  0.31692358  1  0  0.114076  0  0.988625  0  0  0.119032  0  1.059503  0  0  0.121323  0  1.06011  0  0  0.104875  0.117351  0  1.05918  0
H  H6  1  0.27939940  0.60857300  0.39140053  1  0  0.127801  0  0.927128  0  0  0.137914  0  0.985809  0  0  0.142479  0  0.981989  0  0  0.115266  0.134666  0  0.988281  0
H  H7  1  0.72060192  0.39143116  0.60859564  1  0  0.12782  0  0.927001  0  0  0.137913  0  0.985717  0  0  0.142479  0  0.981897  0  0  0.11529  0.134667  0  0.98819  0
H  H8  1  0.34340827  0.99238153  0.04831876  1  0  0.128165  0  0.930777  0  0  0.136254  0  0.992091  0  0  0.141277  0  0.987625  0  0  0.114064  0.132643  0  0.995278  0
H  H9  1  0.65659132  0.00761577  0.95168094  1  0  0.128198  0  0.930744  0  0  0.136287  0  0.99205  0  0  0.141307  0  0.987588  0  0  0.114068  0.132676  0  0.995238  0
H  H10  1  0.22470537  0.36647623  0.20346059  1  0  0.131992  0  0.968183  0  0  0.141098  0  1.028851  0  0  0.145144  0  1.026477  0  0  0.115985  0.138312  0  1.030428  0
H  H11  1  0.77529602  0.63352000  0.79653348  1  0  0.13195  0  0.96817  0  0  0.141047  0  1.028839  0  0  0.145094  0  1.026464  0  0  0.11595  0.138262  0  1.030413  0
H  H12  1  0.90231231  0.90679955  0.15684677  1  0  0.122297  0  0.941369  0  0  0.132024  0  1.003815  0  0  0.136197  0  1.000249  0  0  0.114592  0.128992  0  1.006396  0
H  H13  1  0.09769156  0.09320221  0.84315767  1  0  0.122287  0  0.941379  0  0  0.132042  0  1.003788  0  0  0.136197  0  1.000248  0  0  0.11458  0.12901  0  1.00637  0
H  H14  1  0.02175320  0.22855414  0.50740553  1  0  0.421184  0  0.771242  0  0  0.407896  0  0.818876  0  0  0.417342  0  0.809116  0  0  0.356258  0.401078  0  0.82605  0
H  H15  1  0.97824638  0.77144318  0.49259253  1  0  0.421147  0  0.771288  0  0  0.407855  0  0.818939  0  0  0.4173  0  0.80918  0  0  0.356209  0.401038  0  0.82611  0
H  H16  1  0.44684607  0.76626256  0.70070197  1  0  0.387749  0  0.847308  0  0  0.363524  0  0.921153  0  0  0.372211  0  0.91125  0  0  0.316541  0.357388  0  0.928033  0
H  H17  1  0.55314490  0.23373367  0.29929611  1  0  0.387706  0  0.847373  0  0  0.363508  0  0.921178  0  0  0.372193  0  0.911278  0  0  0.316529  0.357371  0  0.928059  0
H  H18  1  0.87125478  0.12565667  0.25503413  1  0  0.399083  0  0.807635  0  0  0.384929  0  0.858529  0  0  0.392555  0  0.850115  0  0  0.341844  0.379442  0  0.86465  0
H  H19  1  0.12874627  0.87434399  0.74496883  1  0  0.399119  0  0.807597  0  0  0.38496  0  0.858496  0  0  0.392587  0  0.850081  0  0  0.341842  0.379473  0  0.864617  0
H  H20  1  0.93534648  0.47032492  0.79647259  1  0  0.435143  0  0.863838  0  0  0.404733  0  0.927558  0  0  0.415373  0  0.912165  0  0  0.300887  0.397229  0  0.938626  0
H  H21  1  0.06465340  0.52967580  0.20352607  1  0  0.435175  0  0.8638  0  0  0.404761  0  0.927527  0  0  0.415403  0  0.91213  0  0  0.300896  0.397257  0  0.938595  0
H  H22  1  0.33769571  0.30885544  0.80535030  1  0  0.427047  0  0.880972  0  0  0.396583  0  0.944899  0  0  0.406988  0  0.929961  0  0  0.296468  0.389298  0  0.955552  0
H  H23  1  0.66230650  0.69114525  0.19465040  1  0  0.427059  0  0.880958  0  0  0.396601  0  0.944872  0  0  0.407005  0  0.929934  0  0  0.29648  0.389316  0  0.955524  0
H  H24  1  0.05738964  0.61385162  0.77687842  1  0  0.430506  0  0.859602  0  0  0.40239  0  0.917558  0  0  0.412228  0  0.903289  0  0  0.304204  0.39549  0  0.927725  0
H  H25  1  0.94261006  0.38615136  0.22312140  1  0  0.430564  0  0.859519  0  0  0.402452  0  0.917467  0  0  0.412289  0  0.903199  0  0  0.304235  0.395552  0  0.927633  0
H  H26  1  0.14733751  0.29441323  0.74219026  1  0  0.433406  0  0.863938  0  0  0.402458  0  0.928449  0  0  0.413284  0  0.91241  0  0  0.297672  0.3948  0  0.939942  0
H  H27  1  0.85266422  0.70558630  0.25781181  1  0  0.433439  0  0.863882  0  0  0.402459  0  0.928448  0  0  0.413283  0  0.912412  0  0  0.297666  0.394798  0  0.939947  0
C  C28  1  0.47459215  0.76156178  0.34461991  1  0  -0.043484  0  3.772172  0  0  -0.018173  0  4.009885  0  0  -0.024771  0  4.031075  0  0  -0.017083  -0.013751  0  3.994783  0
C  C29  1  0.52540908  0.23843666  0.65537860  1  0  -0.043646  0  3.772148  0  0  -0.018295  0  4.009802  0  0  -0.024893  0  4.030989  0  0  -0.017102  -0.013873  0  3.994701  0
C  C30  1  0.62581037  0.88769509  0.38676424  1  0  -0.088543  0  3.717676  0  0  -0.134294  0  3.977789  0  0  -0.132268  0  3.99561  0  0  -0.0903  -0.135314  0  3.965391  0
C  C31  1  0.37418554  0.11230452  0.61323357  1  0  -0.088496  0  3.717691  0  0  -0.134272  0  3.977814  0  0  -0.132246  0  3.995632  0  0  -0.090325  -0.135291  0  3.965416  0
C  C32  1  0.70077272  0.95769512  0.50841464  1  0  -0.062846  0  3.814698  0  0  -0.039085  0  4.056307  0  0  -0.04797  0  4.081712  0  0  -0.022052  -0.033593  0  4.039494  0
C  C33  1  0.29922300  0.04230674  0.49158516  1  0  -0.062888  0  3.814621  0  0  -0.039099  0  4.056243  0  0  -0.047981  0  4.081651  0  0  -0.022015  -0.033607  0  4.039429  0
C  C34  1  0.62508950  0.90229365  0.58858498  1  0  -0.189584  0  3.687443  0  0  -0.222637  0  3.935997  0  0  -0.225154  0  3.958275  0  0  -0.091109  -0.220611  0  3.921022  0
C  C35  1  0.37490562  0.09770142  0.41141279  1  0  -0.189656  0  3.687586  0  0  -0.222709  0  3.936152  0  0  -0.22523  0  3.958436  0  0  -0.091161  -0.220682  0  3.921174  0
C  C36  1  0.47273951  0.77628473  0.54590385  1  0  0.323969  0  3.83067  0  0  0.321225  0  4.095946  0  0  0.329366  0  4.113513  0  0  0.083712  0.315452  0  4.083217  0
C  C37  1  0.52725823  0.22371374  0.45409409  1  0  0.323981  0  3.83063  0  0  0.321229  0  4.095919  0  0  0.32937  0  4.113488  0  0  0.083708  0.315454  0  4.083192  0
C  C38  1  0.39809512  0.70609853  0.42368192  1  0  -0.142244  0  3.628359  0  0  -0.179439  0  3.877419  0  0  -0.180163  0  3.893437  0  0  -0.079424  -0.178046  0  3.865093  0
C  C39  1  0.60190611  0.29389990  0.57631742  1  0  -0.142224  0  3.628288  0  0  -0.179416  0  3.877355  0  0  -0.18014  0  3.893373  0  0  -0.079436  -0.178024  0  3.865031  0
C  C40  1  0.39921820  0.68632718  0.21458660  1  0  0.660428  0  3.878696  0  0  0.612533  0  4.163245  0  0  0.645783  0  4.161437  0  0  0.210304  0.589787  0  4.167776  0
C  C41  1  0.60078352  0.31367240  0.78541219  1  0  0.660586  0  3.878521  0  0  0.612712  0  4.163033  0  0  0.64596  0  4.161224  0  0  0.210366  0.589965  0  4.167566  0
C  C42  1  0.86041729  0.09210059  0.55482394  1  0  0.650351  0  3.791939  0  0  0.597174  0  4.097571  0  0  0.630125  0  4.088977  0  0  0.237562  0.574708  0  4.103033  0
C  C43  1  0.13956799  0.90789360  0.44515804  1  0  0.650431  0  3.792494  0  0  0.597151  0  4.098214  0  0  0.630097  0  4.089622  0  0  0.23753  0.574688  0  4.103678  0
C  C44  1  0.11874542  0.93412115  0.09848786  1  0  -0.046029  0  3.758463  0  0  -0.020109  0  3.98968  0  0  -0.026739  0  4.01087  0  0  -0.014049  -0.015769  0  3.974434  0
C  C45  1  0.88125796  0.06587950  0.90151467  1  0  -0.045931  0  3.758412  0  0  -0.020015  0  3.989623  0  0  -0.026642  0  4.01081  0  0  -0.014029  -0.015677  0  3.974378  0
C  C46  1  0.26365718  0.03592828  0.08826244  1  0  -0.11097  0  3.713185  0  0  -0.151494  0  3.968081  0  0  -0.150371  0  3.984078  0  0  -0.08778  -0.151981  0  3.956986  0
C  C47  1  0.73634687  0.96407124  0.91173920  1  0  -0.111119  0  3.713332  0  0  -0.151634  0  3.968245  0  0  -0.150509  0  3.984244  0  0  -0.087862  -0.152118  0  3.957147  0
C  C48  1  0.29923087  0.19111134  0.12418444  1  0  -0.053647  0  3.800101  0  0  -0.028528  0  4.038732  0  0  -0.033886  0  4.057787  0  0  -0.016432  -0.0248  0  4.025346  0
C  C49  1  0.70077734  0.80888701  0.87581853  1  0  -0.053632  0  3.800218  0  0  -0.028548  0  4.03886  0  0  -0.033906  0  4.057917  0  0  -0.016372  -0.024816  0  4.025468  0
C  C50  1  0.19712859  0.24561322  0.17660024  1  0  -0.170489  0  3.659554  0  0  -0.205416  0  3.910535  0  0  -0.206881  0  3.92686  0  0  -0.08972  -0.204711  0  3.899709  0
C  C51  1  0.80287402  0.75438284  0.82340553  1  0  -0.170435  0  3.659632  0  0  -0.205308  0  3.910583  0  0  -0.206775  0  3.92691  0  0  -0.08968  -0.204604  0  3.899754  0
C  C52  1  0.05764509  0.14345505  0.19183052  1  0  0.319159  0  3.812447  0  0  0.311476  0  4.085415  0  0  0.319434  0  4.102026  0  0  0.080695  0.305767  0  4.07411  0
C  C53  1  0.94235685  0.85654214  0.80817614  1  0  0.319231  0  3.812431  0  0  0.311528  0  4.085397  0  0  0.319486  0  4.102003  0  0  0.080708  0.305819  0  4.074091  0
C  C54  1  0.01490870  0.98773075  0.14993089  1  0  -0.18131  0  3.712956  0  0  -0.217186  0  3.969634  0  0  -0.218385  0  3.987117  0  0  -0.089467  -0.215696  0  3.957265  0
C  C55  1  0.98509604  0.01226759  0.85007396  1  0  -0.181396  0  3.712988  0  0  -0.217268  0  3.969633  0  0  -0.218457  0  3.987118  0  0  -0.089479  -0.215776  0  3.957257  0
C  C56  1  0.07673574  0.76759660  0.05190002  1  0  0.732483  0  3.848168  0  0  0.684951  0  4.136177  0  0  0.721208  0  4.12839  0  0  0.236159  0.66099  0  4.142797  0
C  C57  1  0.92326396  0.23240635  0.94810227  1  0  0.732342  0  3.848258  0  0  0.684787  0  4.136301  0  0  0.721044  0  4.128518  0  0  0.236107  0.660827  0  4.142916  0
C  C58  1  0.44525906  0.29621804  0.10206751  1  0  0.687791  0  3.87525  0  0  0.64329  0  4.159643  0  0  0.677731  0  4.157055  0  0  0.21735  0.619649  0  4.166117  0
C  C59  1  0.55474064  0.70378490  0.89793477  1  0  0.687942  0  3.875052  0  0  0.64343  0  4.159501  0  0  0.677871  0  4.156906  0  0  0.217431  0.619786  0  4.165976  0
O  O60  1  0.48586766  0.72730354  0.14725081  1  0  -0.697004  0  2.015273  0  0  -0.641013  0  2.241582  0  0  -0.673235  0  2.232111  0  0  -0.359502  -0.623416  0  2.247245  0
O  O61  1  0.51413570  0.27269715  0.85274843  1  0  -0.697043  0  2.015142  0  0  -0.64105  0  2.241449  0  0  -0.673274  0  2.231977  0  0  -0.359535  -0.623454  0  2.247114  0
O  O62  1  0.25362427  0.58068255  0.17105525  1  0  -0.68787  0  2.072804  0  0  -0.632162  0  2.307822  0  0  -0.664478  0  2.29939  0  0  -0.334084  -0.614473  0  2.313099  0
O  O63  1  0.74637678  0.41931814  0.82894525  1  0  -0.687894  0  2.072765  0  0  -0.632205  0  2.307781  0  0  -0.664525  0  2.299349  0  0  -0.334092  -0.614516  0  2.313059  0
O  O64  1  0.92018724  0.13616739  0.46874071  1  0  -0.548236  0  2.062521  0  0  -0.506584  0  2.276595  0  0  -0.525934  0  2.26073  0  0  -0.328486  -0.492985  0  2.28724  0
O  O65  1  0.07980983  0.86383218  0.53125976  1  0  -0.548314  0  2.062299  0  0  -0.506647  0  2.276391  0  0  -0.525998  0  2.260531  0  0  -0.328491  -0.493049  0  2.287038  0
O  O66  1  0.93493496  0.15915250  0.66026336  1  0  -0.53051  0  2.007835  0  0  -0.478511  0  2.226204  0  0  -0.499671  0  2.21869  0  0  -0.257936  -0.46388  0  2.23101  0
O  O67  1  0.06507357  0.84084917  0.33974596  1  0  -0.530428  0  2.008973  0  0  -0.478299  0  2.227275  0  0  -0.499448  0  2.219757  0  0  -0.257841  -0.463665  0  2.232072  0
O  O68  1  0.38777856  0.71607738  0.61598004  1  0  -0.501215  0  2.07978  0  0  -0.455722  0  2.274265  0  0  -0.472129  0  2.265521  0  0  -0.353287  -0.443848  0  2.279383  0
O  O69  1  0.61221753  0.28391996  0.38401744  1  0  -0.501187  0  2.079803  0  0  -0.455708  0  2.274258  0  0  -0.472114  0  2.265513  0  0  -0.353279  -0.443832  0  2.279377  0
O  O70  1  0.17660215  0.72969906  0.00515194  1  0  -0.740812  0  2.110049  0  0  -0.69227  0  2.372407  0  0  -0.727874  0  2.358759  0  0  -0.401868  -0.674606  0  2.379206  0
O  O71  1  0.82339658  0.27030162  0.99484982  1  0  -0.740744  0  2.110054  0  0  -0.692191  0  2.372444  0  0  -0.7278  0  2.358798  0  0  -0.401816  -0.674525  0  2.379238  0
O  O72  1  0.94524249  0.67563777  0.06137945  1  0  -0.753758  0  2.09922  0  0  -0.704125  0  2.37448  0  0  -0.741089  0  2.358366  0  0  -0.42133  -0.686064  0  2.38234  0
O  O73  1  0.05475722  0.32436517  0.93862284  1  0  -0.753669  0  2.099267  0  0  -0.704037  0  2.374545  0  0  -0.740996  0  2.358435  0  0  -0.421316  -0.685976  0  2.382403  0
O  O74  1  0.58398060  0.27721797  0.12715235  1  0  -0.671311  0  1.920704  0  0  -0.623859  0  2.147846  0  0  -0.654651  0  2.135101  0  0  -0.364136  -0.607789  0  2.1549  0
O  O75  1  0.41602172  0.72278838  0.87284928  1  0  -0.67138  0  1.920688  0  0  -0.62392  0  2.147815  0  0  -0.654716  0  2.13508  0  0  -0.364175  -0.607859  0  2.154888  0
O  O76  1  0.42965820  0.40090065  0.05571467  1  0  -0.786532  0  2.110473  0  0  -0.729149  0  2.365476  0  0  -0.772027  0  2.355905  0  0  -0.404823  -0.710115  0  2.370663  0
O  O77  1  0.57033655  0.59909894  0.94428541  1  0  -0.786618  0  2.110425  0  0  -0.729194  0  2.365377  0  0  -0.77207  0  2.355796  0  0  -0.404884  -0.710161  0  2.370568  0
O  O78  1  0.96523629  0.20459597  0.24741869  1  0  -0.513689  0  2.114895  0  0  -0.458776  0  2.311317  0  0  -0.474701  0  2.300653  0  0  -0.339193  -0.447051  0  2.318237  0
O  O79  1  0.03476195  0.79540361  0.75258116  1  0  -0.513741  0  2.114911  0  0  -0.458831  0  2.311338  0  0  -0.474753  0  2.300671  0  0  -0.339187  -0.447103  0  2.318255  0
O  O80  1  0.04704279  0.51347233  0.78589853  1  0  -0.881123  0  1.852587  0  0  -0.835357  0  2.033959  0  0  -0.861781  0  1.998517  0  0  -0.632637  -0.822091  0  2.055275  0
O  O81  1  0.95295857  0.48653173  0.21410422  1  0  -0.881201  0  1.852489  0  0  -0.835464  0  2.033922  0  0  -0.861885  0  1.998465  0  0  -0.63266  -0.822198  0  2.055239  0
O  O82  1  0.26322985  0.36542914  0.78854178  1  0  -0.912648  0  1.891502  0  0  -0.868159  0  2.080786  0  0  -0.895072  0  2.043707  0  0  -0.653508  -0.855136  0  2.102708  0
O  O83  1  0.73676839  0.63457043  0.21145807  1  0  -0.912633  0  1.891392  0  0  -0.86813  0  2.080693  0  0  -0.895049  0  2.04362  0  0  -0.653487  -0.855107  0  2.102614  0
