# generated using pymatgen
data_NiH16C14(NO3)2
_symmetry_space_group_name_H-M   'P 1'
_cell_length_a   7.20905850
_cell_length_b   9.06640997
_cell_length_c   11.65849617
_cell_angle_alpha   72.05719019
_cell_angle_beta   83.25299445
_cell_angle_gamma   75.61722696
_symmetry_Int_Tables_number   1
_chemical_formula_structural   NiH16C14(NO3)2
_chemical_formula_sum   'Ni2 H32 C28 N4 O12'
_cell_volume   701.52693082
_cell_formula_units_Z   2
loop_
 _symmetry_equiv_pos_site_id
 _symmetry_equiv_pos_as_xyz
  1  'x, y, z'
loop_
 _atom_site_type_symbol
 _atom_site_label
 _atom_site_symmetry_multiplicity
 _atom_site_fract_x
 _atom_site_fract_y
 _atom_site_fract_z
 _atom_site_occupancy
 _atom_site_pbe_cm5_charge
 _atom_site_pbe_ddec_charge
 _atom_site_pbe_ddec_spin_density
 _atom_site_pbe_ddec_sum_bond_order
 _atom_site_pbe_magmom
Ni  Ni0  1  0.99999826  0.49999864  0.50000136  1  0.606343  0.867438  -1.851137  2.272491  -1.541
Ni  Ni1  1  0.50000137  0.50000162  0.99999928  1  0.577981  0.749433  0.022457  2.341102  -0.055
H  H2  1  0.06458274  0.64971048  0.26274773  1  0.295426  0.399059  -0.000886  0.934357  -0.001
H  H3  1  0.93541467  0.35029371  0.73725729  1  0.295446  0.399115  -0.000886  0.93428  -0.001
H  H4  1  0.91186436  0.53240044  0.29097694  1  0.28212  0.361607  -0.000191  0.995562  0.0
H  H5  1  0.08814076  0.46759656  0.70902509  1  0.282126  0.361628  -0.000191  0.99553  0.0
H  H6  1  0.32623813  0.37404100  0.38348394  1  0.296066  0.292123  -0.000138  0.974871  0.0
H  H7  1  0.67375752  0.62595484  0.61651887  1  0.296063  0.292141  -0.000138  0.97489  0.0
H  H8  1  0.35131707  0.36088328  0.52792141  1  0.313039  0.308731  0.000625  0.911359  0.001
H  H9  1  0.64868498  0.63911014  0.47207821  1  0.313059  0.30878  0.000625  0.911273  0.001
H  H10  1  0.22890767  0.86083322  0.75087513  1  0.101943  0.103157  6.3e-05  1.029305  0.0
H  H11  1  0.77109388  0.13916142  0.24912765  1  0.101933  0.103142  6.3e-05  1.02925  0.0
H  H12  1  0.25134395  0.14398742  0.69386789  1  0.100492  0.112914  -4.6e-05  1.050185  0.0
H  H13  1  0.74865391  0.85601078  0.30613338  1  0.100531  0.113016  -4.6e-05  1.050164  0.0
H  H14  1  0.29054065  0.16704919  0.31873854  1  0.100735  0.11359  0.000119  1.026238  0.0
H  H15  1  0.70946527  0.83294540  0.68126058  1  0.100745  0.113609  0.000118  1.026189  0.0
H  H16  1  0.25194997  0.88639988  0.37526538  1  0.102007  0.103329  -8.7e-05  1.022325  0.0
H  H17  1  0.74805506  0.11359236  0.62473693  1  0.101997  0.103329  -8.7e-05  1.022344  0.0
H  H18  1  0.42888283  0.59737455  0.76252388  1  0.286013  0.363288  -0.000139  0.985906  0.0
H  H19  1  0.57111877  0.40263077  0.23747464  1  0.285994  0.363257  -0.000139  0.985938  0.0
H  H20  1  0.62719999  0.46699007  0.79919541  1  0.278597  0.352679  1e-05  1.01434  0.0
H  H21  1  0.37279597  0.53301050  0.20080283  1  0.278585  0.352654  1e-05  1.014357  0.0
H  H22  1  0.09558641  0.97348134  0.20488725  1  0.10709  0.108561  -3e-06  1.023066  0.0
H  H23  1  0.90441754  0.02652040  0.79511200  1  0.107103  0.108575  -3e-06  1.023084  0.0
H  H24  1  0.15195217  0.49886327  0.03526030  1  0.30971  0.295711  0.000335  0.932502  0.0
H  H25  1  0.84805119  0.50114085  0.96473755  1  0.309714  0.295733  0.000335  0.93245  0.0
H  H26  1  0.21134662  0.51956130  0.88911223  1  0.301933  0.296851  0.000165  0.979941  0.0
H  H27  1  0.78865913  0.48043923  0.11088549  1  0.301924  0.29679  0.000165  0.980014  0.0
H  H28  1  0.38309697  0.99197661  0.85885238  1  0.109599  0.113396  -0.00017  1.009275  0.0
H  H29  1  0.61689119  0.00803231  0.14114429  1  0.10956  0.113338  -0.00017  1.009265  0.0
H  H30  1  0.08136521  0.25995783  0.16931105  1  0.10189  0.11164  7.5e-05  1.028352  0.0
H  H31  1  0.91863283  0.74004513  0.83068822  1  0.10189  0.111632  7.5e-05  1.02834  0.0
H  H32  1  0.36705766  0.28041163  0.81982072  1  0.108295  0.119441  -8.8e-05  0.996905  0.0
H  H33  1  0.63293808  0.71959489  0.18017697  1  0.108273  0.119438  -8.8e-05  0.996876  0.0
C  C34  1  0.23972921  0.92827886  0.65607816  1  -0.084168  -0.076183  0.002638  3.990023  0.002
C  C35  1  0.76027248  0.07171576  0.34392205  1  -0.084123  -0.076036  0.002638  3.989773  0.002
C  C36  1  0.23478435  0.85655801  0.56600074  1  -0.037552  -0.084755  -0.011853  4.034165  -0.013
C  C37  1  0.76521915  0.14344017  0.43399937  1  -0.037551  -0.08477  -0.011853  4.034058  -0.013
C  C38  1  0.25559152  0.08518436  0.62502402  1  -0.100059  -0.183304  -0.007892  3.949885  -0.008
C  C39  1  0.74440845  0.91481145  0.37497599  1  -0.100128  -0.183511  -0.007891  3.950042  -0.008
C  C40  1  0.27165932  0.10015127  0.41293991  1  -0.097493  -0.185339  -0.008078  3.952874  -0.008
C  C41  1  0.72834512  0.89984334  0.58706101  1  -0.097513  -0.185457  -0.008079  3.952882  -0.008
C  C42  1  0.26999759  0.17255169  0.50334874  1  0.096359  0.296323  0.00467  4.014199  0.005
C  C43  1  0.73000207  0.82744531  0.49665100  1  0.0964  0.296384  0.00467  4.014144  0.005
C  C44  1  0.25294578  0.94394626  0.44443340  1  -0.082544  -0.065712  0.003498  3.989162  0.003
C  C45  1  0.74705871  0.05604834  0.55556666  1  -0.082549  -0.065664  0.003497  3.989103  0.003
C  C46  1  0.19888990  0.69449500  0.59645484  1  0.206599  0.571939  -0.002809  4.191855  -0.002
C  C47  1  0.80111102  0.30550201  0.40354741  1  0.206615  0.571946  -0.002811  4.191827  -0.002
C  C48  1  0.24140229  0.96387831  0.03416312  1  -0.024587  -0.065518  0.010745  4.002649  0.007
C  C49  1  0.75860342  0.03612222  0.96583546  1  -0.024581  -0.065588  0.010743  4.002772  0.007
C  C50  1  0.15481663  0.04119238  0.12058873  1  -0.07841  -0.06675  -0.002475  3.960642  -0.004
C  C51  1  0.84518768  0.95881294  0.87941136  1  -0.078422  -0.066677  -0.002475  3.960651  -0.004
C  C52  1  0.31239084  0.05299914  0.92463689  1  -0.076977  -0.066423  -0.002494  3.967145  -0.004
C  C53  1  0.68760896  0.94700261  0.07536172  1  -0.076912  -0.066269  -0.002494  3.9671  -0.004
C  C54  1  0.14779656  0.20199220  0.10056335  1  -0.097377  -0.18388  0.011453  3.938761  0.008
C  C55  1  0.85220446  0.79800957  0.89943862  1  -0.097402  -0.183953  0.011455  3.938913  0.008
C  C56  1  0.22783397  0.28832515  0.99294042  1  0.088311  0.275645  -0.00132  3.99748  -0.004
C  C57  1  0.77217101  0.71167778  0.00705935  1  0.088364  0.275688  -0.001319  3.997536  -0.004
C  C58  1  0.30524265  0.21359390  0.90359720  1  -0.094944  -0.174981  0.010928  3.953666  0.008
C  C59  1  0.69475647  0.78641024  0.09640173  1  -0.094947  -0.17502  0.010925  3.95368  0.008
C  C60  1  0.27897119  0.78724100  0.06407066  1  0.214661  0.571109  -0.000227  4.187299  0.0
C  C61  1  0.72102689  0.21276194  0.93592775  1  0.214701  0.571177  -0.000228  4.187128  0.0
N  N62  1  0.27548791  0.33489209  0.47103141  1  -0.585939  -0.593992  -0.03931  3.409138  -0.055
N  N63  1  0.72450923  0.66510373  0.52896961  1  -0.585991  -0.594063  -0.039313  3.408947  -0.055
N  N64  1  0.23987500  0.44838741  0.97568535  1  -0.593978  -0.581284  0.047133  3.447312  0.04
N  N65  1  0.76012859  0.55161553  0.02431449  1  -0.593993  -0.581279  0.047133  3.447281  0.04
O  O66  1  0.96057955  0.61019046  0.31809763  1  -0.578477  -0.769514  -0.033169  2.231644  -0.049
O  O67  1  0.03941894  0.38981014  0.68190562  1  -0.578514  -0.76957  -0.033169  2.231591  -0.049
O  O68  1  0.17052927  0.64831499  0.50855407  1  -0.318579  -0.550266  -0.035365  2.33583  -0.054
O  O69  1  0.82945799  0.35168566  0.49145062  1  -0.318604  -0.550327  -0.035364  2.335771  -0.054
O  O70  1  0.19596062  0.60965521  0.70842327  1  -0.333702  -0.597516  -0.001787  2.22028  -0.003
O  O71  1  0.80404319  0.39034178  0.29157711  1  -0.333699  -0.5975  -0.001787  2.220206  -0.003
O  O72  1  0.55638686  0.58022959  0.79455583  1  -0.580067  -0.742819  -0.004893  2.087439  -0.007
O  O73  1  0.44361568  0.41977216  0.20544349  1  -0.580047  -0.742774  -0.004893  2.08746  -0.007
O  O74  1  0.35334061  0.72359867  0.98022472  1  -0.310222  -0.528905  -0.025165  2.381697  -0.036
O  O75  1  0.64666523  0.27640662  0.01977271  1  -0.310263  -0.528913  -0.025164  2.381607  -0.036
O  O76  1  0.24720313  0.70801906  0.17307655  1  -0.317952  -0.562368  0.000472  2.260644  0.0
O  O77  1  0.75278918  0.29198507  0.82691931  1  -0.317966  -0.562456  0.000472  2.26056  0.0
