# generated using pymatgen
data_AlH9C17O5F4
_symmetry_space_group_name_H-M   'P 1'
_cell_length_a   6.66058347
_cell_length_b   23.12964619
_cell_length_c   26.54203492
_cell_angle_alpha   101.97459660
_cell_angle_beta   90.00050550
_cell_angle_gamma   89.99946462
_symmetry_Int_Tables_number   1
_chemical_formula_structural   AlH9C17O5F4
_chemical_formula_sum   'Al4 H36 C68 O20 F16'
_cell_volume   4000.00706991
_cell_formula_units_Z   4
loop_
 _symmetry_equiv_pos_site_id
 _symmetry_equiv_pos_as_xyz
  1  'x, y, z'
loop_
 _atom_site_type_symbol
 _atom_site_label
 _atom_site_symmetry_multiplicity
 _atom_site_fract_x
 _atom_site_fract_y
 _atom_site_fract_z
 _atom_site_occupancy
 _atom_site_pbe_bader_charge
 _atom_site_pbe_bader_spin_density
 _atom_site_pbe_cm5_charge
 _atom_site_pbe_ddec_charge
 _atom_site_pbe_ddec_spin_density
 _atom_site_pbe_ddec_sum_bond_order
 _atom_site_pbe_magmom
Al  Al0  1  0.13236592  0.49931826  0.50027779  1  2.502319  0  0.402728  1.647118  0  2.580937  0
Al  Al1  1  0.63235503  0.50068562  0.49972124  1  2.502086  0  0.402702  1.647026  0  2.581202  0
Al  Al2  1  0.68043491  0.00079148  0.99969547  1  2.502171  0  0.403242  1.649883  0  2.580739  0
Al  Al3  1  0.18043377  0.99921129  0.00030480  1  2.502131  0  0.403261  1.649871  0  2.580854  0
H  H4  1  0.23890437  0.88047503  0.09533141  1  0.16217  0  0.11788  0.149572  0  0.99719  0
H  H5  1  0.73892103  0.11951915  0.90466544  1  0.16189  0  0.117895  0.149566  0  0.99709  0
H  H6  1  0.20582689  0.81378695  0.25034701  1  0.082826  0  0.101977  0.105993  0  1.002948  0
H  H7  1  0.70583313  0.18621292  0.74966059  1  0.082801  0  0.10193  0.105932  0  1.002943  0
H  H8  1  0.18192733  0.74871405  0.31256962  1  0.093925  0  0.103907  0.109309  0  1.001716  0
H  H9  1  0.68191856  0.25127878  0.68743250  1  0.094061  0  0.103921  0.109353  0  1.001614  0
H  H10  1  0.62739777  0.75195256  0.18818261  1  0.05831  0  0.104091  0.109166  0  1.000307  0
H  H11  1  0.12740813  0.24804533  0.81182252  1  0.058278  0  0.104087  0.109215  0  1.000198  0
H  H12  1  0.12136735  0.83840661  0.75241743  1  0.050207  0  0.105907  0.117382  0  0.962317  0
H  H13  1  0.62130748  0.16158688  0.24757996  1  0.050097  0  0.10586  0.117271  0  0.962617  0
H  H14  1  0.86677530  0.84844206  0.73706887  1  0.062152  0  0.105036  0.116423  0  0.962297  0
H  H15  1  0.36673190  0.15156295  0.26292984  1  0.06276  0  0.105017  0.116376  0  0.962299  0
H  H16  1  0.91957719  0.77484833  0.66287121  1  0.081452  0  0.104042  0.117456  0  0.96464  0
H  H17  1  0.41958291  0.22515645  0.33712298  1  0.081522  0  0.104004  0.117345  0  0.964696  0
H  H18  1  0.15280577  0.75420097  0.68592326  1  0.061848  0  0.100875  0.113688  0  0.97935  0
H  H19  1  0.65278997  0.24579213  0.31407151  1  0.062079  0  0.100864  0.113683  0  0.979287  0
H  H20  1  0.94498212  0.65275192  0.76595395  1  0.097522  0  0.115902  0.082031  0  0.935867  0
H  H21  1  0.44497985  0.34724357  0.23405175  1  0.096125  0  0.1159  0.08208  0  0.936013  0
H  H22  1  0.66143123  0.74184872  0.81416055  1  0.05552  0  0.111646  0.074782  0  0.948885  0
H  H23  1  0.16138973  0.25814690  0.18584117  1  0.055385  0  0.111593  0.073853  0  0.948053  0
H  H24  1  0.60052860  0.68213177  0.73249254  1  0.104965  0  0.107323  0.070176  0  0.967371  0
H  H25  1  0.10050273  0.31787734  0.26750763  1  0.104723  0  0.107364  0.070199  0  0.96756  0
H  H26  1  0.57276741  0.61971414  0.40548266  1  0.15989  0  0.118466  0.150265  0  0.994836  0
H  H27  1  0.07279430  0.38028009  0.59451004  1  0.159494  0  0.118449  0.150281  0  0.994728  0
H  H28  1  0.20001128  0.64902164  0.31337433  1  0.080596  0  0.108348  0.132968  0  1.013842  0
H  H29  1  0.69997709  0.35096826  0.68662011  1  0.080707  0  0.108358  0.133022  0  1.013868  0
H  H30  1  0.60977474  0.85134772  0.18664366  1  0.081  0  0.108099  0.132866  0  1.01462  0
H  H31  1  0.10976548  0.14865794  0.81336572  1  0.080849  0  0.108113  0.13283  0  1.014671  0
H  H32  1  0.20743181  0.75722623  0.79757268  1  0.124964  0  0.114279  0.087705  0  0.957526  0
H  H33  1  0.70738560  0.24277408  0.20243300  1  0.12476  0  0.11431  0.087717  0  0.957833  0
H  H34  1  0.60353724  0.68697421  0.25046513  1  0.093138  0  0.102195  0.106598  0  1.00343  0
H  H35  1  0.10351608  0.31302333  0.74954111  1  0.092881  0  0.102207  0.106591  0  1.00339  0
H  H36  1  0.37958700  0.57616404  0.52377439  1  0.633948  0  0.359706  0.439723  0  0.839444  0
H  H37  1  0.87960564  0.42384947  0.47622517  1  0.633867  0  0.35973  0.439702  0  0.839606  0
H  H38  1  0.43394580  0.92266750  0.98114976  1  0.648388  0  0.360611  0.44113  0  0.836163  0
H  H39  1  0.93393402  0.07733583  0.01884522  1  0.648547  0  0.360578  0.441043  0  0.836386  0
C  C40  1  0.42960161  0.07724916  0.07697718  1  1.693083  0  0.281535  0.728174  0  4.146862  0
C  C41  1  0.92961230  0.92275121  0.92302199  1  1.693543  0  0.281504  0.72819  0  4.147015  0
C  C42  1  0.38300792  0.42307968  0.42263702  1  1.687624  0  0.281617  0.728547  0  4.145616  0
C  C43  1  0.88295589  0.57692432  0.57736056  1  1.687473  0  0.281987  0.729083  0  4.145521  0
C  C44  1  0.38441944  0.43707398  0.56241734  1  1.598819  0  0.266007  0.656364  0  4.104226  0
C  C45  1  0.88439998  0.56292267  0.43757826  1  1.598553  0  0.266031  0.656414  0  4.10408  0
C  C46  1  0.75016309  0.89219821  0.13077579  1  0.478994  0  0.10697  0.277929  0  4.042728  0
C  C47  1  0.25017084  0.10779989  0.86922649  1  0.478749  0  0.106876  0.277767  0  4.0429  0
C  C48  1  0.74945371  0.85641069  0.16671791  1  0.054214  0  -0.099885  -0.251897  0  3.994406  0
C  C49  1  0.24946443  0.14358584  0.83328321  1  0.054325  0  -0.099902  -0.251881  0  3.994534  0
C  C50  1  0.92450843  0.82756141  0.17773726  1  0.016699  0  -0.005466  0.00105  0  4.017777  0
C  C51  1  0.42452319  0.17243433  0.82226264  1  0.017226  0  -0.005434  0.001119  0  4.01786  0
C  C52  1  0.09807171  0.83824815  0.15102841  1  0.397729  0  0.091866  0.222153  0  4.036978  0
C  C53  1  0.59809068  0.16174994  0.84897283  1  0.39818  0  0.091847  0.22204  0  4.036774  0
C  C54  1  0.10040559  0.87382085  0.11512623  1  0.026941  0  -0.087066  -0.192335  0  3.984846  0
C  C55  1  0.60042155  0.12617109  0.88487074  1  0.026461  0  -0.08696  -0.192095  0  3.984651  0
C  C56  1  0.92378599  0.90150931  0.10348715  1  0.023377  0  -0.017867  -0.129716  0  3.965621  0
C  C57  1  0.42380881  0.09847860  0.89650500  1  0.023501  0  -0.017868  -0.129716  0  3.965592  0
C  C58  1  0.07436301  0.78565920  0.24977400  1  -0.021051  0  -0.088958  -0.123671  0  3.991236  0
C  C59  1  0.57435458  0.21433785  0.75022718  1  -0.021055  0  -0.088987  -0.1237  0  3.991124  0
C  C60  1  0.06087252  0.74881326  0.28488282  1  -0.108083  0  -0.089523  -0.124479  0  3.975237  0
C  C61  1  0.56085645  0.25118577  0.71511797  1  -0.108192  0  -0.089412  -0.124405  0  3.974687  0
C  C62  1  0.89152469  0.71272498  0.28607206  1  0.001155  0  -0.008596  0.078858  0  4.004285  0
C  C63  1  0.39149619  0.28727130  0.71392932  1  0.001633  0  -0.008692  0.078846  0  4.00407  0
C  C64  1  0.73500713  0.71505970  0.25099515  1  -0.035704  0  -0.089966  -0.124881  0  3.991586  0
C  C65  1  0.23498412  0.28493420  0.74900439  1  -0.035475  0  -0.089902  -0.124738  0  3.991491  0
C  C66  1  0.74847510  0.75192776  0.21589418  1  -0.054424  0  -0.088536  -0.123041  0  3.972452  0
C  C67  1  0.24849277  0.24807406  0.78411120  1  -0.054516  0  -0.088485  -0.123134  0  3.97245  0
C  C68  1  0.91798606  0.78792075  0.21463788  1  0.025903  0  -0.008568  0.079162  0  4.003549  0
C  C69  1  0.41799715  0.21207531  0.78536547  1  0.025679  0  -0.008699  0.079032  0  4.003786  0
C  C70  1  0.71238395  0.66209511  0.34965415  1  0.37502  0  0.090339  0.220627  0  4.037279  0
C  C71  1  0.21239054  0.33790641  0.65034155  1  0.375189  0  0.09041  0.220657  0  4.037117  0
C  C72  1  0.71076021  0.62642065  0.38546869  1  0.063692  0  -0.086656  -0.191272  0  3.981736  0
C  C73  1  0.21077732  0.37357625  0.61452390  1  0.064148  0  -0.086612  -0.191212  0  3.981389  0
C  C74  1  0.88775313  0.59861530  0.39674219  1  0.010319  0  -0.018125  -0.130111  0  3.966847  0
C  C75  1  0.38776540  0.40137615  0.60324953  1  0.010198  0  -0.018306  -0.130324  0  3.967033  0
C  C76  1  0.06074747  0.60787738  0.36922619  1  0.487001  0  0.106581  0.277505  0  4.043334  0
C  C77  1  0.56073677  0.39211105  0.63076798  1  0.486847  0  0.106595  0.277609  0  4.043736  0
C  C78  1  0.06083978  0.64391459  0.33347969  1  0.024292  0  -0.099944  -0.250901  0  3.996456  0
C  C79  1  0.56080961  0.35607853  0.66651606  1  0.024504  0  -0.100016  -0.251184  0  3.996446  0
C  C80  1  0.88559988  0.67289214  0.32282055  1  0.060313  0  -0.00529  -0.000318  0  4.020299  0
C  C81  1  0.38557219  0.32710385  0.67718158  1  0.060087  0  -0.005087  -0.000132  0  4.020046  0
C  C82  1  0.69566276  0.76547275  0.78322108  1  0.535629  0  0.027707  0.101923  0  3.807187  0
C  C83  1  0.19565821  0.23453907  0.21678428  1  0.535245  0  0.027837  0.107908  0  3.797144  0
C  C84  1  0.97703556  0.81562986  0.74369931  1  -0.010384  0  -0.148774  -0.18744  0  3.83587  0
C  C85  1  0.47700637  0.18437111  0.25629727  1  -0.010714  0  -0.148624  -0.187227  0  3.836335  0
C  C86  1  0.99526308  0.76416609  0.69643579  1  -0.052259  0  -0.154442  -0.194635  0  3.842903  0
C  C87  1  0.49524713  0.23583787  0.30355815  1  -0.052154  0  -0.154457  -0.194697  0  3.843115  0
C  C88  1  0.88538768  0.62200661  0.62400642  1  0.055138  0  -0.037037  -0.194527  0  3.948724  0
C  C89  1  0.38541805  0.37799701  0.37599885  1  0.053003  0  -0.036919  -0.194208  0  3.94851  0
C  C90  1  0.90826100  0.79255706  0.79193778  1  0.119594  0  -0.004479  0.049509  0  3.938298  0
C  C91  1  0.40823143  0.20744627  0.20805984  1  0.119559  0  -0.00461  0.047919  0  3.937722  0
C  C92  1  0.68394464  0.72239656  0.72990741  1  0.493433  0  0.031384  0.109929  0  3.7843  0
C  C93  1  0.18390991  0.27761327  0.27009907  1  0.493851  0  0.031334  0.108438  0  3.783088  0
C  C94  1  0.89890824  0.70744205  0.70840217  1  0.124455  0  -0.002872  0.049691  0  3.927131  0
C  C95  1  0.39888762  0.29256243  0.29160082  1  0.124049  0  -0.002885  0.049799  0  3.927835  0
C  C96  1  0.02123712  0.68868008  0.75201031  1  0.481816  0  0.032895  0.111179  0  3.811583  0
C  C97  1  0.52120000  0.31131466  0.24798999  1  0.484012  0  0.032903  0.11075  0  3.81217  0
C  C98  1  0.05145714  0.74141637  0.79693179  1  0.48111  0  0.030323  0.110045  0  3.809122  0
C  C99  1  0.55144765  0.25858162  0.20306667  1  0.4813  0  0.030283  0.110124  0  3.809455  0
C  C100  1  0.89213316  0.66045009  0.66277723  1  -0.289536  0  -0.023017  -0.023067  0  4.034985  0
C  C101  1  0.39212785  0.33955806  0.33722309  1  -0.287825  0  -0.023122  -0.023321  0  4.034669  0
C  C102  1  0.91697141  0.83883889  0.83797388  1  -0.356411  0  -0.023532  -0.02272  0  4.038022  0
C  C103  1  0.41696543  0.16116338  0.16202644  1  -0.356606  0  -0.023556  -0.0228  0  4.038714  0
C  C104  1  0.92644634  0.87762008  0.87644805  1  0.120036  0  -0.035544  -0.190553  0  3.946839  0
C  C105  1  0.42641226  0.12238063  0.12355458  1  0.120571  0  -0.035519  -0.190556  0  3.946848  0
C  C106  1  0.42804959  0.06272927  0.93734450  1  1.601933  0  0.267896  0.659322  0  4.098781  0
C  C107  1  0.92803095  0.93726553  0.06265117  1  1.601997  0  0.267779  0.659222  0  4.099195  0
O  O108  1  0.55278455  0.45066777  0.54560350  1  -1.247372  0  -0.23549  -0.595929  0  2.375976  0
O  O109  1  0.05276265  0.54934110  0.45440465  1  -1.247102  0  -0.235514  -0.595939  0  2.375905  0
O  O110  1  0.21201774  0.43972093  0.44156413  1  -1.236849  0  -0.22507  -0.581657  0  2.278407  0
O  O111  1  0.71197454  0.56029250  0.55842128  1  -1.235964  0  -0.225367  -0.581906  0  2.27869  0
O  O112  1  0.21211331  0.44952239  0.54665550  1  -1.249697  0  -0.235975  -0.588432  0  2.329202  0
O  O113  1  0.71208616  0.55046802  0.45333512  1  -1.249581  0  -0.23601  -0.588479  0  2.329234  0
O  O114  1  0.05333419  0.55855079  0.55915639  1  -1.23949  0  -0.224643  -0.580032  0  2.28447  0
O  O115  1  0.55338408  0.44145131  0.44084864  1  -1.238428  0  -0.224557  -0.579852  0  2.284395  0
O  O116  1  0.76011019  0.95095972  0.04569358  1  -1.24554  0  -0.235273  -0.596689  0  2.376475  0
O  O117  1  0.26012590  0.04904434  0.95430800  1  -1.245262  0  -0.235413  -0.596812  0  2.376218  0
O  O118  1  0.38153820  0.53570057  0.50449633  1  -1.433015  0  -0.44698  -0.995162  0  2.199322  0
O  O119  1  0.88156100  0.46430881  0.49550590  1  -1.433054  0  -0.447051  -0.995275  0  2.199542  0
O  O120  1  0.60080347  0.06083424  0.05804712  1  -1.240596  0  -0.226132  -0.582602  0  2.279465  0
O  O121  1  0.10082240  0.93916836  0.94194915  1  -1.24082  0  -0.226162  -0.582625  0  2.279328  0
O  O122  1  0.43136377  0.96459811  0.99600601  1  -1.448235  0  -0.446453  -0.997619  0  2.208075  0
O  O123  1  0.93137234  0.03540529  0.00398935  1  -1.448366  0  -0.446482  -0.997592  0  2.208308  0
O  O124  1  0.25915190  0.05876360  0.05891197  1  -1.238093  0  -0.225302  -0.580635  0  2.284909  0
O  O125  1  0.75916845  0.94123820  0.94108920  1  -1.238083  0  -0.22524  -0.580583  0  2.28486  0
O  O126  1  0.60062747  0.05029258  0.95295725  1  -1.252654  0  -0.236017  -0.588554  0  2.324609  0
O  O127  1  0.10061105  0.94970622  0.04704323  1  -1.252426  0  -0.235963  -0.588483  0  2.324433  0
F  F128  1  0.57435945  0.91920624  0.12386407  1  -0.627979  0  -0.087506  -0.124794  0  1.371771  0
F  F129  1  0.07438366  0.08078196  0.87613435  1  -0.62781  0  -0.087441  -0.124702  0  1.371813  0
F  F130  1  0.23650908  0.58057171  0.37568356  1  -0.628323  0  -0.088146  -0.125171  0  1.369614  0
F  F131  1  0.73648641  0.41941431  0.62431361  1  -0.628021  0  -0.08807  -0.125025  0  1.369971  0
F  F132  1  0.57883667  0.74915336  0.69503659  1  -0.615532  0  -0.12656  -0.167804  0  1.282945  0
F  F133  1  0.07882608  0.25084173  0.30496536  1  -0.615394  0  -0.12651  -0.167779  0  1.283436  0
F  F134  1  0.54996661  0.80967987  0.78600524  1  -0.619341  0  -0.128151  -0.171348  0  1.292133  0
F  F135  1  0.04995947  0.19032955  0.21399406  1  -0.619239  0  -0.128154  -0.172997  0  1.289665  0
F  F136  1  0.01719418  0.72286366  0.84355848  1  -0.619239  0  -0.143921  -0.193944  0  1.24444  0
F  F137  1  0.51720459  0.27713901  0.15643879  1  -0.619332  0  -0.143875  -0.193951  0  1.244096  0
F  F138  1  0.20990785  0.66659708  0.73323758  1  -0.623108  0  -0.13154  -0.179859  0  1.268801  0
F  F139  1  0.70987158  0.33340571  0.26675621  1  -0.62367  0  -0.131573  -0.179763  0  1.26899  0
F  F140  1  0.27389495  0.81069912  0.15937408  1  -0.640705  0  -0.101981  -0.155368  0  1.366348  0
F  F141  1  0.77391381  0.18930149  0.84062904  1  -0.64086  0  -0.101996  -0.15536  0  1.366186  0
F  F142  1  0.53649615  0.68974802  0.34162836  1  -0.643304  0  -0.102017  -0.155171  0  1.365782  0
F  F143  1  0.03648934  0.31026947  0.65837828  1  -0.643679  0  -0.10217  -0.155283  0  1.365708  0
