# generated using pymatgen
data_BiH20C14N3O10
_symmetry_space_group_name_H-M   'P 1'
_cell_length_a   8.04954472
_cell_length_b   8.99394896
_cell_length_c   23.28554788
_cell_angle_alpha   83.15766248
_cell_angle_beta   90.00015541
_cell_angle_gamma   89.99870741
_symmetry_Int_Tables_number   1
_chemical_formula_structural   BiH20C14N3O10
_chemical_formula_sum   'Bi4 H80 C56 N12 O40'
_cell_volume   1673.80157794
_cell_formula_units_Z   4
loop_
 _symmetry_equiv_pos_site_id
 _symmetry_equiv_pos_as_xyz
  1  'x, y, z'
loop_
 _atom_site_type_symbol
 _atom_site_label
 _atom_site_symmetry_multiplicity
 _atom_site_fract_x
 _atom_site_fract_y
 _atom_site_fract_z
 _atom_site_occupancy
 _atom_site_pbe_bader_charge
 _atom_site_pbe_bader_spin_density
 _atom_site_pbe_cm5_charge
 _atom_site_pbe_ddec_charge
 _atom_site_pbe_ddec_spin_density
 _atom_site_pbe_ddec_sum_bond_order
 _atom_site_pbe_magmom
Bi  Bi0  1  0.22892124  0.11428502  0.16116872  1  1.859707  0  0.869252  1.250037  0  2.609743  0
Bi  Bi1  1  0.72890253  0.38571043  0.33884000  1  1.859768  0  0.869271  1.250049  0  2.609749  0
Bi  Bi2  1  0.77109811  0.88570333  0.83884136  1  1.859769  0  0.869264  1.250086  0  2.609758  0
Bi  Bi3  1  0.27108452  0.61428427  0.66116655  1  1.859682  0  0.869228  1.250011  0  2.60988  0
H  H4  1  0.18748714  0.73922859  0.06572080  1  0.66169  0  0.314871  0.376095  0  0.931268  0
H  H5  1  0.68747796  0.76078517  0.43428321  1  0.662059  0  0.314858  0.376208  0  0.931184  0
H  H6  1  0.81250985  0.26077703  0.93428173  1  0.661802  0  0.314834  0.376127  0  0.931184  0
H  H7  1  0.31250163  0.23920696  0.56571992  1  0.661994  0  0.314839  0.37614  0  0.931227  0
H  H8  1  0.01418832  0.63742878  0.38663582  1  0.647349  0  0.296226  0.353538  0  1.000745  0
H  H9  1  0.51419569  0.86260274  0.11336677  1  0.647308  0  0.296251  0.353651  0  1.000813  0
H  H10  1  0.98579997  0.36258678  0.61336701  1  0.647343  0  0.296205  0.353532  0  1.000821  0
H  H11  1  0.48582118  0.13739967  0.88663020  1  0.646954  0  0.296253  0.353617  0  1.000833  0
H  H12  1  0.99535718  0.44464908  0.14209576  1  0.09912  0  0.119603  0.129518  0  0.992567  0
H  H13  1  0.49534890  0.05535621  0.35790936  1  0.099376  0  0.11964  0.129525  0  0.992568  0
H  H14  1  0.00463981  0.55536886  0.85790144  1  0.099212  0  0.119634  0.129546  0  0.992532  0
H  H15  1  0.50463442  0.94463704  0.64209376  1  0.099319  0  0.119595  0.129533  0  0.992496  0
H  H16  1  0.79848915  0.38232895  0.16963300  1  0.113943  0  0.117729  0.134497  0  1.002641  0
H  H17  1  0.29848410  0.11767974  0.33037292  1  0.11396  0  0.117773  0.134523  0  1.002603  0
H  H18  1  0.20151901  0.61768656  0.83036509  1  0.113848  0  0.117758  0.134552  0  1.002609  0
H  H19  1  0.70150792  0.88232059  0.66962839  1  0.114058  0  0.117747  0.134499  0  1.002645  0
H  H20  1  0.49516003  0.24356302  0.03574393  1  0.140186  0  0.116734  0.137557  0  1.014983  0
H  H21  1  0.99514105  0.25645240  0.46426063  1  0.14022  0  0.116808  0.137681  0  1.014944  0
H  H22  1  0.50484690  0.75643604  0.96425308  1  0.140244  0  0.116776  0.137585  0  1.015  0
H  H23  1  0.00485717  0.74355516  0.53573325  1  0.140189  0  0.116796  0.137618  0  1.015031  0
H  H24  1  0.38484301  0.40807485  0.01106726  1  0.098547  0  0.111121  0.121798  0  0.983699  0
H  H25  1  0.88483194  0.09193595  0.48893751  1  0.098859  0  0.11107  0.121712  0  0.98381  0
H  H26  1  0.61515895  0.59191752  0.98892984  1  0.098585  0  0.111138  0.121824  0  0.983704  0
H  H27  1  0.11516132  0.90806720  0.51106117  1  0.09893  0  0.111058  0.12172  0  0.983814  0
H  H28  1  0.11172280  0.07980025  0.00410681  1  0.087448  0  0.113026  0.117072  0  1.011112  0
H  H29  1  0.61170510  0.42021093  0.49589505  1  0.087719  0  0.113047  0.117027  0  1.01116  0
H  H30  1  0.88828164  0.92019460  0.99589413  1  0.0876  0  0.113044  0.117093  0  1.011131  0
H  H31  1  0.38828816  0.57976694  0.50410223  1  0.087486  0  0.113017  0.116986  0  1.011223  0
H  H32  1  0.29755524  0.15499201  0.97150402  1  0.105902  0  0.116459  0.13037  0  0.960003  0
H  H33  1  0.79754274  0.34502590  0.52849869  1  0.105962  0  0.116364  0.130296  0  0.959921  0
H  H34  1  0.70244547  0.84499682  0.02849398  1  0.105901  0  0.116435  0.130407  0  0.959951  0
H  H35  1  0.20246294  0.65496894  0.47150225  1  0.106002  0  0.116326  0.130308  0  0.959926  0
H  H36  1  0.04216892  0.68536028  0.20901440  1  0.129688  0  0.122314  0.137919  0  0.985571  0
H  H37  1  0.54217105  0.81464703  0.29098469  1  0.129552  0  0.122316  0.137943  0  0.985564  0
H  H38  1  0.95783552  0.31464432  0.79098772  1  0.12949  0  0.122302  0.137911  0  0.985566  0
H  H39  1  0.45785078  0.18534903  0.70901581  1  0.129422  0  0.122329  0.138028  0  0.985529  0
H  H40  1  0.85371590  0.75462023  0.17699525  1  0.129204  0  0.120459  0.130998  0  1.003065  0
H  H41  1  0.35371522  0.74538982  0.32300146  1  0.129163  0  0.120464  0.130957  0  1.003116  0
H  H42  1  0.14628979  0.24537991  0.82300692  1  0.129096  0  0.120467  0.13102  0  1.002959  0
H  H43  1  0.64629668  0.25459940  0.67699481  1  0.129453  0  0.120474  0.130969  0  1.003177  0
H  H44  1  0.19984450  0.85497569  0.26867832  1  0.102281  0  0.112168  0.111234  0  1.054062  0
H  H45  1  0.69984995  0.64503590  0.23132167  1  0.102187  0  0.112203  0.111357  0  1.053955  0
H  H46  1  0.80015621  0.14502483  0.73132212  1  0.102306  0  0.112177  0.11126  0  1.054047  0
H  H47  1  0.30016567  0.35495638  0.76867585  1  0.102194  0  0.112198  0.111247  0  1.054142  0
H  H48  1  0.06617505  0.98800859  0.29453120  1  0.155408  0  0.122647  0.137372  0  1.012491  0
H  H49  1  0.56618254  0.51200396  0.20546664  1  0.155512  0  0.122624  0.137373  0  1.01243  0
H  H50  1  0.93383187  0.01199649  0.70546875  1  0.155505  0  0.12265  0.137399  0  1.012332  0
H  H51  1  0.43382563  0.48798943  0.79453087  1  0.155624  0  0.1226  0.137338  0  1.012304  0
H  H52  1  0.73497818  0.93912781  0.22252682  1  0.082513  0  0.102927  0.092112  0  1.008048  0
H  H53  1  0.23498112  0.56088168  0.27747102  1  0.082214  0  0.102937  0.092107  0  1.008085  0
H  H54  1  0.26502502  0.06088169  0.77747825  1  0.0823  0  0.102933  0.092091  0  1.008159  0
H  H55  1  0.76502208  0.43912049  0.72252207  1  0.082351  0  0.102959  0.092126  0  1.008092  0
H  H56  1  0.85452206  0.08026182  0.24835967  1  0.076066  0  0.110767  0.103684  0  1.020953  0
H  H57  1  0.35453082  0.41974009  0.25164216  1  0.076131  0  0.110783  0.103634  0  1.02085  0
H  H58  1  0.14548611  0.91974376  0.75164803  1  0.076324  0  0.110827  0.103728  0  1.020863  0
H  H59  1  0.64546989  0.58025116  0.74835495  1  0.075827  0  0.110798  0.103758  0  1.020785  0
H  H60  1  0.69628361  0.16180817  0.15855352  1  0.091977  0  0.111774  0.104472  0  0.989031  0
H  H61  1  0.19629175  0.33821268  0.34144797  1  0.092433  0  0.111762  0.104525  0  0.988983  0
H  H62  1  0.30371090  0.83819769  0.84145289  1  0.092442  0  0.111805  0.104543  0  0.989015  0
H  H63  1  0.80370773  0.66178964  0.65854942  1  0.092475  0  0.111756  0.10454  0  0.988995  0
H  H64  1  0.80269118  0.02995844  0.12134744  1  0.083806  0  0.110333  0.100187  0  0.999036  0
H  H65  1  0.30270118  0.47005273  0.37865279  1  0.083791  0  0.110348  0.100165  0  0.999126  0
H  H66  1  0.19730084  0.97004558  0.87865727  1  0.083597  0  0.110381  0.100241  0  0.999041  0
H  H67  1  0.69729953  0.52994755  0.62134377  1  0.083629  0  0.110387  0.10026  0  0.999085  0
H  H68  1  0.90363343  0.15624903  0.05321370  1  0.110299  0  0.108891  0.098626  0  1.032132  0
H  H69  1  0.40362873  0.34375815  0.44678915  1  0.110352  0  0.108948  0.098582  0  1.032294  0
H  H70  1  0.09635486  0.84374480  0.94678683  1  0.110113  0  0.108906  0.098683  0  1.032024  0
H  H71  1  0.59636453  0.65623801  0.55321091  1  0.110295  0  0.108969  0.098609  0  1.032218  0
H  H72  1  0.82894601  0.33498735  0.06313571  1  0.109954  0  0.112096  0.113239  0  0.968026  0
H  H73  1  0.32893255  0.16503188  0.43686579  1  0.110032  0  0.11213  0.113317  0  0.96804  0
H  H74  1  0.17105719  0.66501866  0.93686509  1  0.109954  0  0.112103  0.113262  0  0.967985  0
H  H75  1  0.67105699  0.83496840  0.56313077  1  0.110057  0  0.112119  0.113256  0  0.967926  0
H  H76  1  0.12381449  0.42977524  0.06553707  1  0.075811  0  0.109454  0.09122  0  1.013942  0
H  H77  1  0.62380981  0.07023052  0.43447030  1  0.07554  0  0.109453  0.091213  0  1.013876  0
H  H78  1  0.87618871  0.57022446  0.93446208  1  0.075804  0  0.109461  0.091207  0  1.014017  0
H  H79  1  0.37617848  0.92975977  0.56553113  1  0.076026  0  0.109421  0.091249  0  1.013751  0
H  H80  1  0.06881678  0.36414576  0.99932038  1  0.059266  0  0.10689  0.095781  0  0.972886  0
H  H81  1  0.56881061  0.13586557  0.50068497  1  0.059214  0  0.106853  0.095749  0  0.97304  0
H  H82  1  0.93117027  0.63584622  0.00067844  1  0.059314  0  0.106915  0.095841  0  0.972969  0
H  H83  1  0.43117644  0.86413961  0.49931455  1  0.059146  0  0.106898  0.09581  0  0.973045  0
C  C84  1  0.00870311  0.33347542  0.22655906  1  1.587201  0  0.225289  0.626695  0  4.126006  0
C  C85  1  0.50870196  0.16652612  0.27344125  1  1.587318  0  0.225359  0.626705  0  4.125866  0
C  C86  1  0.99130257  0.66653258  0.77343784  1  1.587482  0  0.225344  0.626835  0  4.12557  0
C  C87  1  0.49129627  0.83346528  0.72656017  1  1.587148  0  0.225389  0.626858  0  4.125488  0
C  C88  1  0.92979203  0.35057316  0.16689058  1  0.223185  0  -0.074438  -0.261224  0  3.876157  0
C  C89  1  0.42978862  0.14943252  0.33311151  1  0.222904  0  -0.074595  -0.261354  0  3.876235  0
C  C90  1  0.07021490  0.64943706  0.83310628  1  0.223117  0  -0.074431  -0.261315  0  3.876243  0
C  C91  1  0.57020464  0.85056437  0.66689027  1  0.22307  0  -0.074477  -0.261283  0  3.876188  0
C  C92  1  0.44680819  0.38067179  0.10199165  1  1.573512  0  0.203182  0.596899  0  4.182134  0
C  C93  1  0.94680047  0.11933969  0.39801101  1  1.573324  0  0.203227  0.596869  0  4.182098  0
C  C94  1  0.55319625  0.61932733  0.89800019  1  1.573566  0  0.203385  0.597088  0  4.18162  0
C  C95  1  0.05318907  0.88065870  0.60198903  1  1.573311  0  0.203237  0.596837  0  4.182096  0
C  C96  1  0.39395718  0.31656692  0.04702409  1  0.187795  0  -0.080829  -0.267914  0  3.908165  0
C  C97  1  0.89394861  0.18344298  0.45298057  1  0.187711  0  -0.080752  -0.26774  0  3.90806  0
C  C98  1  0.60603981  0.68342463  0.95297173  1  0.187796  0  -0.080938  -0.268009  0  3.90824  0
C  C99  1  0.10604838  0.81655793  0.54701814  1  0.187376  0  -0.0808  -0.267782  0  3.908095  0
C  C100  1  0.33158931  0.97077070  0.03904879  1  1.609305  0  0.213144  0.617482  0  4.175532  0
C  C101  1  0.83157595  0.52924666  0.46095285  1  1.609557  0  0.213197  0.617356  0  4.175662  0
C  C102  1  0.66841762  0.02923845  0.96095283  1  1.609442  0  0.21327  0.617543  0  4.175557  0
C  C103  1  0.16841607  0.47074280  0.53904729  1  1.609134  0  0.213313  0.617392  0  4.175618  0
C  C104  1  0.23925230  0.11206029  0.01309847  1  0.213438  0  -0.072171  -0.229443  0  3.855172  0
C  C105  1  0.73923723  0.38795695  0.48690337  1  0.213799  0  -0.072282  -0.229481  0  3.855037  0
C  C106  1  0.76074966  0.88793921  0.98690155  1  0.213285  0  -0.072155  -0.229387  0  3.855086  0
C  C107  1  0.26076100  0.61203121  0.51309765  1  0.213814  0  -0.072216  -0.229406  0  3.855078  0
C  C108  1  0.06217525  0.81091402  0.12500969  1  1.535861  0  0.24788  0.627697  0  4.036986  0
C  C109  1  0.56217444  0.68910324  0.37499159  1  1.535812  0  0.24791  0.627912  0  4.036913  0
C  C110  1  0.93782546  0.18909698  0.87499363  1  1.536003  0  0.24784  0.627847  0  4.03692  0
C  C111  1  0.43782628  0.31089098  0.62500720  1  1.535416  0  0.248068  0.628193  0  4.036642  0
C  C112  1  0.98484937  0.78298539  0.18417988  1  0.233347  0  -0.065142  -0.236063  0  3.858602  0
C  C113  1  0.48485123  0.71702688  0.31581941  1  0.233406  0  -0.065183  -0.236101  0  3.858548  0
C  C114  1  0.01515383  0.21702124  0.81582307  1  0.233515  0  -0.065155  -0.236114  0  3.858436  0
C  C115  1  0.51516066  0.28296651  0.68417810  1  0.232969  0  -0.065205  -0.236357  0  3.858871  0
C  C116  1  0.98519438  0.76437898  0.31359197  1  1.556864  0  0.234079  0.636783  0  4.047191  0
C  C117  1  0.48520192  0.73563228  0.18640689  1  1.557042  0  0.23412  0.636958  0  4.04684  0
C  C118  1  0.01480261  0.23562460  0.68640972  1  1.556859  0  0.234016  0.636796  0  4.04695  0
C  C119  1  0.51481370  0.26436873  0.81359139  1  1.556989  0  0.234089  0.636852  0  4.046871  0
C  C120  1  0.06898651  0.88561849  0.27293803  1  0.228228  0  -0.07532  -0.26878  0  3.923927  0
C  C121  1  0.56899501  0.61439162  0.22706110  1  0.228171  0  -0.07541  -0.269086  0  3.923948  0
C  C122  1  0.93101545  0.11438388  0.72706411  1  0.22823  0  -0.07529  -0.268827  0  3.92383  0
C  C123  1  0.43102061  0.38560187  0.77293598  1  0.22841  0  -0.075381  -0.268999  0  3.924017  0
C  C124  1  0.84571720  0.00954183  0.21332790  1  0.27148  0  -0.077085  -0.109158  0  3.890712  0
C  C125  1  0.34572350  0.49046927  0.28667177  1  0.271295  0  -0.077124  -0.109105  0  3.89036  0
C  C126  1  0.15428476  0.99047000  0.78667671  1  0.271287  0  -0.077125  -0.109097  0  3.890649  0
C  C127  1  0.65427721  0.50953120  0.71332393  1  0.271167  0  -0.077132  -0.109212  0  3.890531  0
C  C128  1  0.81517436  0.10302669  0.15543628  1  0.213068  0  -0.073359  -0.096186  0  3.838056  0
C  C129  1  0.31518215  0.39698721  0.34456289  1  0.212416  0  -0.073366  -0.096189  0  3.838101  0
C  C130  1  0.18482263  0.89698208  0.84456707  1  0.21276  0  -0.073434  -0.09632  0  3.838195  0
C  C131  1  0.68481733  0.60301429  0.65543323  1  0.212847  0  -0.073467  -0.096453  0  3.838204  0
C  C132  1  0.93445111  0.25775366  0.07253845  1  0.192489  0  -0.074536  -0.11261  0  3.876047  0
C  C133  1  0.43444436  0.24225426  0.42746398  1  0.192289  0  -0.074552  -0.112615  0  3.876373  0
C  C134  1  0.06554588  0.74224259  0.92746118  1  0.192659  0  -0.074506  -0.112569  0  3.87591  0
C  C135  1  0.56554891  0.75774330  0.57253477  1  0.192261  0  -0.074554  -0.112489  0  3.876145  0
C  C136  1  0.09196317  0.32866859  0.04566714  1  0.230533  0  -0.069512  -0.105385  0  3.909742  0
C  C137  1  0.59195443  0.17134022  0.45433846  1  0.230761  0  -0.069454  -0.105339  0  3.909762  0
C  C138  1  0.90803506  0.67132897  0.95433162  1  0.230519  0  -0.069597  -0.105534  0  3.910119  0
C  C139  1  0.40803635  0.82865380  0.54566120  1  0.230432  0  -0.069545  -0.105637  0  3.909942  0
N  N140  1  0.94709317  0.21639365  0.13631220  1  -1.006139  0  -0.303967  -0.068493  0  3.410565  0
N  N141  1  0.44709316  0.28361022  0.36368969  1  -1.0062  0  -0.303976  -0.06846  0  3.410645  0
N  N142  1  0.05290754  0.78361041  0.86368733  1  -1.006236  0  -0.304034  -0.068543  0  3.410626  0
N  N143  1  0.55290259  0.71638948  0.63630947  1  -1.006194  0  -0.303934  -0.068472  0  3.410483  0
N  N144  1  0.23844522  0.22872194  0.05292070  1  -1.021357  0  -0.31437  -0.06703  0  3.475569  0
N  N145  1  0.73843055  0.27128922  0.44708338  1  -1.022152  0  -0.314401  -0.067126  0  3.475657  0
N  N146  1  0.76155425  0.77127572  0.94707762  1  -1.021371  0  -0.314393  -0.06719  0  3.475796  0
N  N147  1  0.26156395  0.72870471  0.55291671  1  -1.022017  0  -0.314315  -0.066952  0  3.475634  0
N  N148  1  0.99785180  0.91740282  0.21488953  1  -1.039041  0  -0.3142  -0.071015  0  3.487994  0
N  N149  1  0.49785648  0.58260754  0.28510961  1  -1.038345  0  -0.314093  -0.070818  0  3.487646  0
N  N150  1  0.00214891  0.08260382  0.78511342  1  -1.038938  0  -0.314159  -0.070984  0  3.488001  0
N  N151  1  0.50215169  0.41738838  0.71488657  1  -1.038213  0  -0.314072  -0.070602  0  3.487589  0
O  O152  1  0.12556369  0.23653062  0.23706751  1  -1.154667  0  -0.281076  -0.512984  0  2.265798  0
O  O153  1  0.62555397  0.26346931  0.26293130  1  -1.154796  0  -0.281068  -0.512899  0  2.265645  0
O  O154  1  0.87444323  0.76346966  0.76292906  1  -1.154753  0  -0.281063  -0.512931  0  2.265709  0
O  O155  1  0.37444302  0.73652758  0.73707048  1  -1.154756  0  -0.281112  -0.513009  0  2.265711  0
O  O156  1  0.96159181  0.42060704  0.26180677  1  -1.199858  0  -0.306552  -0.557866  0  2.23049  0
O  O157  1  0.46159119  0.07938928  0.23819546  1  -1.199928  0  -0.306544  -0.557817  0  2.230505  0
O  O158  1  0.03842009  0.57938950  0.73819157  1  -1.200009  0  -0.306608  -0.557963  0  2.230171  0
O  O159  1  0.53840952  0.92060359  0.76180939  1  -1.199797  0  -0.306611  -0.558001  0  2.230107  0
O  O160  1  0.35795014  0.34470537  0.14871772  1  -1.157416  0  -0.312666  -0.554161  0  2.225278  0
O  O161  1  0.85793294  0.15530515  0.35128568  1  -1.157366  0  -0.312709  -0.554188  0  2.225177  0
O  O162  1  0.64206921  0.65529064  0.85127803  1  -1.157662  0  -0.31273  -0.554211  0  2.224936  0
O  O163  1  0.14205163  0.84469294  0.64871566  1  -1.157371  0  -0.312647  -0.5541  0  2.225137  0
O  O164  1  0.57278113  0.46060330  0.10010920  1  -1.179296  0  -0.319583  -0.522947  0  2.10159  0
O  O165  1  0.07277777  0.03941124  0.39988881  1  -1.179088  0  -0.319596  -0.522913  0  2.101646  0
O  O166  1  0.42721710  0.53940250  0.89987264  1  -1.179191  0  -0.319641  -0.522926  0  2.101438  0
O  O167  1  0.92721176  0.96058826  0.60011121  1  -1.178952  0  -0.319648  -0.522935  0  2.101717  0
O  O168  1  0.43285517  0.98876591  0.08023791  1  -1.19566  0  -0.308034  -0.568569  0  2.291726  0
O  O169  1  0.93284701  0.51124888  0.41976504  1  -1.195293  0  -0.307973  -0.568451  0  2.291641  0
O  O170  1  0.56715052  0.01122942  0.91976087  1  -1.195459  0  -0.308075  -0.568611  0  2.291419  0
O  O171  1  0.06714128  0.48875194  0.58023410  1  -1.19534  0  -0.308054  -0.56856  0  2.291806  0
O  O172  1  0.30252657  0.84803901  0.01970033  1  -1.196961  0  -0.326677  -0.567801  0  2.189279  0
O  O173  1  0.80250993  0.65197954  0.48029823  1  -1.197891  0  -0.32666  -0.567658  0  2.189448  0
O  O174  1  0.69746794  0.15196350  0.98029621  1  -1.19738  0  -0.326723  -0.56777  0  2.189759  0
O  O175  1  0.19747215  0.34801167  0.51970405  1  -1.197365  0  -0.326726  -0.567665  0  2.189451  0
O  O176  1  0.07008360  0.94009469  0.09973032  1  -1.188837  0  -0.2649  -0.521918  0  2.399065  0
O  O177  1  0.57008561  0.55992378  0.40027127  1  -1.188555  0  -0.265037  -0.522153  0  2.399255  0
O  O178  1  0.92990966  0.05991772  0.90027169  1  -1.188722  0  -0.26497  -0.522134  0  2.399264  0
O  O179  1  0.42991386  0.44007228  0.59972922  1  -1.188468  0  -0.265049  -0.52218  0  2.398992  0
O  O180  1  0.11700117  0.69473284  0.10042863  1  -1.177133  0  -0.31375  -0.455336  0  2.262541  0
O  O181  1  0.61698950  0.80528333  0.39957282  1  -1.177314  0  -0.313611  -0.455452  0  2.262577  0
O  O182  1  0.88300824  0.30527898  0.89957598  1  -1.177276  0  -0.313586  -0.455347  0  2.262488  0
O  O183  1  0.38300003  0.19471142  0.60042856  1  -1.17691  0  -0.313744  -0.455577  0  2.262626  0
O  O184  1  0.07949538  0.71829103  0.35861203  1  -1.180248  0  -0.332514  -0.489159  0  2.317051  0
O  O185  1  0.57949975  0.78172340  0.14138863  1  -1.18034  0  -0.332542  -0.489255  0  2.316994  0
O  O186  1  0.92050161  0.28171255  0.64138966  1  -1.180307  0  -0.332513  -0.489159  0  2.316933  0
O  O187  1  0.42051463  0.21827852  0.85861050  1  -1.179816  0  -0.332627  -0.489269  0  2.316723  0
O  O188  1  0.84503380  0.71451776  0.30516031  1  -1.179901  0  -0.288691  -0.528954  0  2.230425  0
O  O189  1  0.34503608  0.78549251  0.19483953  1  -1.179859  0  -0.288729  -0.529091  0  2.23019  0
O  O190  1  0.15496070  0.28549484  0.69484083  1  -1.179851  0  -0.288664  -0.52895  0  2.230252  0
O  O191  1  0.65497954  0.21450427  0.80516269  1  -1.180161  0  -0.288627  -0.528958  0  2.230334  0
