# generated using pymatgen
data_ZnH8C12(N3O)2
_symmetry_space_group_name_H-M   'P 1'
_cell_length_a   6.02088473
_cell_length_b   9.45643633
_cell_length_c   21.46930000
_cell_angle_alpha   91.65045959
_cell_angle_beta   90.00000000
_cell_angle_gamma   90.00000000
_symmetry_Int_Tables_number   1
_chemical_formula_structural   ZnH8C12(N3O)2
_chemical_formula_sum   'Zn4 H32 C48 N24 O8'
_cell_volume   1221.87137441
_cell_formula_units_Z   4
loop_
 _symmetry_equiv_pos_site_id
 _symmetry_equiv_pos_as_xyz
  1  'x, y, z'
loop_
 _atom_site_type_symbol
 _atom_site_label
 _atom_site_symmetry_multiplicity
 _atom_site_fract_x
 _atom_site_fract_y
 _atom_site_fract_z
 _atom_site_occupancy
 _atom_site_pbe_bader_charge
 _atom_site_pbe_bader_spin_density
 _atom_site_pbe_cm5_charge
 _atom_site_pbe_ddec_charge
 _atom_site_pbe_ddec_spin_density
 _atom_site_pbe_ddec_sum_bond_order
 _atom_site_pbe_magmom
Zn  Zn0  1  0.87550256  0.91994159  0.83693502  1  1.268531  0  0.730651  0.775433  0  2.356933  0
Zn  Zn1  1  0.37548967  0.58005209  0.66306937  1  1.268328  0  0.730638  0.775426  0  2.356838  0
Zn  Zn2  1  0.12450662  0.08005807  0.16306516  1  1.268551  0  0.730682  0.775503  0  2.356854  0
Zn  Zn3  1  0.62450290  0.41995392  0.33693089  1  1.268319  0  0.730641  0.77541  0  2.356892  0
H  H4  1  0.37399321  0.36377839  0.05191413  1  0.072467  0  0.100013  0.102137  0  1.007812  0
H  H5  1  0.87398617  0.13622303  0.44808924  1  0.07256  0  0.10003  0.102242  0  1.007811  0
H  H6  1  0.62601265  0.63622868  0.94808521  1  0.072466  0  0.100001  0.102168  0  1.007833  0
H  H7  1  0.12602633  0.86377134  0.55191088  1  0.072514  0  0.100031  0.102181  0  1.007868  0
H  H8  1  0.72028783  0.82819138  0.61342473  1  0.109641  0  0.103205  0.111438  0  1.044564  0
H  H9  1  0.22028324  0.67180229  0.88657827  1  0.109558  0  0.103216  0.111468  0  1.044465  0
H  H10  1  0.27971304  0.17180828  0.38657639  1  0.109629  0  0.103195  0.111398  0  1.044648  0
H  H11  1  0.77971597  0.32819526  0.11342096  1  0.109484  0  0.103253  0.111506  0  1.044514  0
H  H12  1  0.88241018  0.07279228  0.61174449  1  0.081961  0  0.094884  0.09415  0  1.028164  0
H  H13  1  0.38242220  0.42720385  0.88825602  1  0.082231  0  0.09486  0.094075  0  1.02812  0
H  H14  1  0.11757574  0.92721373  0.38825437  1  0.081901  0  0.094883  0.094085  0  1.028114  0
H  H15  1  0.61758366  0.57279370  0.11174181  1  0.082251  0  0.094854  0.094078  0  1.028161  0
H  H16  1  0.11789796  0.17315712  0.01111595  1  0.152311  0  0.107728  0.127558  0  1.039407  0
H  H17  1  0.61789092  0.32684218  0.48888786  1  0.152235  0  0.107722  0.127457  0  1.039417  0
H  H18  1  0.88211953  0.82684254  0.98888283  1  0.152252  0  0.107738  0.127507  0  1.039222  0
H  H19  1  0.38211162  0.67315219  0.51111552  1  0.152277  0  0.107746  0.127474  0  1.039292  0
H  H20  1  0.88665042  0.23557227  0.92076180  1  0.136057  0  0.102639  0.110442  0  1.046358  0
H  H21  1  0.38665082  0.26443232  0.57924207  1  0.136014  0  0.102651  0.110436  0  1.046428  0
H  H22  1  0.11334879  0.76442210  0.07924064  1  0.136075  0  0.102591  0.11033  0  1.04626  0
H  H23  1  0.61334175  0.73558004  0.42076013  1  0.136041  0  0.102584  0.110342  0  1.046223  0
H  H24  1  0.70363247  0.27255397  0.66934664  1  0.104783  0  0.096643  0.091946  0  1.046896  0
H  H25  1  0.20364283  0.22744110  0.83065199  1  0.104659  0  0.09661  0.091915  0  1.046933  0
H  H26  1  0.29635844  0.72745098  0.33065128  1  0.104807  0  0.096645  0.09195  0  1.046843  0
H  H27  1  0.79635805  0.77255856  0.16934540  1  0.104697  0  0.096641  0.091968  0  1.046854  0
H  H28  1  0.74854447  0.39453846  0.00642443  1  0.083  0  0.100376  0.099214  0  1.014748  0
H  H29  1  0.24853989  0.10546296  0.49357847  1  0.082997  0  0.100365  0.099152  0  1.01467  0
H  H30  1  0.25146803  0.60546437  0.99357532  1  0.083089  0  0.100346  0.099144  0  1.014684  0
H  H31  1  0.75147594  0.89454622  0.50642556  1  0.083237  0  0.100333  0.099123  0  1.014655  0
H  H32  1  0.36095360  0.24010440  0.73076513  1  0.135767  0  0.106292  0.123077  0  1.038505  0
H  H33  1  0.86095985  0.25989173  0.76923445  1  0.135817  0  0.10629  0.12302  0  1.03829  0
H  H34  1  0.63904230  0.75989526  0.26923319  1  0.135841  0  0.106301  0.12309  0  1.038472  0
H  H35  1  0.13903272  0.74010793  0.23076573  1  0.135829  0  0.106283  0.123011  0  1.038503  0
C  C36  1  0.42671470  0.29353887  0.01350950  1  0.036301  0  -0.093606  -0.08705  0  3.999737  0
C  C37  1  0.92670268  0.20646149  0.48649526  1  0.036023  0  -0.093602  -0.087322  0  4.0001  0
C  C38  1  0.57329614  0.70646397  0.98648979  1  0.036234  0  -0.0936  -0.087211  0  3.999962  0
C  C39  1  0.07330152  0.79353817  0.51350725  1  0.035976  0  -0.093625  -0.087288  0  4.000092  0
C  C40  1  0.64101543  0.91785748  0.63730729  1  0.067821  0  -0.091434  -0.151822  0  3.963907  0
C  C41  1  0.14101084  0.58213090  0.86269517  1  0.067941  0  -0.091572  -0.151961  0  3.964132  0
C  C42  1  0.35898379  0.08214747  0.36269389  1  0.067517  0  -0.091461  -0.151835  0  3.963724  0
C  C43  1  0.85898339  0.41786242  0.13730493  1  0.067996  0  -0.09153  -0.151981  0  3.96386  0
C  C44  1  0.72945924  0.05318162  0.63727950  1  -0.09282  0  -0.095803  -0.07856  0  4.000428  0
C  C45  1  0.22946295  0.44681768  0.86272152  1  -0.093583  0  -0.095622  -0.078259  0  4.000435  0
C  C46  1  0.27053831  0.94682121  0.36272259  1  -0.092897  0  -0.095748  -0.078354  0  4.000458  0
C  C47  1  0.77054124  0.55318304  0.13727728  1  -0.093282  0  -0.095726  -0.078404  0  4.000486  0
C  C48  1  0.44416064  0.89995325  0.67137004  1  0.398382  0  0.093767  0.129007  0  4.092437  0
C  C49  1  0.94416357  0.60004042  0.82863528  1  0.398418  0  0.093837  0.129006  0  4.092106  0
C  C50  1  0.55585685  0.10004429  0.32863151  1  0.398754  0  0.09379  0.128916  0  4.092557  0
C  C51  1  0.05584561  0.39995924  0.17136677  1  0.398388  0  0.093835  0.129094  0  4.092374  0
C  C52  1  0.36181227  0.10319266  0.94212368  1  0.334655  0  0.095578  0.029064  0  4.004079  0
C  C53  1  0.86179859  0.39680558  0.55788151  1  0.334494  0  0.095616  0.028877  0  4.004182  0
C  C54  1  0.63820687  0.89680488  0.05787275  1  0.334374  0  0.0955  0.029007  0  4.004133  0
C  C55  1  0.13820062  0.60319514  0.44212427  1  0.334617  0  0.095588  0.028927  0  4.004035  0
C  C56  1  0.28199842  0.18966702  0.99129028  1  -0.072551  0  -0.088142  -0.134592  0  3.963178  0
C  C57  1  0.78199471  0.31033334  0.50871447  1  -0.072449  0  -0.088123  -0.134219  0  3.963292  0
C  C58  1  0.71799581  0.81033687  0.00870902  1  -0.072318  0  -0.08802  -0.134285  0  3.963691  0
C  C59  1  0.21799620  0.68966209  0.49128845  1  -0.07261  0  -0.088136  -0.134227  0  3.963452  0
C  C60  1  0.72106679  0.22261170  0.93989191  1  -0.012691  0  -0.087035  -0.141142  0  3.962214  0
C  C61  1  0.22106552  0.27739078  0.56011008  1  -0.012671  0  -0.087026  -0.141111  0  3.962234  0
C  C62  1  0.27894239  0.77739114  0.06010645  1  -0.01267  0  -0.086898  -0.140896  0  3.962416  0
C  C63  1  0.77893536  0.72261629  0.43989532  1  -0.0127  0  -0.086826  -0.140888  0  3.962258  0
C  C64  1  0.62831630  0.16800929  0.67038095  1  -0.027247  0  -0.096465  -0.088543  0  4.013461  0
C  C65  1  0.12832998  0.33198473  0.82961814  1  -0.026932  0  -0.096468  -0.088608  0  4.013574  0
C  C66  1  0.37167295  0.83199778  0.32961979  1  -0.027298  0  -0.096527  -0.088618  0  4.01361  0
C  C67  1  0.87166758  0.66800965  0.17037965  1  -0.027376  0  -0.096524  -0.088624  0  4.013591  0
C  C68  1  0.64183757  0.31044760  0.98769288  1  -0.108557  0  -0.093872  -0.088255  0  4.006619  0
C  C69  1  0.14183298  0.18955805  0.51230961  1  -0.108121  0  -0.093966  -0.088247  0  4.006518  0
C  C70  1  0.35816663  0.68955735  0.01230877  1  -0.108534  0  -0.093978  -0.088306  0  4.006626  0
C  C71  1  0.85817454  0.81044267  0.48769151  1  -0.108435  0  -0.093988  -0.088255  0  4.006538  0
C  C72  1  0.34731939  0.01492196  0.70486761  1  0.298384  0  0.094775  0.03328  0  3.999024  0
C  C73  1  0.84732232  0.48505936  0.79513504  1  0.298243  0  0.094749  0.0332  0  3.998981  0
C  C74  1  0.65267983  0.98507770  0.29513490  1  0.298299  0  0.094784  0.033327  0  3.999073  0
C  C75  1  0.15267690  0.51492232  0.20486538  1  0.298319  0  0.094748  0.033177  0  3.99904  0
C  C76  1  0.57721417  0.11618497  0.91700776  1  0.359588  0  0.094266  0.130102  0  4.077241  0
C  C77  1  0.07720460  0.38381644  0.58299515  1  0.359667  0  0.094295  0.130163  0  4.077353  0
C  C78  1  0.42278504  0.88381257  0.08299240  1  0.359758  0  0.094262  0.130063  0  4.07743  0
C  C79  1  0.92277967  0.61618639  0.41700973  1  0.359788  0  0.094224  0.130008  0  4.077399  0
C  C80  1  0.43611531  0.15169828  0.70503077  1  -0.046768  0  -0.088731  -0.133256  0  3.960558  0
C  C81  1  0.93612820  0.34829785  0.79497393  1  -0.046747  0  -0.08871  -0.133044  0  3.96091  0
C  C82  1  0.56387560  0.84829821  0.29496937  1  -0.046665  0  -0.088702  -0.13325  0  3.960316  0
C  C83  1  0.06387101  0.65170604  0.20502863  1  -0.046564  0  -0.088694  -0.13312  0  3.960307  0
N  N84  1  0.31555163  0.78325836  0.68162778  1  -0.736767  0  -0.247166  -0.248222  0  3.606989  0
N  N85  1  0.81554792  0.71673425  0.81837613  1  -0.736758  0  -0.247212  -0.248266  0  3.606909  0
N  N86  1  0.68444592  0.21674659  0.31837433  1  -0.736495  0  -0.2472  -0.248129  0  3.606786  0
N  N87  1  0.18444964  0.28326223  0.18162448  1  -0.736841  0  -0.247225  -0.248298  0  3.606934  0
N  N88  1  0.60003806  0.01341548  0.87082643  1  -0.700328  0  -0.245477  -0.240349  0  3.527076  0
N  N89  1  0.10002517  0.48658488  0.62917739  1  -0.700564  0  -0.245484  -0.240321  0  3.527231  0
N  N90  1  0.39997112  0.98658524  0.12917376  1  -0.700564  0  -0.245444  -0.240321  0  3.527235  0
N  N91  1  0.89996740  0.51341690  0.37082468  1  -0.700271  0  -0.24542  -0.240249  0  3.527267  0
N  N92  1  0.14768261  0.81889968  0.71967222  1  -0.055978  0  -0.086127  -0.123169  0  3.149333  0
N  N93  1  0.64767392  0.68109717  0.78033268  1  -0.0559  0  -0.086116  -0.123114  0  3.149261  0
N  N94  1  0.85231328  0.18110104  0.28032984  1  -0.056312  0  -0.086151  -0.123203  0  3.149287  0
N  N95  1  0.35231699  0.31890672  0.21966942  1  -0.055746  0  -0.086127  -0.123128  0  3.149464  0
N  N96  1  0.26960490  0.99262596  0.90789479  1  -0.197638  0  -0.020508  0.309279  0  4.002208  0
N  N97  1  0.76959454  0.50737406  0.59210968  1  -0.19701  0  -0.02062  0.309267  0  4.002143  0
N  N98  1  0.73040262  0.00737582  0.09210728  1  -0.197551  0  -0.020582  0.309167  0  4.001926  0
N  N99  1  0.23039471  0.49262348  0.40789280  1  -0.197103  0  -0.020518  0.309311  0  4.002018  0
N  N100  1  0.41103760  0.93907618  0.86597050  1  -0.063313  0  -0.090749  -0.130805  0  3.13726  0
N  N101  1  0.91102724  0.56092384  0.63403397  1  -0.063651  0  -0.090667  -0.130848  0  3.137258  0
N  N102  1  0.58896826  0.06092454  0.13403155  1  -0.06322  0  -0.090754  -0.130857  0  3.137166  0
N  N103  1  0.08896201  0.43907476  0.36596760  1  -0.063914  0  -0.090809  -0.13093  0  3.137323  0
N  N104  1  0.16703193  0.95593307  0.73366909  1  -0.188816  0  -0.018607  0.308996  0  3.996766  0
N  N105  1  0.66702323  0.54406271  0.76633533  1  -0.188595  0  -0.018608  0.30885  0  3.996683  0
N  N106  1  0.83296728  0.04406659  0.26633389  1  -0.188807  0  -0.018629  0.308885  0  3.996733  0
N  N107  1  0.33296602  0.45594118  0.23366584  1  -0.188836  0  -0.018553  0.308979  0  3.996741  0
O  O108  1  0.06617466  0.94232399  0.91389962  1  -0.671494  0  -0.240234  -0.470039  0  2.16672  0
O  O109  1  0.56616928  0.55767814  0.58610255  1  -0.671574  0  -0.24019  -0.469945  0  2.166649  0
O  O110  1  0.93383120  0.05767567  0.08609870  1  -0.671579  0  -0.240184  -0.469976  0  2.166621  0
O  O111  1  0.43382495  0.44232363  0.41389859  1  -0.671502  0  -0.240209  -0.469987  0  2.166622  0
O  O112  1  0.02517404  0.02470983  0.77083324  1  -0.66469  0  -0.236857  -0.459303  0  2.190693  0
O  O113  1  0.52517199  0.47528418  0.72916957  1  -0.664615  0  -0.236886  -0.459291  0  2.190746  0
O  O114  1  0.97482351  0.97529406  0.22916793  1  -0.664574  0  -0.236833  -0.459262  0  2.190629  0
O  O115  1  0.47482058  0.52471654  0.27083295  1  -0.664628  0  -0.23687  -0.459264  0  2.190595  0
