# generated using pymatgen
data_Cu2H9C13IN4
_symmetry_space_group_name_H-M   'P 1'
_cell_length_a   5.33099512
_cell_length_b   7.53933858
_cell_length_c   15.52774165
_cell_angle_alpha   89.99987343
_cell_angle_beta   89.99953493
_cell_angle_gamma   90.53724955
_symmetry_Int_Tables_number   1
_chemical_formula_structural   Cu2H9C13IN4
_chemical_formula_sum   'Cu4 H18 C26 I2 N8'
_cell_volume   624.06630724
_cell_formula_units_Z   2
loop_
 _symmetry_equiv_pos_site_id
 _symmetry_equiv_pos_as_xyz
  1  'x, y, z'
loop_
 _atom_site_type_symbol
 _atom_site_label
 _atom_site_symmetry_multiplicity
 _atom_site_fract_x
 _atom_site_fract_y
 _atom_site_fract_z
 _atom_site_occupancy
 _atom_site_hle17_bader_spin_density
 _atom_site_hle17_ddec_charge
 _atom_site_hle17_ddec_spin_density
 _atom_site_hle17_ddec_sum_bond_order
 _atom_site_hle17_magmom
 _atom_site_hse06_10hf_bader_spin_density
 _atom_site_hse06_10hf_ddec_charge
 _atom_site_hse06_10hf_ddec_spin_density
 _atom_site_hse06_10hf_ddec_sum_bond_order
 _atom_site_hse06_10hf_magmom
 _atom_site_hse06_bader_spin_density
 _atom_site_hse06_ddec_charge
 _atom_site_hse06_ddec_spin_density
 _atom_site_hse06_ddec_sum_bond_order
 _atom_site_hse06_magmom
 _atom_site_pbe_bader_spin_density
 _atom_site_pbe_cm5_charge
 _atom_site_pbe_ddec_charge
 _atom_site_pbe_ddec_spin_density
 _atom_site_pbe_ddec_sum_bond_order
 _atom_site_pbe_magmom
Cu  Cu0  1  0.93044825  0.40685957  0.64997427  1  0  0.381719  0  1.844026  0  0  0.264414  0  2.291972  0  0  0.274571  0  2.247216  0  0  0.454244  0.260712  0  2.3206  0
Cu  Cu1  1  0.06956313  0.59313076  0.14997292  1  0  0.381646  0  1.844154  0  0  0.264301  0  2.292076  0  0  0.274462  0  2.247337  0  0  0.454233  0.260598  0  2.320667  0
Cu  Cu2  1  0.06955731  0.59313188  0.35002520  1  0  0.381674  0  1.844  0  0  0.264314  0  2.291919  0  0  0.274466  0  2.247143  0  0  0.454189  0.26061  0  2.320458  0
Cu  Cu3  1  0.93045015  0.40686859  0.85002718  1  0  0.381718  0  1.844068  0  0  0.264418  0  2.291977  0  0  0.274569  0  2.247217  0  0  0.454253  0.260708  0  2.320558  0
H  H4  1  0.07459971  0.58482517  0.53808731  1  0  0.048871  0  1.036892  0  0  0.055234  0  1.119975  0  0  0.060172  0  1.112634  0  0  0.093104  0.051588  0  1.125149  0
H  H5  1  0.92540497  0.41517742  0.03808876  1  0  0.0488  0  1.036952  0  0  0.055196  0  1.120002  0  0  0.060132  0  1.112665  0  0  0.093088  0.051552  0  1.12517  0
H  H6  1  0.92539665  0.41517298  0.46191150  1  0  0.048843  0  1.036837  0  0  0.055205  0  1.119946  0  0  0.060145  0  1.112606  0  0  0.093104  0.051564  0  1.125103  0
H  H7  1  0.07460264  0.58482064  0.96191456  1  0  0.048909  0  1.036883  0  0  0.055179  0  1.120042  0  0  0.060117  0  1.1127  0  0  0.093107  0.051539  0  1.125206  0
H  H8  1  0.54959409  0.78162879  0.34688669  1  0  0.075085  0  0.977808  0  0  0.076797  0  1.054047  0  0  0.081246  0  1.049086  0  0  0.097486  0.073507  0  1.05777  0
H  H9  1  0.45042836  0.21836894  0.84689047  1  0  0.075112  0  0.977691  0  0  0.076836  0  1.053925  0  0  0.081289  0  1.048959  0  0  0.097528  0.073543  0  1.057658  0
H  H10  1  0.45041893  0.21836128  0.65311213  1  0  0.07508  0  0.977771  0  0  0.076803  0  1.054007  0  0  0.081254  0  1.049042  0  0  0.097505  0.073513  0  1.05774  0
H  H11  1  0.54959228  0.78162506  0.15310899  1  0  0.075147  0  0.977667  0  0  0.076852  0  1.053917  0  0  0.081303  0  1.048954  0  0  0.097518  0.073562  0  1.057645  0
H  H12  1  0.85237137  0.89167504  0.45587816  1  0  0.102616  0  0.954792  0  0  0.112319  0  1.014829  0  0  0.115392  0  1.014386  0  0  0.099808  0.110145  0  1.015255  0
H  H13  1  0.14763223  0.10833449  0.95588176  1  0  0.102601  0  0.954866  0  0  0.112349  0  1.014868  0  0  0.115424  0  1.014421  0  0  0.099777  0.110171  0  1.015301  0
H  H14  1  0.14763416  0.10831508  0.54412195  1  0  0.102696  0  0.954823  0  0  0.11242  0  1.014814  0  0  0.115492  0  1.014373  0  0  0.099839  0.110246  0  1.015248  0
H  H15  1  0.85236268  0.89167959  0.04411512  1  0  0.102574  0  0.954914  0  0  0.112346  0  1.014879  0  0  0.115421  0  1.014435  0  0  0.099821  0.110169  0  1.015309  0
H  H16  1  0.76347169  0.84390669  0.61331977  1  0  0.102262  0  0.956029  0  0  0.110949  0  1.022018  0  0  0.114882  0  1.018604  0  0  0.098034  0.107936  0  1.02469  0
H  H17  1  0.23652047  0.15610774  0.11332378  1  0  0.1022  0  0.956218  0  0  0.110844  0  1.022251  0  0  0.114808  0  1.018803  0  0  0.097996  0.10783  0  1.024917  0
H  H18  1  0.23652467  0.15609146  0.38667969  1  0  0.102281  0  0.956111  0  0  0.110963  0  1.022092  0  0  0.114896  0  1.018678  0  0  0.098028  0.107946  0  1.02476  0
H  H19  1  0.76346520  0.84391170  0.88667375  1  0  0.102267  0  0.956135  0  0  0.110939  0  1.022131  0  0  0.114831  0  1.018761  0  0  0.09803  0.107914  0  1.0248  0
H  H20  1  0.63891921  0.82882847  0.74999858  1  0  0.119542  0  1.018994  0  0  0.12866  0  1.085141  0  0  0.131512  0  1.085119  0  0  0.085479  0.126617  0  1.08527  0
H  H21  1  0.36106639  0.17118831  0.25000217  1  0  0.119499  0  1.019046  0  0  0.128674  0  1.085099  0  0  0.131526  0  1.08508  0  0  0.085487  0.126625  0  1.085236  0
C  C22  1  0.25131650  0.65068714  0.52167700  1  0  0.071769  0  3.667073  0  0  0.035191  0  3.910039  0  0  0.040696  0  3.92656  0  0  0.030221  0.031705  0  3.899123  0
C  C23  1  0.74869043  0.34931680  0.02168040  1  0  0.071946  0  3.667123  0  0  0.035374  0  3.91009  0  0  0.040873  0  3.926626  0  0  0.030348  0.03188  0  3.899181  0
C  C24  1  0.74868358  0.34930965  0.47832246  1  0  0.071974  0  3.667126  0  0  0.035365  0  3.910136  0  0  0.040867  0  3.926659  0  0  0.030298  0.031873  0  3.899225  0
C  C25  1  0.25130777  0.65068000  0.97832357  1  0  0.071746  0  3.667164  0  0  0.035252  0  3.91011  0  0  0.040753  0  3.926645  0  0  0.030187  0.03176  0  3.899202  0
C  C26  1  0.51561867  0.76035696  0.41528885  1  0  0.104328  0  3.697595  0  0  0.074849  0  3.945081  0  0  0.082873  0  3.959175  0  0  0.027259  0.068405  0  3.938042  0
C  C27  1  0.48439137  0.23965130  0.91529249  1  0  0.104554  0  3.697517  0  0  0.075117  0  3.945014  0  0  0.083133  0  3.959122  0  0  0.027353  0.068709  0  3.937908  0
C  C28  1  0.48438328  0.23963982  0.58470868  1  0  0.104519  0  3.697652  0  0  0.075083  0  3.945161  0  0  0.083106  0  3.95926  0  0  0.027305  0.068655  0  3.938106  0
C  C29  1  0.51561263  0.76035210  0.08470568  1  0  0.104299  0  3.697483  0  0  0.07484  0  3.944987  0  0  0.08286  0  3.959089  0  0  0.027322  0.068403  0  3.937946  0
C  C30  1  0.68383993  0.82175989  0.47724861  1  0  -0.119238  0  3.770847  0  0  -0.128821  0  4.02052  0  0  -0.135624  0  4.040673  0  0  -0.092843  -0.124614  0  4.007406  0
C  C31  1  0.31616679  0.17824293  0.97725030  1  0  -0.119315  0  3.770959  0  0  -0.128945  0  4.02063  0  0  -0.13575  0  4.040797  0  0  -0.092852  -0.124753  0  4.007532  0
C  C32  1  0.31616570  0.17823421  0.52275149  1  0  -0.119487  0  3.771044  0  0  -0.129083  0  4.020728  0  0  -0.135887  0  4.040882  0  0  -0.092892  -0.124887  0  4.007642  0
C  C33  1  0.68383728  0.82176312  0.02274723  1  0  -0.119145  0  3.770925  0  0  -0.128805  0  4.020609  0  0  -0.135603  0  4.040744  0  0  -0.092818  -0.124602  0  4.007501  0
C  C34  1  0.63384677  0.79481515  0.56419117  1  0  -0.050362  0  3.667836  0  0  -0.075199  0  3.916106  0  0  -0.0703  0  3.92929  0  0  -0.071746  -0.078378  0  3.90754  0
C  C35  1  0.36615191  0.20519405  0.06419598  1  0  -0.050264  0  3.668061  0  0  -0.075088  0  3.916337  0  0  -0.070211  0  3.929503  0  0  -0.071708  -0.078264  0  3.907767  0
C  C36  1  0.36614404  0.20518568  0.43580829  1  0  -0.050328  0  3.667967  0  0  -0.07521  0  3.916223  0  0  -0.070309  0  3.929403  0  0  -0.071767  -0.07838  0  3.90765  0
C  C37  1  0.63384112  0.79482004  0.93580477  1  0  -0.050314  0  3.66808  0  0  -0.075155  0  3.916343  0  0  -0.07022  0  3.929538  0  0  -0.071788  -0.078314  0  3.907757  0
C  C38  1  0.41065234  0.70606435  0.58811651  1  0  0.006997  0  3.783321  0  0  0.027538  0  4.010067  0  0  0.024787  0  4.03144  0  0  -0.002072  0.028749  0  3.996025  0
C  C39  1  0.58934746  0.29393550  0.08811662  1  0  0.007022  0  3.783229  0  0  0.027623  0  4.009901  0  0  0.024872  0  4.031278  0  0  -0.002039  0.028837  0  3.995855  0
C  C40  1  0.58935325  0.29392843  0.41188489  1  0  0.006907  0  3.783463  0  0  0.027637  0  4.010072  0  0  0.024889  0  4.031452  0  0  -0.002037  0.028859  0  3.996024  0
C  C41  1  0.41064897  0.70606530  0.91188477  1  0  0.006918  0  3.783385  0  0  0.027509  0  4.010037  0  0  0.024759  0  4.031398  0  0  -0.002004  0.028722  0  3.995998  0
C  C42  1  0.35053112  0.67235930  0.67824499  1  0  0.141728  0  3.821493  0  0  0.135558  0  4.069912  0  0  0.139961  0  4.093635  0  0  0.074617  0.133101  0  4.053985  0
C  C43  1  0.64946314  0.32764434  0.17824744  1  0  0.141736  0  3.821512  0  0  0.135545  0  4.06993  0  0  0.139952  0  4.093651  0  0  0.074643  0.133087  0  4.053986  0
C  C44  1  0.64947681  0.32765071  0.32175575  1  0  0.141724  0  3.821215  0  0  0.135383  0  4.06981  0  0  0.139771  0  4.093553  0  0  0.074625  0.132919  0  4.053871  0
C  C45  1  0.35052777  0.67236047  0.82175395  1  0  0.141646  0  3.821645  0  0  0.13544  0  4.070071  0  0  0.139842  0  4.093796  0  0  0.074602  0.132984  0  4.054142  0
C  C46  1  0.47917172  0.73859058  0.74999761  1  0  -0.264692  0  3.72493  0  0  -0.293359  0  3.985312  0  0  -0.302283  0  4.005862  0  0  -0.119385  -0.287874  0  3.971796  0
C  C47  1  0.52083020  0.26140487  0.25000121  1  0  -0.264694  0  3.724694  0  0  -0.29336  0  3.985125  0  0  -0.302281  0  4.00568  0  0  -0.119423  -0.287867  0  3.971594  0
I  I48  1  0.97257838  0.11020456  0.75000058  1  0  -0.494088  0  1.274663  0  0  -0.427675  0  1.661705  0  0  -0.449387  0  1.629111  0  0  -0.21117  -0.4108  0  1.682661  0
I  I49  1  0.02740315  0.88980032  0.24999824  1  0  -0.494075  0  1.27458  0  0  -0.427661  0  1.661584  0  0  -0.449381  0  1.629016  0  0  -0.211165  -0.410788  0  1.682518  0
N  N50  1  0.30056907  0.67497167  0.43721582  1  0  -0.287165  0  3.452135  0  0  -0.200092  0  3.731124  0  0  -0.214105  0  3.742819  0  0  -0.379242  -0.191353  0  3.723041  0
N  N51  1  0.69944402  0.32502723  0.93721865  1  0  -0.287466  0  3.452376  0  0  -0.200544  0  3.731578  0  0  -0.214557  0  3.743277  0  0  -0.379444  -0.191808  0  3.723521  0
N  N52  1  0.69943646  0.32501846  0.56278493  1  0  -0.287307  0  3.452199  0  0  -0.200379  0  3.731385  0  0  -0.214396  0  3.743093  0  0  -0.379317  -0.191643  0  3.723359  0
N  N53  1  0.30055981  0.67496954  0.06278532  1  0  -0.287099  0  3.452326  0  0  -0.200057  0  3.731325  0  0  -0.214072  0  3.743033  0  0  -0.379292  -0.191321  0  3.723276  0
N  N54  1  0.15511856  0.56796626  0.70612452  1  0  -0.25904  0  3.338909  0  0  -0.192568  0  3.63654  0  0  -0.204484  0  3.648743  0  0  -0.306376  -0.185498  0  3.628807  0
N  N55  1  0.84488428  0.43202930  0.20612619  1  0  -0.259062  0  3.339018  0  0  -0.192575  0  3.636635  0  0  -0.204497  0  3.648841  0  0  -0.306406  -0.185505  0  3.628879  0
N  N56  1  0.84488898  0.43202916  0.29387366  1  0  -0.25893  0  3.33892  0  0  -0.192389  0  3.636557  0  0  -0.204294  0  3.648751  0  0  -0.306338  -0.185316  0  3.628778  0
N  N57  1  0.15512139  0.56796613  0.79387263  1  0  -0.258887  0  3.339006  0  0  -0.192353  0  3.636586  0  0  -0.204263  0  3.648782  0  0  -0.306313  -0.185281  0  3.628831  0
