# generated using pymatgen
data_ZnH20C32N3O4
_symmetry_space_group_name_H-M   'P 1'
_cell_length_a   10.78244081
_cell_length_b   15.88286577
_cell_length_c   16.99422290
_cell_angle_alpha   88.09308205
_cell_angle_beta   90.11101071
_cell_angle_gamma   90.05241625
_symmetry_Int_Tables_number   1
_chemical_formula_structural   ZnH20C32N3O4
_chemical_formula_sum   'Zn2 H40 C64 N6 O8'
_cell_volume   2908.74540006
_cell_formula_units_Z   2
loop_
 _symmetry_equiv_pos_site_id
 _symmetry_equiv_pos_as_xyz
  1  'x, y, z'
loop_
 _atom_site_type_symbol
 _atom_site_label
 _atom_site_symmetry_multiplicity
 _atom_site_fract_x
 _atom_site_fract_y
 _atom_site_fract_z
 _atom_site_occupancy
 _atom_site_pbe_bader_charge
 _atom_site_pbe_bader_spin_density
 _atom_site_pbe_cm5_charge
 _atom_site_pbe_ddec_charge
 _atom_site_pbe_ddec_spin_density
 _atom_site_pbe_ddec_sum_bond_order
 _atom_site_pbe_magmom
Zn  Zn0  1  0.49935258  0.58825752  0.50357231  1  1.281415  0  0.673587  0.815825  0  2.445725  0
Zn  Zn1  1  0.50086870  0.41182464  0.49643505  1  1.285842  0  0.67341  0.816086  0  2.44346  0
H  H2  1  0.90254899  0.22082302  0.59473812  1  0.060064  0  0.095648  0.093468  0  1.015129  0
H  H3  1  0.09773920  0.77919588  0.40517677  1  0.050716  0  0.095675  0.093421  0  1.015132  0
H  H4  1  0.62844870  0.89062634  0.42955599  1  0.130704  0  0.11379  0.121347  0  1.028668  0
H  H5  1  0.37183309  0.10942395  0.57046723  1  0.131874  0  0.113728  0.121017  0  1.028659  0
H  H6  1  0.66233535  0.13159901  0.39666600  1  0.094186  0  0.121001  0.132858  0  0.980145  0
H  H7  1  0.33782182  0.86848202  0.60328195  1  0.096552  0  0.120926  0.132847  0  0.9803  0
H  H8  1  0.65240944  0.29033601  0.41015339  1  0.15461  0  0.133397  0.112746  0  0.963931  0
H  H9  1  0.34777007  0.70973828  0.58981775  1  0.157072  0  0.133266  0.112888  0  0.963364  0
H  H10  1  0.79878879  0.66652548  0.53906342  1  0.132239  0  0.100312  0.115582  0  1.07686  0
H  H11  1  0.20152795  0.33355426  0.46090581  1  0.129191  0  0.100466  0.115889  0  1.077482  0
H  H12  1  0.19685634  0.64180278  0.39718030  1  0.09517  0  0.105357  0.118981  0  1.010528  0
H  H13  1  0.80341438  0.35820173  0.60276687  1  0.096439  0  0.105427  0.118568  0  1.011505  0
H  H14  1  0.53820219  0.60345918  0.73651798  1  0.102162  0  0.105832  0.114839  0  1.008314  0
H  H15  1  0.46144809  0.39636260  0.26380914  1  0.101739  0  0.105201  0.114325  0  1.00881  0
H  H16  1  0.57679115  0.64872953  0.10102225  1  0.103927  0  0.107049  0.114783  0  0.999241  0
H  H17  1  0.41967316  0.35147540  0.89891132  1  0.101845  0  0.107266  0.1154  0  0.998716  0
H  H18  1  0.61377764  0.64584231  0.24748313  1  0.074656  0  0.104826  0.109163  0  0.993193  0
H  H19  1  0.38423403  0.35440329  0.75231413  1  0.09444  0  0.1049  0.109254  0  0.992959  0
H  H20  1  0.62668617  0.73162731  0.42353512  1  0.121629  0  0.130174  0.108295  0  0.97245  0
H  H21  1  0.37362433  0.26844340  0.57652152  1  0.122675  0  0.130082  0.108399  0  0.972906  0
H  H22  1  0.83679982  0.78050582  0.61451518  1  0.083579  0  0.104989  0.109104  0  0.996196  0
H  H23  1  0.75959898  0.92190077  0.64748934  1  0.078097  0  0.100231  0.098074  0  0.991781  0
H  H24  1  0.77985655  0.04242743  0.55021861  1  0.071902  0  0.095322  0.091664  0  1.006019  0
H  H25  1  0.87304912  0.01868921  0.41885999  1  0.046385  0  0.098989  0.095116  0  0.996098  0
H  H26  1  0.94626791  0.87691700  0.38499555  1  0.040782  0  0.099979  0.098906  0  1.004528  0
H  H27  1  0.05390077  0.12306864  0.61489518  1  0.043883  0  0.099942  0.098768  0  1.005613  0
H  H28  1  0.12704998  0.98129361  0.58101492  1  0.047491  0  0.098988  0.095183  0  0.995763  0
H  H29  1  0.22042422  0.95759206  0.44969331  1  0.046889  0  0.095501  0.091799  0  1.00623  0
H  H30  1  0.24080600  0.07815150  0.35247383  1  0.078036  0  0.100054  0.098037  0  0.991506  0
H  H31  1  0.16362561  0.21953768  0.38544595  1  0.081902  0  0.104944  0.108951  0  0.995927  0
H  H32  1  0.48013548  0.71427723  0.83337190  1  0.061002  0  0.098755  0.098932  0  0.999553  0
H  H33  1  0.60105210  0.83604099  0.88035557  1  0.067163  0  0.096269  0.091125  0  1.000814  0
H  H34  1  0.79278797  0.81183045  0.96030121  1  0.05306  0  0.096203  0.090918  0  1.004132  0
H  H35  1  0.86261763  0.66476117  0.99189184  1  0.068436  0  0.100405  0.09654  0  0.99339  0
H  H36  1  0.74153244  0.54371083  0.94467389  1  0.041287  0  0.102144  0.105146  0  0.989182  0
H  H37  1  0.25615703  0.45534449  0.05618060  1  0.050581  0  0.102106  0.104937  0  0.989085  0
H  H38  1  0.13576193  0.33399771  0.00909814  1  0.0576  0  0.100234  0.096359  0  0.993551  0
H  H39  1  0.20681034  0.18710373  0.04033928  1  0.037416  0  0.096053  0.090989  0  1.003743  0
H  H40  1  0.39897001  0.16348621  0.12004921  1  0.059368  0  0.096305  0.090785  0  1.00071  0
H  H41  1  0.51921587  0.28557805  0.16691039  1  0.024247  0  0.098692  0.098988  0  1.000071  0
C  C42  1  0.55684940  0.51360376  0.35135025  1  1.585192  0  0.212579  0.591349  0  4.173764  0
C  C43  1  0.44289878  0.48648429  0.64861850  1  1.58502  0  0.213024  0.592412  0  4.175253  0
C  C44  1  0.54395472  0.51902679  0.26361107  1  -0.058553  0  -0.014992  -0.016835  0  3.967508  0
C  C45  1  0.45509184  0.48098420  0.73637844  1  -0.07396  0  -0.015391  -0.018505  0  3.969676  0
C  C46  1  0.48993569  0.45036700  0.22691152  1  0.009955  0  -0.0811  -0.133743  0  3.93837  0
C  C47  1  0.50910750  0.54950206  0.77329428  1  -0.035446  0  -0.080996  -0.133019  0  3.938146  0
C  C48  1  0.46578645  0.45089323  0.14612510  1  -0.01739  0  0.002469  0.010315  0  3.947426  0
C  C49  1  0.53247363  0.54890704  0.85416822  1  0.071677  0  0.001927  0.009751  0  3.945681  0
C  C50  1  0.50191519  0.52367908  0.10109854  1  0.319871  0  0.093045  0.126211  0  4.010853  0
C  C51  1  0.49539580  0.47631248  0.89910590  1  0.265974  0  0.092964  0.12686  0  4.011215  0
C  C52  1  0.55263085  0.59377709  0.13804021  1  -0.087226  0  -0.084498  -0.145676  0  3.974212  0
C  C53  1  0.44451285  0.40638264  0.86200698  1  0.019945  0  -0.084855  -0.146991  0  3.97381  0
C  C54  1  0.57425270  0.59168747  0.21872542  1  0.021073  0  -0.085513  -0.09167  0  3.996871  0
C  C55  1  0.42378475  0.40847759  0.78120240  1  -0.070381  0  -0.085555  -0.091358  0  3.995196  0
C  C56  1  0.43638212  0.23480083  0.53833896  1  0.481734  0  0.063348  0.112924  0  3.893016  0
C  C57  1  0.56386618  0.76526508  0.46167840  1  0.483809  0  0.062835  0.11243  0  3.892874  0
C  C58  1  0.43658960  0.14767214  0.53565627  1  0.016956  0  -0.069225  -0.179706  0  3.920204  0
C  C59  1  0.56364658  0.85239744  0.46434624  1  0.014414  0  -0.068908  -0.179554  0  3.920336  0
C  C60  1  0.51918152  0.10983495  0.48395346  1  0.344005  0  0.107399  0.19506  0  4.041563  0
C  C61  1  0.48103140  0.89023949  0.51602651  1  0.343588  0  0.107477  0.195049  0  4.041396  0
C  C62  1  0.59853673  0.16041195  0.43745588  1  0.021166  0  -0.067504  -0.186509  0  3.920188  0
C  C63  1  0.40163254  0.83966539  0.56250279  1  0.020192  0  -0.067657  -0.186684  0  3.91993  0
C  C64  1  0.73503174  0.50424309  0.53716708  1  1.575021  0  0.216858  0.591987  0  4.145731  0
C  C65  1  0.26522028  0.49580375  0.46281270  1  1.572961  0  0.216955  0.593172  0  4.143035  0
C  C66  1  0.59332154  0.24727321  0.44453864  1  0.445815  0  0.065084  0.113245  0  3.903978  0
C  C67  1  0.40687096  0.75279986  0.55543255  1  0.445623  0  0.06504  0.112631  0  3.903175  0
C  C68  1  0.88643389  0.66168592  0.50838706  1  -0.030945  0  -0.098484  -0.190804  0  3.938812  0
C  C69  1  0.11386638  0.33834709  0.49156911  1  -0.031842  0  -0.098861  -0.191623  0  3.939205  0
C  C70  1  0.94517278  0.73358519  0.47973126  1  0.016783  0  -0.015992  0.063056  0  4.04444  0
C  C71  1  0.05510700  0.26644949  0.52019542  1  0.021315  0  -0.015751  0.063597  0  4.04288  0
C  C72  1  0.05516980  0.72420840  0.43437394  1  -0.11943  0  -0.100547  -0.14154  0  4.028742  0
C  C73  1  0.94512671  0.27581937  0.56554710  1  -0.16908  0  -0.100376  -0.141625  0  4.026597  0
C  C74  1  0.11108012  0.64716195  0.42991011  1  -0.03952  0  -0.093222  -0.115773  0  3.993986  0
C  C75  1  0.88920444  0.35286283  0.57005105  1  0.003189  0  -0.093695  -0.115819  0  3.993075  0
C  C76  1  0.06052509  0.57298939  0.46811958  1  0.039328  0  0.001474  0.063524  0  3.946285  0
C  C77  1  0.93973715  0.42706005  0.53187130  1  0.040382  0  0.001543  0.063215  0  3.945658  0
C  C78  1  0.93727628  0.57932926  0.50093321  1  0.007785  0  0.000832  0.071927  0  3.948957  0
C  C79  1  0.06300457  0.42069998  0.49903780  1  0.007145  0  0.000716  0.072622  0  3.946992  0
C  C80  1  0.12585363  0.49535124  0.47231097  1  -0.071581  0  -0.002395  -0.112  0  3.826764  0
C  C81  1  0.87438454  0.50468484  0.52767037  1  -0.071982  0  -0.002577  -0.111953  0  3.827819  0
C  C82  1  0.89671755  0.81804489  0.49729181  1  -0.033206  0  -0.008844  0.067063  0  4.003448  0
C  C83  1  0.84292728  0.83247579  0.57107108  1  -0.094863  0  -0.092172  -0.134705  0  3.976555  0
C  C84  1  0.80028628  0.91226266  0.58974208  1  -0.093459  0  -0.098757  -0.089851  0  4.049793  0
C  C85  1  0.81091845  0.97966385  0.53520359  1  -0.054645  0  -0.101262  -0.09723  0  4.040234  0
C  C86  1  0.86330838  0.96629913  0.46156137  1  -0.026264  0  -0.09535  -0.083616  0  4.050512  0
C  C87  1  0.90568975  0.88646118  0.44279090  1  -0.043377  0  -0.095493  -0.141034  0  3.981577  0
C  C88  1  0.10358909  0.18199806  0.50263458  1  -0.03727  0  -0.008933  0.067161  0  4.001278  0
C  C89  1  0.09453170  0.11354353  0.55710152  1  -0.044428  0  -0.095161  -0.140996  0  3.982622  0
C  C90  1  0.13690383  0.03370054  0.53833652  1  -0.029676  0  -0.095194  -0.083215  0  4.051824  0
C  C91  1  0.18936888  0.02034625  0.46471632  1  -0.025037  0  -0.101837  -0.097938  0  4.043223  0
C  C92  1  0.20008639  0.08775985  0.41021272  1  -0.101083  0  -0.098582  -0.090019  0  4.049877  0
C  C93  1  0.15744995  0.16755806  0.42888213  1  -0.088918  0  -0.092237  -0.134388  0  3.974123  0
C  C94  1  0.60195005  0.62079309  0.88626880  1  0.074842  0  -0.006793  0.076769  0  4.022428  0
C  C95  1  0.56447614  0.70372135  0.86791863  1  -0.172723  0  -0.095142  -0.13815  0  3.991545  0
C  C96  1  0.63241889  0.77203227  0.89457843  1  -0.031425  0  -0.102248  -0.09195  0  4.069732  0
C  C97  1  0.73960080  0.75851251  0.93949585  1  0.001487  0  -0.104144  -0.104395  0  4.060654  0
C  C98  1  0.77863160  0.67606937  0.95725496  1  -0.058756  0  -0.0977  -0.086627  0  4.056218  0
C  C99  1  0.71062551  0.60790491  0.93081649  1  -0.077996  0  -0.092702  -0.130224  0  3.980081  0
C  C100  1  0.39663925  0.37874639  0.11420747  1  0.028434  0  -0.006363  0.077325  0  4.023608  0
C  C101  1  0.28763354  0.39124416  0.06990892  1  -0.014691  0  -0.092569  -0.129263  0  3.978307  0
C  C102  1  0.21998938  0.32290104  0.04355341  1  -0.064093  0  -0.098144  -0.087539  0  4.054453  0
C  C103  1  0.25967772  0.24055991  0.06114316  1  -0.059645  0  -0.103813  -0.104557  0  4.058057  0
C  C104  1  0.36711606  0.22740178  0.10589836  1  -0.015713  0  -0.101621  -0.089999  0  4.068132  0
C  C105  1  0.43472355  0.29592605  0.13246574  1  -0.069651  0  -0.095641  -0.139613  0  3.992875  0
N  N106  1  0.48890283  0.53319334  0.01858416  1  -0.439174  0  -0.137516  -0.117779  0  3.297345  0
N  N107  1  0.50808182  0.46677068  0.98160879  1  -0.487076  0  -0.136871  -0.115692  0  3.297666  0
N  N108  1  0.51289465  0.28337713  0.49354388  1  -1.23378  0  -0.315232  -0.192076  0  3.503443  0
N  N109  1  0.48734159  0.71668429  0.50646421  1  -1.228302  0  -0.314714  -0.191144  0  3.504034  0
N  N110  1  0.52380980  0.02202197  0.47230387  1  -0.434443  0  -0.125924  -0.109682  0  3.251587  0
N  N111  1  0.47643841  0.97804885  0.52768683  1  -0.479843  0  -0.125218  -0.108591  0  3.251216  0
O  O112  1  0.55990402  0.58241386  0.38820685  1  -1.171263  0  -0.321527  -0.55826  0  2.300419  0
O  O113  1  0.43967769  0.41772430  0.61168121  1  -1.170788  0  -0.322045  -0.559432  0  2.300604  0
O  O114  1  0.55893964  0.43981341  0.38277432  1  -1.168582  0  -0.317678  -0.550026  0  2.348408  0
O  O115  1  0.44146889  0.56029399  0.61724926  1  -1.170716  0  -0.317437  -0.549653  0  2.349783  0
O  O116  1  0.67688553  0.57301428  0.54676578  1  -1.164436  0  -0.315153  -0.535084  0  2.362778  0
O  O117  1  0.32340280  0.42708065  0.45298399  1  -1.164112  0  -0.315014  -0.535904  0  2.360133  0
O  O118  1  0.68066505  0.43381003  0.52845375  1  -1.158185  0  -0.309971  -0.542795  0  2.396221  0
O  O119  1  0.31949863  0.56621130  0.47176876  1  -1.157982  0  -0.3099  -0.543145  0  2.397346  0
