# generated using pymatgen
data_CdH11C14NO6
_symmetry_space_group_name_H-M   'P 1'
_cell_length_a   6.88777769
_cell_length_b   9.79686922
_cell_length_c   12.11898950
_cell_angle_alpha   77.28440851
_cell_angle_beta   84.25606469
_cell_angle_gamma   71.41878784
_symmetry_Int_Tables_number   1
_chemical_formula_structural   CdH11C14NO6
_chemical_formula_sum   'Cd2 H22 C28 N2 O12'
_cell_volume   755.73772942
_cell_formula_units_Z   2
loop_
 _symmetry_equiv_pos_site_id
 _symmetry_equiv_pos_as_xyz
  1  'x, y, z'
loop_
 _atom_site_type_symbol
 _atom_site_label
 _atom_site_symmetry_multiplicity
 _atom_site_fract_x
 _atom_site_fract_y
 _atom_site_fract_z
 _atom_site_occupancy
 _atom_site_hle17_bader_spin_density
 _atom_site_hle17_ddec_charge
 _atom_site_hle17_ddec_spin_density
 _atom_site_hle17_ddec_sum_bond_order
 _atom_site_hle17_magmom
 _atom_site_hse06_10hf_bader_spin_density
 _atom_site_hse06_10hf_ddec_charge
 _atom_site_hse06_10hf_ddec_spin_density
 _atom_site_hse06_10hf_ddec_sum_bond_order
 _atom_site_hse06_10hf_magmom
 _atom_site_hse06_bader_spin_density
 _atom_site_hse06_ddec_charge
 _atom_site_hse06_ddec_spin_density
 _atom_site_hse06_ddec_sum_bond_order
 _atom_site_hse06_magmom
 _atom_site_pbe_bader_spin_density
 _atom_site_pbe_cm5_charge
 _atom_site_pbe_ddec_charge
 _atom_site_pbe_ddec_spin_density
 _atom_site_pbe_ddec_sum_bond_order
 _atom_site_pbe_magmom
Cd  Cd0  1  0.49059295  0.81938836  0.95294887  1  0  1.192168  0  1.5646  0  0  1.008383  0  1.997701  0  0  1.069197  0  1.942257  0  0  0.768766  0.964788  0  2.03581  0
Cd  Cd1  1  0.50940766  0.18061234  0.04705186  1  0  1.192249  0  1.564609  0  0  1.008476  0  1.997736  0  0  1.069285  0  1.94229  0  0  0.768831  0.96489  0  2.035842  0
H  H2  1  0.13993969  0.75383050  0.86476455  1  0  0.428323  0  0.826074  0  0  0.406875  0  0.888316  0  0  0.415741  0  0.877279  0  0  0.309792  0.400402  0  0.896  0
H  H3  1  0.86006354  0.24617572  0.13524234  1  0  0.428244  0  0.826141  0  0  0.406806  0  0.888361  0  0  0.415672  0  0.877358  0  0  0.309772  0.400341  0  0.896033  0
H  H4  1  0.25909023  0.61265382  0.95242777  1  0  0.431007  0  0.87386  0  0  0.39616  0  0.944661  0  0  0.40784  0  0.927707  0  0  0.287649  0.387878  0  0.956643  0
H  H5  1  0.74090414  0.38734799  0.04757408  1  0  0.430971  0  0.873914  0  0  0.396119  0  0.944727  0  0  0.4078  0  0.927771  0  0  0.287637  0.387835  0  0.95671  0
H  H6  1  0.01536063  0.30839316  0.94474407  1  0  0.099519  0  0.974404  0  0  0.106298  0  1.046318  0  0  0.110133  0  1.042821  0  0  0.104124  0.103466  0  1.049015  0
H  H7  1  0.98463570  0.69160539  0.05526568  1  0  0.099696  0  0.974376  0  0  0.106413  0  1.046309  0  0  0.11025  0  1.042804  0  0  0.104209  0.103583  0  1.049005  0
H  H8  1  0.97055773  0.67857514  0.67140832  1  0  0.114552  0  0.960951  0  0  0.12282  0  1.025515  0  0  0.127196  0  1.021702  0  0  0.106145  0.119621  0  1.028398  0
H  H9  1  0.02944351  0.32142560  0.32860061  1  0  0.114537  0  0.960959  0  0  0.122773  0  1.025562  0  0  0.127161  0  1.021734  0  0  0.106107  0.119577  0  1.028445  0
H  H10  1  0.52185559  0.53613741  0.15219221  1  0  0.090519  0  0.954947  0  0  0.097742  0  1.021194  0  0  0.100289  0  1.018826  0  0  0.11658  0.095871  0  1.022885  0
H  H11  1  0.47814229  0.46386002  0.84781267  1  0  0.090509  0  0.954942  0  0  0.097726  0  1.021201  0  0  0.10027  0  1.018841  0  0  0.116583  0.095864  0  1.022881  0
H  H12  1  0.40514198  0.46955291  0.35217276  1  0  0.118358  0  0.932959  0  0  0.128324  0  0.98912  0  0  0.132128  0  0.987351  0  0  0.112643  0.125573  0  0.990625  0
H  H13  1  0.59486022  0.53044121  0.64783240  1  0  0.118283  0  0.933082  0  0  0.128251  0  0.989231  0  0  0.132054  0  0.987462  0  0  0.112598  0.125498  0  0.990737  0
H  H14  1  0.33329516  0.24085042  0.62862416  1  0  0.120481  0  0.927042  0  0  0.130291  0  0.987505  0  0  0.134669  0  0.984026  0  0  0.110002  0.127165  0  0.990039  0
H  H15  1  0.66667960  0.75915581  0.37137515  1  0  0.120462  0  0.926938  0  0  0.130302  0  0.987398  0  0  0.134686  0  0.983919  0  0  0.10999  0.127174  0  0.989934  0
H  H16  1  0.22189417  0.72100842  0.53494363  1  0  0.068993  0  0.896389  0  0  0.087615  0  0.949894  0  0  0.087902  0  0.948972  0  0  0.111961  0.087358  0  0.950732  0
H  H17  1  0.77811340  0.27899008  0.46505942  1  0  0.069005  0  0.896395  0  0  0.087626  0  0.949875  0  0  0.087909  0  0.948948  0  0  0.111964  0.087374  0  0.950718  0
H  H18  1  0.99258024  0.71037728  0.48568699  1  0  0.068485  0  0.922339  0  0  0.084278  0  0.98338  0  0  0.084657  0  0.982301  0  0  0.110259  0.083997  0  0.984192  0
H  H19  1  0.00741715  0.28962566  0.51432183  1  0  0.068467  0  0.922435  0  0  0.084263  0  0.983451  0  0  0.084639  0  0.982366  0  0  0.11026  0.083984  0  0.984272  0
H  H20  1  0.21307664  0.97833118  0.13814119  1  0  0.092842  0  0.948221  0  0  0.102537  0  1.010025  0  0  0.105217  0  1.007374  0  0  0.11782  0.100623  0  1.011889  0
H  H21  1  0.78691639  0.02165749  0.86186824  1  0  0.092814  0  0.948081  0  0  0.102526  0  1.009868  0  0  0.105204  0  1.007224  0  0  0.117824  0.100611  0  1.011729  0
H  H22  1  0.08720190  0.93036184  0.33836626  1  0  0.111491  0  0.927007  0  0  0.126309  0  0.976377  0  0  0.129577  0  0.975683  0  0  0.112062  0.123899  0  0.977168  0
H  H23  1  0.91279625  0.06963119  0.66163779  1  0  0.11144  0  0.927009  0  0  0.126347  0  0.976275  0  0  0.129615  0  0.975582  0  0  0.112055  0.123931  0  0.977067  0
C  C24  1  0.82411909  0.60380073  0.87996400  1  0  0.636055  0  3.905615  0  0  0.585618  0  4.191746  0  0  0.619869  0  4.186627  0  0  0.200338  0.562549  0  4.1942  0
C  C25  1  0.17589279  0.39619118  0.12004079  1  0  0.635852  0  3.906212  0  0  0.585571  0  4.192133  0  0  0.619828  0  4.187003  0  0  0.200303  0.562496  0  4.194597  0
C  C26  1  0.97629189  0.50351045  0.81350248  1  0  -0.037762  0  3.785887  0  0  -0.010114  0  4.01945  0  0  -0.017063  0  4.042129  0  0  -0.017035  -0.006121  0  4.004751  0
C  C27  1  0.02370277  0.49650342  0.18649126  1  0  -0.037909  0  3.785992  0  0  -0.010293  0  4.019456  0  0  -0.0173  0  4.042241  0  0  -0.017132  -0.00629  0  4.00474  0
C  C28  1  0.05389982  0.35384706  0.85840894  1  0  -0.086438  0  3.715744  0  0  -0.130045  0  3.973066  0  0  -0.129015  0  3.992734  0  0  -0.090181  -0.13036  0  3.959574  0
C  C29  1  0.94609961  0.64616240  0.14158525  1  0  -0.086406  0  3.716181  0  0  -0.129986  0  3.973347  0  0  -0.128941  0  3.992989  0  0  -0.090195  -0.130302  0  3.959861  0
C  C30  1  0.03250119  0.56087453  0.70280673  1  0  -0.198235  0  3.715878  0  0  -0.236053  0  3.972942  0  0  -0.237888  0  3.990271  0  0  -0.101421  -0.234399  0  3.961473  0
C  C31  1  0.96750892  0.43912723  0.29718971  1  0  -0.19816  0  3.715844  0  0  -0.23593  0  3.972952  0  0  -0.23776  0  3.990264  0  0  -0.101375  -0.234285  0  3.961497  0
C  C32  1  0.42432125  0.62046140  0.19602017  1  0  0.142731  0  3.705002  0  0  0.112128  0  3.959971  0  0  0.119713  0  3.97959  0  0  0.050069  0.107333  0  3.946284  0
C  C33  1  0.57567883  0.37953711  0.80398103  1  0  0.14264  0  3.70504  0  0  0.112041  0  3.959991  0  0  0.119625  0  3.979617  0  0  0.050023  0.107238  0  3.946304  0
C  C34  1  0.36020345  0.58373094  0.30812923  1  0  -0.149758  0  3.699953  0  0  -0.173699  0  3.955817  0  0  -0.181243  0  3.976428  0  0  -0.08269  -0.168915  0  3.941996  0
C  C35  1  0.63979849  0.41626646  0.69187120  1  0  -0.149611  0  3.699917  0  0  -0.17348  0  3.955763  0  0  -0.181029  0  3.976385  0  0  -0.082633  -0.168699  0  3.941944  0
C  C36  1  0.23849056  0.69466928  0.36251800  1  0  0.117049  0  3.728904  0  0  0.129798  0  3.973794  0  0  0.134354  0  3.995406  0  0  0.010769  0.126967  0  3.959037  0
C  C37  1  0.76151319  0.30533359  0.63747792  1  0  0.117061  0  3.729037  0  0  0.129639  0  3.974134  0  0  0.134187  0  3.995744  0  0  0.010722  0.126814  0  3.959377  0
C  C38  1  0.18303253  0.25973599  0.79184494  1  0  -0.043901  0  3.790575  0  0  -0.015061  0  4.023174  0  0  -0.022259  0  4.046488  0  0  -0.018085  -0.010271  0  4.007146  0
C  C39  1  0.81697500  0.74027886  0.20813104  1  0  -0.043961  0  3.791106  0  0  -0.014877  0  4.023252  0  0  -0.022071  0  4.04655  0  0  -0.017987  -0.01009  0  4.007244  0
C  C40  1  0.23240590  0.31473088  0.68005853  1  0  -0.167869  0  3.703677  0  0  -0.206787  0  3.963968  0  0  -0.207941  0  3.980873  0  0  -0.090604  -0.205805  0  3.952343  0
C  C41  1  0.76759465  0.68528071  0.31992360  1  0  -0.168099  0  3.70309  0  0  -0.207135  0  3.963397  0  0  -0.208297  0  3.980306  0  0  -0.090809  -0.206143  0  3.951756  0
C  C42  1  0.15973985  0.46588719  0.63629296  1  0  0.263783  0  3.815612  0  0  0.255245  0  4.086127  0  0  0.264467  0  4.102465  0  0  0.08097  0.248689  0  4.07501  0
C  C43  1  0.84026374  0.53411022  0.36370981  1  0  0.263935  0  3.8149  0  0  0.25533  0  4.08558  0  0  0.264552  0  4.10192  0  0  0.081097  0.248773  0  4.074459  0
C  C44  1  0.16135306  0.66503163  0.48286535  1  0  0.053251  0  3.656169  0  0  -0.013105  0  3.921857  0  0  -0.00507  0  3.925928  0  0  -0.05216  -0.018581  0  3.91888  0
C  C45  1  0.83865391  0.33496139  0.51713881  1  0  0.053329  0  3.656536  0  0  -0.012933  0  3.922171  0  0  -0.004873  0  3.926201  0  0  -0.052115  -0.018442  0  3.919223  0
C  C46  1  0.27712234  0.10116843  0.84326041  1  0  0.630086  0  3.94218  0  0  0.57938  0  4.232883  0  0  0.613299  0  4.228609  0  0  0.188934  0.55615  0  4.235164  0
C  C47  1  0.72288024  0.89881904  0.15673360  1  0  0.630429  0  3.942717  0  0  0.579778  0  4.233187  0  0  0.613694  0  4.228902  0  0  0.189076  0.556547  0  4.235471  0
C  C48  1  0.25336633  0.86731646  0.18903068  1  0  0.138822  0  3.694113  0  0  0.105749  0  3.949111  0  0  0.113145  0  3.968626  0  0  0.046212  0.101086  0  3.935405  0
C  C49  1  0.74662605  0.13268316  0.81097175  1  0  0.139014  0  3.693496  0  0  0.105971  0  3.948478  0  0  0.11337  0  3.967991  0  0  0.04633  0.101306  0  3.934774  0
C  C50  1  0.18519735  0.83943471  0.30089478  1  0  -0.160693  0  3.708033  0  0  -0.179335  0  3.95766  0  0  -0.187911  0  3.9797  0  0  -0.081342  -0.173836  0  3.942654  0
C  C51  1  0.81479922  0.16057147  0.69910193  1  0  -0.160862  0  3.707862  0  0  -0.179554  0  3.95755  0  0  -0.188133  0  3.979595  0  0  -0.081463  -0.174053  0  3.942531  0
N  N52  1  0.37161965  0.75941340  0.13710516  1  0  -0.36205  0  3.285631  0  0  -0.281835  0  3.551229  0  0  -0.305025  0  3.572853  0  0  -0.33603  -0.265867  0  3.535913  0
N  N53  1  0.62837045  0.24058627  0.86290571  1  0  -0.362076  0  3.285514  0  0  -0.281897  0  3.551162  0  0  -0.30509  0  3.572784  0  0  -0.336062  -0.265934  0  3.535858  0
O  O54  1  0.78863749  0.74282278  0.84625098  1  0  -0.643164  0  1.936367  0  0  -0.576941  0  2.170045  0  0  -0.605914  0  2.158566  0  0  -0.332066  -0.556448  0  2.176993  0
O  O55  1  0.21138988  0.25717132  0.15375708  1  0  -0.643005  0  1.936855  0  0  -0.576833  0  2.170456  0  0  -0.605802  0  2.158975  0  0  -0.331927  -0.55634  0  2.177407  0
O  O56  1  0.22269576  0.51095319  0.52709546  1  0  -0.281724  0  2.339803  0  0  -0.211706  0  2.577904  0  0  -0.229725  0  2.58142  0  0  -0.177181  -0.198887  0  2.575055  0
O  O57  1  0.77730289  0.48903987  0.47291515  1  0  -0.281775  0  2.339604  0  0  -0.211782  0  2.577742  0  0  -0.229808  0  2.581249  0  0  -0.177154  -0.198935  0  2.574876  0
O  O58  1  0.72785036  0.55035952  0.96509918  1  0  -0.643732  0  2.006177  0  0  -0.572504  0  2.236154  0  0  -0.602378  0  2.229368  0  0  -0.310667  -0.55154  0  2.239965  0
O  O59  1  0.27213563  0.44964008  0.03489635  1  0  -0.643695  0  2.006357  0  0  -0.57254  0  2.236296  0  0  -0.602414  0  2.229513  0  0  -0.310724  -0.551569  0  2.240105  0
O  O60  1  0.27518325  0.69949319  0.89485974  1  0  -0.834407  0  1.838888  0  0  -0.779088  0  2.03689  0  0  -0.799757  0  2.005002  0  0  -0.585147  -0.764493  0  2.059128  0
O  O61  1  0.72481640  0.30051083  0.10514621  1  0  -0.83434  0  1.838986  0  0  -0.779031  0  2.037004  0  0  -0.799688  0  2.005127  0  0  -0.585142  -0.764438  0  2.059236  0
O  O62  1  0.33978101  0.00574919  0.78214826  1  0  -0.614125  0  1.889387  0  0  -0.560121  0  2.104435  0  0  -0.586246  0  2.095842  0  0  -0.332692  -0.542041  0  2.109973  0
O  O63  1  0.66022908  0.99425792  0.21781991  1  0  -0.614188  0  1.889732  0  0  -0.560239  0  2.10479  0  0  -0.586371  0  2.096208  0  0  -0.3327  -0.542156  0  2.110329  0
O  O64  1  0.29623296  0.06853776  0.95189137  1  0  -0.694657  0  2.040689  0  0  -0.619166  0  2.294468  0  0  -0.651945  0  2.284354  0  0  -0.337824  -0.595874  0  2.300597  0
O  O65  1  0.70377149  0.93144861  0.04810188  1  0  -0.694851  0  2.040772  0  0  -0.619437  0  2.294521  0  0  -0.652234  0  2.28444  0  0  -0.337931  -0.596136  0  2.300643  0
