# generated using pymatgen
data_ZnH6C4N3F
_symmetry_space_group_name_H-M   'P 1'
_cell_length_a   9.88681247
_cell_length_b   11.33644992
_cell_length_c   11.33644811
_cell_angle_alpha   111.90979322
_cell_angle_beta   106.90313576
_cell_angle_gamma   106.90342538
_symmetry_Int_Tables_number   1
_chemical_formula_structural   ZnH6C4N3F
_chemical_formula_sum   'Zn6 H36 C24 N18 F6'
_cell_volume   1007.38281835
_cell_formula_units_Z   6
loop_
 _symmetry_equiv_pos_site_id
 _symmetry_equiv_pos_as_xyz
  1  'x, y, z'
loop_
 _atom_site_type_symbol
 _atom_site_label
 _atom_site_symmetry_multiplicity
 _atom_site_fract_x
 _atom_site_fract_y
 _atom_site_fract_z
 _atom_site_occupancy
 _atom_site_pbe_bader_charge
 _atom_site_pbe_bader_spin_density
 _atom_site_pbe_cm5_charge
 _atom_site_pbe_ddec_charge
 _atom_site_pbe_ddec_spin_density
 _atom_site_pbe_ddec_sum_bond_order
 _atom_site_pbe_magmom
Zn  Zn0  1  0.87438158  0.24884560  0.62438270  1  1.305593  0  0.682821  0.782727  0  2.414233  0
Zn  Zn1  1  0.24999910  0.37553871  0.62445938  1  1.30511  0  0.683518  0.784451  0  2.414207  0
Zn  Zn2  1  0.62561982  0.37561798  0.75115597  1  1.305581  0  0.682819  0.782731  0  2.414178  0
Zn  Zn3  1  0.12561924  0.75115408  0.37561701  1  1.305543  0  0.682828  0.782762  0  2.414174  0
Zn  Zn4  1  0.75000066  0.62446097  0.37554096  1  1.30511  0  0.683513  0.784427  0  2.414217  0
Zn  Zn5  1  0.37438047  0.62438064  0.24884410  1  1.305582  0  0.68282  0.782762  0  2.414192  0
H  H6  1  0.90069204  0.25912829  0.91009442  1  0.142505  0  0.093977  0.161786  0  1.034581  0
H  H7  1  0.99071225  0.08990239  0.34907216  1  0.116507  0  0.094369  0.162504  0  1.031655  0
H  H8  1  0.64153946  0.65080993  0.74077589  1  0.115363  0  0.094461  0.162966  0  1.033998  0
H  H9  1  0.50929110  0.65092822  0.91009899  1  0.116507  0  0.094364  0.162496  0  1.031689  0
H  H10  1  0.85846297  0.25922335  0.34918874  1  0.115122  0  0.094481  0.163014  0  1.033954  0
H  H11  1  0.59930707  0.08990348  0.74086899  1  0.142516  0  0.093976  0.161781  0  1.034588  0
H  H12  1  0.09930772  0.74087139  0.08990592  1  0.142496  0  0.093998  0.161806  0  1.034608  0
H  H13  1  0.00928646  0.91009729  0.65092791  1  0.116476  0  0.094371  0.162508  0  1.031689  0
H  H14  1  0.35846294  0.34919081  0.25922463  1  0.115154  0  0.09445  0.162938  0  1.034015  0
H  H15  1  0.49070971  0.34907146  0.08990162  1  0.116496  0  0.094363  0.162495  0  1.031649  0
H  H16  1  0.14153573  0.74077420  0.65080965  1  0.115146  0  0.094467  0.162963  0  1.034038  0
H  H17  1  0.40069057  0.91009407  0.25912825  1  0.142491  0  0.094008  0.161809  0  1.034584  0
H  H18  1  0.01353226  0.41215422  0.08398699  1  0.058279  0  0.098591  0.149964  0  1.007748  0
H  H19  1  0.92954866  0.91596612  0.32814667  1  0.054722  0  0.098413  0.149514  0  1.007158  0
H  H20  1  0.60130337  0.67178734  0.58780775  1  0.065744  0  0.098887  0.14987  0  1.008519  0
H  H21  1  0.57045465  0.67185513  0.08403526  1  0.054623  0  0.098413  0.149491  0  1.007248  0
H  H22  1  0.89869880  0.41219233  0.32821238  1  0.065582  0  0.098865  0.149864  0  1.008491  0
H  H23  1  0.48646723  0.91601141  0.58784482  1  0.058236  0  0.098589  0.149962  0  1.007734  0
H  H24  1  0.98646804  0.58784652  0.91601388  1  0.058271  0  0.098601  0.149962  0  1.007716  0
H  H25  1  0.07045058  0.08403462  0.67185393  1  0.054719  0  0.098414  0.149518  0  1.007165  0
H  H26  1  0.39869744  0.32821234  0.41219197  1  0.0656  0  0.098877  0.149853  0  1.008511  0
H  H27  1  0.42954616  0.32814455  0.91596534  1  0.054648  0  0.09843  0.149509  0  1.007233  0
H  H28  1  0.10129991  0.58780735  0.67178769  1  0.065569  0  0.098862  0.149831  0  1.008491  0
H  H29  1  0.51352988  0.08398720  0.41215269  1  0.058273  0  0.0986  0.149944  0  1.00775  0
H  H30  1  0.07244567  0.27490970  0.03951128  1  0.032384  0  0.096185  0.141265  0  0.993196  0
H  H31  1  0.03303085  0.96048875  0.23543370  1  0.018071  0  0.096595  0.141936  0  0.993508  0
H  H32  1  0.79747055  0.76461119  0.72508794  1  0.069857  0  0.096338  0.141611  0  0.994099  0
H  H33  1  0.46697246  0.76456649  0.03951077  1  0.018084  0  0.096564  0.141934  0  0.993518  0
H  H34  1  0.70253220  0.27490993  0.23538834  1  0.069853  0  0.096347  0.141632  0  0.994072  0
H  H35  1  0.42755540  0.96048829  0.72509030  1  0.03241  0  0.096183  0.141228  0  0.99317  0
H  H36  1  0.92755569  0.72509105  0.96049163  1  0.03241  0  0.096196  0.141258  0  0.99317  0
H  H37  1  0.96696944  0.03951200  0.76456717  1  0.018052  0  0.096594  0.141938  0  0.993513  0
H  H38  1  0.20253186  0.23538955  0.27491258  1  0.069584  0  0.096322  0.141585  0  0.994139  0
H  H39  1  0.53302995  0.23543426  0.96049063  1  0.018085  0  0.096566  0.141906  0  0.99352  0
H  H40  1  0.29746702  0.72508869  0.76461059  1  0.069608  0  0.096329  0.141597  0  0.994086  0
H  H41  1  0.57244330  0.03951139  0.27490801  1  0.032449  0  0.09618  0.141227  0  0.993195  0
C  C42  1  0.12153150  0.40264851  0.94517126  1  0.987421  0  0.2225  0.401149  0  3.987199  0
C  C43  1  0.17641924  0.05477645  0.45750929  1  0.980739  0  0.222981  0.403111  0  3.986203  0
C  C44  1  0.71896264  0.54256914  0.59730251  1  0.993094  0  0.222693  0.401414  0  3.988636  0
C  C45  1  0.32357938  0.54248771  0.94522219  1  0.980621  0  0.222981  0.403076  0  3.986392  0
C  C46  1  0.78103715  0.40269500  0.45742977  1  0.993186  0  0.222707  0.401448  0  3.988638  0
C  C47  1  0.37846848  0.05482597  0.59735001  1  0.987499  0  0.222447  0.401111  0  3.987177  0
C  C48  1  0.87846985  0.59735223  0.05482988  1  0.987378  0  0.222482  0.401141  0  3.987188  0
C  C49  1  0.82357841  0.94522323  0.54248963  1  0.980951  0  0.222968  0.40307  0  3.986317  0
C  C50  1  0.28103818  0.45743054  0.40269721  1  0.993089  0  0.222706  0.401384  0  3.988746  0
C  C51  1  0.67641985  0.45751091  0.05477850  1  0.980604  0  0.222973  0.403088  0  3.986303  0
C  C52  1  0.21895944  0.59730255  0.54256897  1  0.993124  0  0.222746  0.401452  0  3.988557  0
C  C53  1  0.62152915  0.94517158  0.40264723  1  0.987379  0  0.222477  0.401156  0  3.987191  0
C  C54  1  0.02014103  0.33234304  0.99683129  1  -0.065086  0  -0.238118  -0.477063  0  3.936599  0
C  C55  1  0.02336581  0.00313010  0.33553309  1  -0.033434  0  -0.238993  -0.478742  0  3.933568  0
C  C56  1  0.68778797  0.66445826  0.66760602  1  -0.093852  0  -0.238899  -0.478552  0  3.939614  0
C  C57  1  0.47663746  0.66446804  0.99687179  1  -0.03323  0  -0.238998  -0.478735  0  3.933678  0
C  C58  1  0.81221638  0.33239491  0.33554289  1  -0.093462  0  -0.238904  -0.478629  0  3.939524  0
C  C59  1  0.47985944  0.00317010  0.66765593  1  -0.065263  0  -0.238091  -0.477007  0  3.936585  0
C  C60  1  0.97985927  0.66765771  0.00317134  1  -0.065075  0  -0.238138  -0.477047  0  3.936621  0
C  C61  1  0.97663396  0.99687171  0.66446805  1  -0.03356  0  -0.239006  -0.478751  0  3.933618  0
C  C62  1  0.31221443  0.33554248  0.33239450  1  -0.093235  0  -0.238856  -0.478445  0  3.939602  0
C  C63  1  0.52336390  0.33553270  0.00313022  1  -0.033241  0  -0.238989  -0.478698  0  3.933593  0
C  C64  1  0.18778285  0.66760583  0.66445683  1  -0.093167  0  -0.238851  -0.478459  0  3.939541  0
C  C65  1  0.52013979  0.99683064  0.33234202  1  -0.065156  0  -0.23813  -0.476997  0  3.936614  0
N  N66  1  0.26638270  0.51640356  0.03288222  1  -1.240129  0  -0.358203  -0.429439  0  3.436344  0
N  N67  1  0.23361757  0.96711576  0.48359395  1  -1.240159  0  -0.358192  -0.429424  0  3.436292  0
N  N68  1  0.74999957  0.51647104  0.48352731  1  -1.239984  0  -0.358104  -0.429511  0  3.435642  0
N  N69  1  0.73361760  0.48359718  0.96711865  1  -1.240089  0  -0.358198  -0.429466  0  3.436351  0
N  N70  1  0.76638112  0.03288392  0.51640435  1  -1.240143  0  -0.358196  -0.429448  0  3.436248  0
N  N71  1  0.24999965  0.48352757  0.51647073  1  -1.239997  0  -0.358136  -0.42952  0  3.435741  0
N  N72  1  0.08890280  0.36041939  0.80876399  1  -0.789331  0  -0.258988  -0.284149  0  3.446237  0
N  N73  1  0.28015488  0.19119919  0.55168581  1  -0.790905  0  -0.259638  -0.285301  0  3.447545  0
N  N74  1  0.72850995  0.44836799  0.63952976  1  -0.796106  0  -0.259644  -0.284294  0  3.448818  0
N  N75  1  0.21984766  0.44831347  0.80880205  1  -0.790913  0  -0.25963  -0.285261  0  3.447645  0
N  N76  1  0.77149226  0.36046945  0.55163080  1  -0.789668  0  -0.259697  -0.284362  0  3.448906  0
N  N77  1  0.41109828  0.19123755  0.63958137  1  -0.789192  0  -0.259002  -0.284165  0  3.446129  0
N  N78  1  0.91109750  0.63958135  0.19123776  1  -0.789305  0  -0.25902  -0.284214  0  3.446219  0
N  N79  1  0.71984489  0.80880262  0.44831356  1  -0.790898  0  -0.259621  -0.285228  0  3.447566  0
N  N80  1  0.27149086  0.55163170  0.36046996  1  -0.789991  0  -0.259664  -0.284328  0  3.44885  0
N  N81  1  0.78015317  0.55168621  0.19119943  1  -0.79096  0  -0.259619  -0.285219  0  3.447554  0
N  N82  1  0.22850696  0.63952917  0.44836812  1  -0.795762  0  -0.259704  -0.284378  0  3.44887  0
N  N83  1  0.58890095  0.80876320  0.36041747  1  -0.789289  0  -0.25903  -0.284251  0  3.44624  0
F  F84  1  0.75000356  0.25913905  0.74086657  1  -0.775908  0  -0.352346  -0.539321  0  1.167754  0
F  F85  1  0.00914165  0.25908944  0.51826826  1  -0.779301  0  -0.352807  -0.540035  0  1.168495  0
F  F86  1  0.49086077  0.48173404  0.74091141  1  -0.779277  0  -0.352818  -0.540051  0  1.168478  0
F  F87  1  0.24999779  0.74086170  0.25913368  1  -0.775909  0  -0.352345  -0.53933  0  1.167742  0
F  F88  1  0.99085917  0.74091236  0.48173314  1  -0.779237  0  -0.352816  -0.540042  0  1.168486  0
F  F89  1  0.50914059  0.51826670  0.25908972  1  -0.779283  0  -0.352816  -0.540062  0  1.168512  0
