# generated using pymatgen
data_LaH9C14(NO5)2
_symmetry_space_group_name_H-M   'P 1'
_cell_length_a   7.27409736
_cell_length_b   9.96899999
_cell_length_c   11.09529637
_cell_angle_alpha   71.52821392
_cell_angle_beta   75.18256586
_cell_angle_gamma   78.71756720
_symmetry_Int_Tables_number   1
_chemical_formula_structural   LaH9C14(NO5)2
_chemical_formula_sum   'La2 H18 C28 N4 O20'
_cell_volume   731.96478271
_cell_formula_units_Z   2
loop_
 _symmetry_equiv_pos_site_id
 _symmetry_equiv_pos_as_xyz
  1  'x, y, z'
loop_
 _atom_site_type_symbol
 _atom_site_label
 _atom_site_symmetry_multiplicity
 _atom_site_fract_x
 _atom_site_fract_y
 _atom_site_fract_z
 _atom_site_occupancy
 _atom_site_hle17_bader_spin_density
 _atom_site_hle17_ddec_charge
 _atom_site_hle17_ddec_spin_density
 _atom_site_hle17_ddec_sum_bond_order
 _atom_site_hle17_magmom
 _atom_site_hse06_10hf_bader_spin_density
 _atom_site_hse06_10hf_ddec_charge
 _atom_site_hse06_10hf_ddec_spin_density
 _atom_site_hse06_10hf_ddec_sum_bond_order
 _atom_site_hse06_10hf_magmom
 _atom_site_hse06_bader_spin_density
 _atom_site_hse06_ddec_charge
 _atom_site_hse06_ddec_spin_density
 _atom_site_hse06_ddec_sum_bond_order
 _atom_site_hse06_magmom
 _atom_site_pbe_bader_spin_density
 _atom_site_pbe_cm5_charge
 _atom_site_pbe_ddec_charge
 _atom_site_pbe_ddec_spin_density
 _atom_site_pbe_ddec_sum_bond_order
 _atom_site_pbe_magmom
La  La0  1  0.35574883  0.46938762  0.27127274  1  0  2.082083  0  1.779376  0  0  1.940481  0  2.294954  0  0  2.037774  0  2.199415  0  0  1.400954  1.866538  0  2.363651  0
La  La1  1  0.64425323  0.53060886  0.72872689  1  0  2.082053  0  1.779465  0  0  1.940428  0  2.29507  0  0  2.037723  0  2.199533  0  0  1.400923  1.866496  0  2.363767  0
H  H2  1  0.96614536  0.19142197  0.78110605  1  0  0.14522  0  0.929727  0  0  0.148455  0  0.997395  0  0  0.153602  0  0.993482  0  0  0.127849  0.144666  0  1.000347  0
H  H3  1  0.03385653  0.80857558  0.21889871  1  0  0.145215  0  0.929816  0  0  0.148442  0  0.997484  0  0  0.153588  0  0.993571  0  0  0.127835  0.144645  0  1.000443  0
H  H4  1  0.21205324  0.88175847  0.56797085  1  0  0.120697  0  0.978616  0  0  0.127869  0  1.044336  0  0  0.132459  0  1.040691  0  0  0.114466  0.124831  0  1.046343  0
H  H5  1  0.78795149  0.11823908  0.43203073  1  0  0.120702  0  0.978633  0  0  0.127894  0  1.044329  0  0  0.132484  0  1.040684  0  0  0.11448  0.124864  0  1.046327  0
H  H6  1  0.36952435  0.84607806  0.39621334  1  0  0.128456  0  0.949547  0  0  0.135518  0  1.014217  0  0  0.140097  0  1.010798  0  0  0.116777  0.132134  0  1.016817  0
H  H7  1  0.63047984  0.15392269  0.60378742  1  0  0.128438  0  0.949569  0  0  0.135499  0  1.014234  0  0  0.140079  0  1.010813  0  0  0.116759  0.132111  0  1.016839  0
H  H8  1  0.69177292  0.04633120  0.01774739  1  0  0.129262  0  0.983885  0  0  0.135335  0  1.050505  0  0  0.140097  0  1.046654  0  0  0.116882  0.131831  0  1.053302  0
H  H9  1  0.30822682  0.95367061  0.98225202  1  0  0.129257  0  0.983883  0  0  0.135329  0  1.050512  0  0  0.140091  0  1.04666  0  0  0.116881  0.131823  0  1.053313  0
H  H10  1  0.81842543  0.85777506  0.97907122  1  0  0.411852  0  0.88725  0  0  0.375949  0  0.970912  0  0  0.390596  0  0.950767  0  0  0.299215  0.365757  0  0.981677  0
H  H11  1  0.18156826  0.14222889  0.02092589  1  0  0.411837  0  0.887151  0  0  0.37593  0  0.970911  0  0  0.390581  0  0.95076  0  0  0.299208  0.365742  0  0.9816  0
H  H12  1  0.10591845  0.34843008  0.13360719  1  0  0.443608  0  0.851406  0  0  0.413468  0  0.91158  0  0  0.425323  0  0.894194  0  0  0.301833  0.404917  0  0.924131  0
H  H13  1  0.89407880  0.65156960  0.86639144  1  0  0.443635  0  0.85138  0  0  0.413494  0  0.911554  0  0  0.425347  0  0.894169  0  0  0.301852  0.404943  0  0.924104  0
H  H14  1  0.24628335  0.46036405  0.02715584  1  0  0.441195  0  0.854009  0  0  0.411163  0  0.91528  0  0  0.423529  0  0.897112  0  0  0.3064  0.401995  0  0.928802  0
H  H15  1  0.75371515  0.53963669  0.97284408  1  0  0.441182  0  0.854026  0  0  0.411177  0  0.915257  0  0  0.423542  0  0.89709  0  0  0.306413  0.402009  0  0.928779  0
H  H16  1  0.75991949  0.32724859  0.30990590  1  0  0.433365  0  0.853746  0  0  0.403293  0  0.919133  0  0  0.414099  0  0.903176  0  0  0.307377  0.39559  0  0.930481  0
H  H17  1  0.24008221  0.67275002  0.69009498  1  0  0.433375  0  0.853731  0  0  0.403306  0  0.919116  0  0  0.414112  0  0.903158  0  0  0.307407  0.395605  0  0.930461  0
H  H18  1  0.69107845  0.40374599  0.42296006  1  0  0.434818  0  0.865788  0  0  0.404207  0  0.92863  0  0  0.416611  0  0.910632  0  0  0.299144  0.395455  0  0.941213  0
H  H19  1  0.30892307  0.59625369  0.57704055  1  0  0.4348  0  0.865818  0  0  0.404182  0  0.928671  0  0  0.416588  0  0.91067  0  0  0.299138  0.395429  0  0.941255  0
C  C20  1  0.13356229  0.26500883  0.58654419  1  0  0.110478  0  3.731485  0  0  0.116187  0  3.981725  0  0  0.116861  0  3.999753  0  0  0.130197  0.115234  0  3.969607  0
C  C21  1  0.86643693  0.73498766  0.41345862  1  0  0.110494  0  3.731331  0  0  0.116231  0  3.981513  0  0  0.116902  0  3.999542  0  0  0.130204  0.115277  0  3.969393  0
C  C22  1  0.04789525  0.16230868  0.69401573  1  0  -0.099654  0  3.620651  0  0  -0.13563  0  3.872121  0  0  -0.136608  0  3.888533  0  0  -0.057031  -0.135224  0  3.861441  0
C  C23  1  0.95210664  0.83768888  0.30598903  1  0  -0.099647  0  3.620631  0  0  -0.135622  0  3.872088  0  0  -0.1366  0  3.8885  0  0  -0.057031  -0.135209  0  3.861411  0
C  C24  1  0.07632439  0.02200997  0.68664944  1  0  -0.019023  0  3.733032  0  0  -0.000834  0  3.977501  0  0  -0.005196  0  3.998502  0  0  0.002438  0.002053  0  3.96336  0
C  C25  1  0.92368140  0.97798971  0.31335226  1  0  -0.019035  0  3.733031  0  0  -0.00083  0  3.977496  0  0  -0.005192  0  3.998492  0  0  0.002447  0.002061  0  3.963348  0
C  C26  1  0.18427615  0.99139850  0.57286604  1  0  -0.128808  0  3.653038  0  0  -0.163187  0  3.902919  0  0  -0.1663  0  3.921952  0  0  -0.067668  -0.160726  0  3.889151  0
C  C27  1  0.81572982  0.00860012  0.42713503  1  0  -0.128936  0  3.653106  0  0  -0.163306  0  3.903039  0  0  -0.166419  0  3.922072  0  0  -0.067722  -0.160855  0  3.889255  0
C  C28  1  0.26082476  0.10135631  0.46832854  1  0  0.192206  0  3.743989  0  0  0.191984  0  3.992413  0  0  0.19734  0  4.012094  0  0  0.131687  0.188188  0  3.978875  0
C  C29  1  0.73917837  0.89864230  0.53167210  1  0  0.192376  0  3.743873  0  0  0.192037  0  3.992449  0  0  0.197396  0  4.012133  0  0  0.131725  0.188237  0  3.978919  0
C  C30  1  0.38106305  0.07534274  0.34610864  1  0  0.173598  0  3.750293  0  0  0.173945  0  3.998974  0  0  0.178712  0  4.019674  0  0  0.124091  0.170644  0  3.984985  0
C  C31  1  0.61893687  0.92465800  0.65389013  1  0  0.173556  0  3.750343  0  0  0.173947  0  3.999021  0  0  0.178702  0  4.019739  0  0  0.124093  0.170651  0  3.985034  0
C  C32  1  0.42190399  0.94060883  0.32336410  1  0  -0.124397  0  3.621434  0  0  -0.158081  0  3.872564  0  0  -0.161358  0  3.890902  0  0  -0.066569  -0.156182  0  3.860952  0
C  C33  1  0.57810038  0.05939085  0.67663513  1  0  -0.124383  0  3.621428  0  0  -0.158056  0  3.872535  0  0  -0.161328  0  3.890876  0  0  -0.066564  -0.156152  0  3.860923  0
C  C34  1  0.53759388  0.92563738  0.20520973  1  0  -0.014467  0  3.700366  0  0  0.005261  0  3.941204  0  0  0.00235  0  3.960108  0  0  0.001536  0.007248  0  3.928038  0
C  C35  1  0.46240746  0.07436337  0.79478881  1  0  -0.014443  0  3.700395  0  0  0.00525  0  3.941233  0  0  0.002341  0  3.960136  0  0  0.001536  0.007241  0  3.92807  0
C  C36  1  0.60457034  0.04748739  0.11278192  1  0  -0.111261  0  3.65395  0  0  -0.149822  0  3.906646  0  0  -0.151773  0  3.923838  0  0  -0.070159  -0.148288  0  3.895081  0
C  C37  1  0.39542941  0.95251443  0.88721748  1  0  -0.111283  0  3.653994  0  0  -0.149846  0  3.906703  0  0  -0.151799  0  3.923897  0  0  -0.070156  -0.148313  0  3.895146  0
C  C38  1  0.56020284  0.17666675  0.14373196  1  0  0.114204  0  3.752036  0  0  0.117914  0  4.00466  0  0  0.119275  0  4.021889  0  0  0.122587  0.116252  0  3.993707  0
C  C39  1  0.43979708  0.82333400  0.85626772  1  0  0.114233  0  3.752026  0  0  0.11794  0  4.004639  0  0  0.119301  0  4.021869  0  0  0.122602  0.116279  0  3.993692  0
C  C40  1  0.63134137  0.31121674  0.04808744  1  0  0.656223  0  3.878562  0  0  0.602627  0  4.179758  0  0  0.638231  0  4.171907  0  0  0.234714  0.578023  0  4.184369  0
C  C41  1  0.36865553  0.68878507  0.95191424  1  0  0.656343  0  3.87857  0  0  0.602778  0  4.17971  0  0  0.63838  0  4.171861  0  0  0.234796  0.578176  0  4.184325  0
C  C42  1  0.58871704  0.77996185  0.18046869  1  0  0.675889  0  3.861467  0  0  0.625191  0  4.162432  0  0  0.659975  0  4.154205  0  0  0.231785  0.601687  0  4.166665  0
C  C43  1  0.41128448  0.22003783  0.81952832  1  0  0.67581  0  3.861498  0  0  0.62518  0  4.162368  0  0  0.659964  0  4.154142  0  0  0.231794  0.601677  0  4.166606  0
C  C44  1  0.99888286  0.90143821  0.79788346  1  0  0.661878  0  3.818645  0  0  0.602766  0  4.12418  0  0  0.635873  0  4.116472  0  0  0.239469  0.580237  0  4.129134  0
C  C45  1  0.00111387  0.09856467  0.20212065  1  0  0.661997  0  3.818573  0  0  0.602878  0  4.124135  0  0  0.635998  0  4.116412  0  0  0.239551  0.580347  0  4.129085  0
C  C46  1  0.12507326  0.41620035  0.59061669  1  0  0.647707  0  3.904994  0  0  0.595103  0  4.203193  0  0  0.630231  0  4.195631  0  0  0.232667  0.571319  0  4.206993  0
C  C47  1  0.87492862  0.58379720  0.40938176  1  0  0.647679  0  3.904958  0  0  0.595066  0  4.20317  0  0  0.630197  0  4.195603  0  0  0.232681  0.571281  0  4.206967  0
N  N48  1  0.23440886  0.23630977  0.47603794  1  0  -0.371561  0  3.159589  0  0  -0.336769  0  3.417985  0  0  -0.352201  0  3.437113  0  0  -0.330459  -0.32567  0  3.404677  0
N  N49  1  0.76558982  0.76368992  0.52396315  1  0  -0.371586  0  3.159555  0  0  -0.336756  0  3.417963  0  0  -0.352186  0  3.437091  0  0  -0.330457  -0.325659  0  3.404663  0
N  N50  1  0.45280497  0.19061603  0.25761590  1  0  -0.370896  0  3.203736  0  0  -0.333396  0  3.460286  0  0  -0.349523  0  3.481152  0  0  -0.338024  -0.321619  0  3.445489  0
N  N51  1  0.54719353  0.80938472  0.74238401  1  0  -0.370899  0  3.203799  0  0  -0.333394  0  3.460318  0  0  -0.349515  0  3.481186  0  0  -0.33801  -0.321618  0  3.445527  0
O  O52  1  0.62227335  0.41487908  0.09541292  1  0  -0.682009  0  2.062354  0  0  -0.626187  0  2.305942  0  0  -0.659345  0  2.296837  0  0  -0.367839  -0.601993  0  2.312057  0
O  O53  1  0.37772088  0.58512167  0.90458681  1  0  -0.682094  0  2.062295  0  0  -0.626247  0  2.30583  0  0  -0.659406  0  2.296726  0  0  -0.367864  -0.602051  0  2.311949  0
O  O54  1  0.69031629  0.31301105  0.93076806  1  0  -0.626431  0  1.979013  0  0  -0.579637  0  2.223379  0  0  -0.609673  0  2.214624  0  0  -0.335586  -0.557834  0  2.228826  0
O  O55  1  0.30968559  0.68698650  0.06923130  1  0  -0.626481  0  1.97919  0  0  -0.579716  0  2.22355  0  0  -0.60975  0  2.214794  0  0  -0.335625  -0.55791  0  2.228997  0
O  O56  1  0.71556933  0.76369989  0.08149784  1  0  -0.585681  0  1.998353  0  0  -0.534496  0  2.222738  0  0  -0.559227  0  2.210563  0  0  -0.296759  -0.51736  0  2.229555  0
O  O57  1  0.28441830  0.23630618  0.91849157  1  0  -0.585611  0  1.998166  0  0  -0.534435  0  2.22253  0  0  -0.559167  0  2.210355  0  0  -0.296753  -0.517298  0  2.229325  0
O  O58  1  0.50125561  0.68029937  0.26348278  1  0  -0.665277  0  1.978044  0  0  -0.617721  0  2.232126  0  0  -0.649276  0  2.222215  0  0  -0.37094  -0.594528  0  2.238061  0
O  O59  1  0.49875036  0.31969925  0.73651648  1  0  -0.665258  0  1.978135  0  0  -0.61774  0  2.232225  0  0  -0.649296  0  2.222313  0  0  -0.370939  -0.594546  0  2.238161  0
O  O60  1  0.04128177  0.77685060  0.78988134  1  0  -0.565376  0  2.01754  0  0  -0.502649  0  2.227604  0  0  -0.525308  0  2.21814  0  0  -0.261875  -0.487398  0  2.234328  0
O  O61  1  0.95871282  0.22314802  0.21011894  1  0  -0.565436  0  2.017585  0  0  -0.50273  0  2.227682  0  0  -0.525392  0  2.218215  0  0  -0.261958  -0.487482  0  2.234406  0
O  O62  1  0.88891308  0.93977467  0.89721542  1  0  -0.546625  0  2.136688  0  0  -0.488462  0  2.365071  0  0  -0.513477  0  2.349555  0  0  -0.304809  -0.471256  0  2.373415  0
O  O63  1  0.11108595  0.06023141  0.10278739  1  0  -0.546658  0  2.136573  0  0  -0.488471  0  2.364988  0  0  -0.513504  0  2.34947  0  0  -0.304825  -0.471269  0  2.373287  0
O  O64  1  0.99957821  0.45957749  0.67611968  1  0  -0.64878  0  2.021907  0  0  -0.603022  0  2.274362  0  0  -0.633801  0  2.264363  0  0  -0.359767  -0.580447  0  2.280078  0
O  O65  1  0.00042083  0.54042006  0.32388105  1  0  -0.648744  0  2.022064  0  0  -0.602993  0  2.274535  0  0  -0.63377  0  2.264528  0  0  -0.359747  -0.580416  0  2.280246  0
O  O66  1  0.24933019  0.49053035  0.50551632  1  0  -0.669293  0  2.031959  0  0  -0.612209  0  2.269153  0  0  -0.644451  0  2.260521  0  0  -0.344076  -0.589189  0  2.273728  0
O  O67  1  0.75066902  0.50946613  0.49448469  1  0  -0.66934  0  2.031828  0  0  -0.612249  0  2.269007  0  0  -0.644489  0  2.260369  0  0  -0.344123  -0.58923  0  2.273585  0
O  O68  1  0.20208270  0.41206473  0.12031268  1  0  -0.90445  0  1.900312  0  0  -0.858162  0  2.0994  0  0  -0.884218  0  2.064238  0  0  -0.653457  -0.838356  0  2.124287  0
O  O69  1  0.79792042  0.58793389  0.87968616  1  0  -0.904456  0  1.900297  0  0  -0.858179  0  2.099359  0  0  -0.884236  0  2.064197  0  0  -0.653488  -0.838373  0  2.124249  0
O  O70  1  0.64802652  0.34950161  0.37526792  1  0  -0.868725  0  1.852489  0  0  -0.826436  0  2.051173  0  0  -0.851284  0  2.016627  0  0  -0.617042  -0.808524  0  2.07479  0
O  O71  1  0.35197340  0.65049914  0.62473266  1  0  -0.868719  0  1.852502  0  0  -0.826436  0  2.051203  0  0  -0.851284  0  2.016656  0  0  -0.617067  -0.808521  0  2.074816  0
