# generated using pymatgen
data_CoHC4N4O3
_symmetry_space_group_name_H-M   'P 1'
_cell_length_a   6.98426509
_cell_length_b   15.02419210
_cell_length_c   15.03446878
_cell_angle_alpha   117.66712529
_cell_angle_beta   98.96918087
_cell_angle_gamma   98.81536257
_symmetry_Int_Tables_number   1
_chemical_formula_structural   CoHC4N4O3
_chemical_formula_sum   'Co6 H6 C24 N24 O18'
_cell_volume   1333.44473678
_cell_formula_units_Z   6
loop_
 _symmetry_equiv_pos_site_id
 _symmetry_equiv_pos_as_xyz
  1  'x, y, z'
loop_
 _atom_site_type_symbol
 _atom_site_label
 _atom_site_symmetry_multiplicity
 _atom_site_fract_x
 _atom_site_fract_y
 _atom_site_fract_z
 _atom_site_occupancy
 _atom_site_pbe_bader_charge
 _atom_site_pbe_bader_spin_density
 _atom_site_pbe_cm5_charge
 _atom_site_pbe_ddec_charge
 _atom_site_pbe_ddec_spin_density
 _atom_site_pbe_ddec_sum_bond_order
 _atom_site_pbe_magmom
Co  Co0  1  0.29369561  0.25881804  0.68064953  1  1.317031  2.456732  0.698333  0.960123  2.852227  2.634728  2.441
Co  Co1  1  0.03286764  0.42078463  0.74081074  1  1.327932  -2.526625  0.702735  0.975161  -2.774542  2.610868  -2.511
Co  Co2  1  0.61395131  0.32002853  0.58039314  1  1.324431  -2.511916  0.702036  0.971681  -2.758467  2.620813  -2.496
Co  Co3  1  0.70682621  0.73880368  0.32080433  1  1.316238  -2.512926  0.692497  0.95828  -2.755572  2.623452  -2.498
Co  Co4  1  0.96895599  0.58236928  0.26112338  1  1.321655  -2.541492  0.695173  0.965727  -2.786557  2.612184  -2.526
Co  Co5  1  0.38607463  0.67880405  0.41745079  1  1.319363  -2.534909  0.695752  0.965583  -2.780754  2.612791  -2.52
H  H6  1  0.86558665  0.54398967  0.02182767  1  0.116929  -0.00085  0.108902  0.133325  -0.000273  1.01655  0.0
H  H7  1  0.32130247  0.47681697  0.45536254  1  0.10935  -0.00098  0.108951  0.133693  -0.000301  1.016259  0.0
H  H8  1  0.84367114  0.97781986  0.52225713  1  0.120676  -1.3e-05  0.109425  0.133482  8e-06  1.016344  0.0
H  H9  1  0.13262531  0.45438244  0.97707345  1  0.104551  -0.000766  0.108996  0.132941  -0.000151  1.0175  0.0
H  H10  1  0.67886814  0.52346457  0.54579609  1  0.12901  -0.000988  0.109066  0.133455  -0.000331  1.015811  0.0
H  H11  1  0.15523086  0.02299480  0.47750851  1  0.120507  -0.000657  0.109552  0.133815  -0.000302  1.016461  0.0
C  C12  1  0.36696491  0.43400126  0.89832404  1  0.543251  -0.019451  0.073304  0.291976  -0.009876  4.09216  -0.01
C  C13  1  0.93319078  0.46459710  0.56593153  1  0.544812  -0.022555  0.072881  0.292993  -0.012679  4.096349  -0.011
C  C14  1  0.46828788  0.10159788  0.53551101  1  0.571932  -0.027244  0.073928  0.292777  -0.014247  4.089168  -0.019
C  C15  1  0.63124280  0.56398342  0.10048260  1  0.607377  -0.013597  0.074221  0.29641  -0.008158  4.088596  -0.006
C  C16  1  0.06733389  0.53617680  0.43568056  1  0.598012  -0.019664  0.073732  0.294846  -0.011217  4.09325  -0.009
C  C17  1  0.53054609  0.89935129  0.46356399  1  0.592212  0.016072  0.075057  0.296162  0.007981  4.092776  0.013
C  C18  1  0.57852995  0.46042782  0.91136340  1  -0.013255  -0.017066  -0.030552  -0.141917  -0.009361  3.962388  -0.011
C  C19  1  0.11788367  0.45057652  0.53916969  1  -0.048044  -0.017085  -0.030632  -0.142364  -0.008467  3.963125  -0.01
C  C20  1  0.66711956  0.08846092  0.54934460  1  -0.052171  0.020307  -0.030684  -0.143411  0.011221  3.960749  0.014
C  C21  1  0.41966942  0.53767511  0.08739382  1  -0.012655  -0.026532  -0.029415  -0.138235  -0.013569  3.955347  -0.017
C  C22  1  0.88224189  0.54982329  0.46209257  1  -0.077595  -0.027966  -0.029761  -0.140223  -0.014234  3.958692  -0.018
C  C23  1  0.33181528  0.91254512  0.45047037  1  -0.028721  -0.037982  -0.028339  -0.136112  -0.019258  3.955043  -0.026
C  C24  1  0.70425278  0.52358394  0.01173482  1  -0.001846  -0.031445  -0.095137  -0.185131  -0.016399  3.930229  -0.02
C  C25  1  0.18054125  0.48749729  0.47590154  1  0.045281  -0.034346  -0.096047  -0.18526  -0.018039  3.933523  -0.021
C  C26  1  0.69244488  0.98811351  0.51206528  1  0.003043  -0.031802  -0.094551  -0.183495  -0.016284  3.930851  -0.022
C  C27  1  0.29398194  0.47450809  0.98705244  1  -0.009576  -0.016699  -0.097263  -0.189592  -0.008592  3.939464  -0.009
C  C28  1  0.81982258  0.51297012  0.52543700  1  0.027336  -0.032763  -0.096968  -0.187264  -0.017384  3.935153  -0.02
C  C29  1  0.30651613  0.01280692  0.48759538  1  0.001353  0.010577  -0.095674  -0.187739  0.005124  3.934793  0.007
C  C30  1  0.67185500  0.43144853  0.82278280  1  1.530043  0.0029  0.225391  0.617716  0.001165  4.107875  0.002
C  C31  1  0.24064736  0.39116734  0.56867979  1  1.534205  -0.003955  0.22518  0.6182  -0.002984  4.111173  -0.002
C  C32  1  0.84923192  0.17700959  0.60866315  1  1.539234  -0.003488  0.225655  0.61856  -0.001965  4.111329  -0.004
C  C33  1  0.32582030  0.56769312  0.17596673  1  1.544789  -0.00295  0.224644  0.618453  -0.0031  4.112239  -0.001
C  C34  1  0.75844246  0.60841360  0.43194282  1  1.538371  -0.003586  0.22524  0.620465  -0.003449  4.110904  -0.002
C  C35  1  0.14937407  0.82398735  0.39188512  1  1.534068  -0.003474  0.22512  0.61803  -0.003391  4.115031  -0.001
N  N36  1  0.38087123  0.18644166  0.75082180  1  -0.237477  0.011219  -0.074707  -0.07445  0.011249  3.431733  0.024
N  N37  1  0.19362535  0.56533377  0.81425908  1  -0.207222  -0.014992  -0.062586  -0.063485  -0.011706  3.39823  -0.025
N  N38  1  0.62913799  0.24966231  0.43602143  1  -0.234187  -0.013749  -0.06462  -0.064301  -0.01084  3.401418  -0.025
N  N39  1  0.62277113  0.81275631  0.24913386  1  -0.200594  -0.013688  -0.061331  -0.057679  -0.010946  3.391755  -0.024
N  N40  1  0.81052259  0.43599413  0.18671070  1  -0.271625  -0.015426  -0.057714  -0.05587  -0.011682  3.377042  -0.025
N  N41  1  0.37382411  0.75061794  0.56352860  1  -0.171335  -0.014803  -0.058304  -0.055044  -0.011501  3.381564  -0.025
N  N42  1  0.41702978  0.13836582  0.78705093  1  0.110337  -0.073792  -0.003116  0.026888  -0.036807  2.745015  -0.051
N  N43  1  0.27685185  0.64959072  0.86300558  1  0.09804  0.065173  0.003046  0.0316  0.034533  2.746089  0.045
N  N44  1  0.62876301  0.21407346  0.35183819  1  0.122001  0.066903  0.00234  0.031376  0.035381  2.743674  0.046
N  N45  1  0.58864449  0.86266683  0.21495845  1  0.091053  0.062952  0.002458  0.028805  0.033402  2.745016  0.043
N  N46  1  0.72674992  0.35195503  0.13691511  1  0.169148  0.060324  0.0065  0.033488  0.031859  2.742526  0.041
N  N47  1  0.37419787  0.78469759  0.64757668  1  0.067765  0.060827  0.005332  0.031184  0.032292  2.743664  0.042
N  N48  1  0.11464754  0.75383235  0.11933129  1  -0.006047  0.000233  0.012816  0.022143  0.000285  2.835679  0.0
N  N49  1  0.36113369  0.36525133  0.24561878  1  0.005533  0.000192  0.011154  0.020619  0.000274  2.841539  0.0
N  N50  1  0.99577042  0.88050968  0.63451228  1  0.018531  0.000176  0.013791  0.023561  0.00023  2.839372  0.0
N  N51  1  0.88839672  0.24710919  0.88079918  1  0.013099  -0.000109  0.014464  0.024142  -1.4e-05  2.84177  0.0
N  N52  1  0.64021822  0.63469504  0.75413255  1  0.014999  0.000262  0.012227  0.021034  0.00028  2.841051  0.0
N  N53  1  0.00619627  0.11916662  0.36587235  1  0.030276  7e-06  0.013221  0.023539  5.2e-05  2.843949  0.0
N  N54  1  0.99640012  0.79561072  0.11851197  1  0.002118  0.00023  0.008424  0.007955  0.000172  2.788018  0.0
N  N55  1  0.20108155  0.32285773  0.20430155  1  -0.009387  0.000172  0.010119  0.009363  0.000158  2.795034  0.0
N  N56  1  0.87799203  0.88122658  0.67673791  1  -0.022397  0.000197  0.007616  0.006645  0.000161  2.792258  0.0
N  N57  1  0.00226611  0.20291308  0.88147235  1  -0.017091  -0.000306  0.006743  0.00588  -0.0002  2.78875  0.0
N  N58  1  0.79948842  0.67809727  0.79645006  1  -0.018843  0.000221  0.008922  0.008971  0.000178  2.792203  0.0
N  N59  1  0.12094619  0.11891891  0.32207359  1  -0.034152  0.000212  0.00787  0.006501  0.000167  2.792769  0.0
O  O60  1  0.23253121  0.37212190  0.80549673  1  -1.106159  -0.032167  -0.336955  -0.570743  -0.015434  2.6151  -0.027
O  O61  1  0.86098339  0.43459470  0.62829904  1  -1.112899  -0.206722  -0.337589  -0.575736  -0.111762  2.613419  -0.18
O  O62  1  0.42570771  0.19388092  0.56522272  1  -1.10881  -0.003029  -0.333158  -0.565284  0.000155  2.60959  0.0
O  O63  1  0.76517920  0.62616322  0.19307423  1  -1.118021  -0.207857  -0.337998  -0.575108  -0.112571  2.619134  -0.182
O  O64  1  0.13907514  0.56642677  0.37345011  1  -1.115397  -0.212152  -0.33754  -0.575287  -0.114591  2.615301  -0.186
O  O65  1  0.57167364  0.80677612  0.43276321  1  -1.11071  -0.191979  -0.33547  -0.570574  -0.105045  2.624862  -0.17
O  O66  1  0.55611915  0.37780902  0.73006203  1  -1.153705  0.001966  -0.300381  -0.567478  0.002258  2.558171  0.0
O  O67  1  0.17752860  0.35138004  0.62150696  1  -1.147003  -0.019783  -0.300626  -0.569093  -0.009097  2.544018  -0.016
O  O68  1  0.82597836  0.26973426  0.64818694  1  -1.148976  -0.09776  -0.302202  -0.572408  -0.054987  2.564621  -0.086
O  O69  1  0.44175910  0.61937064  0.26874229  1  -1.15722  -0.107188  -0.305984  -0.576674  -0.059342  2.564318  -0.095
O  O70  1  0.82259968  0.64939402  0.38018875  1  -1.152858  -0.108613  -0.305742  -0.576883  -0.059977  2.563607  -0.096
O  O71  1  0.17293097  0.73116894  0.35059204  1  -1.15515  -0.110553  -0.307952  -0.579112  -0.061233  2.565591  -0.098
O  O72  1  0.86070630  0.46460648  0.84176444  1  -1.13853  -0.070129  -0.300467  -0.53815  -0.037756  2.352101  -0.059
O  O73  1  0.39815264  0.37853894  0.53694493  1  -1.144459  -0.09469  -0.301821  -0.539866  -0.050695  2.347729  -0.08
O  O74  1  0.01936020  0.15794485  0.62208030  1  -1.142286  0.070168  -0.3004  -0.5355  0.040722  2.348375  0.059
O  O75  1  0.13642309  0.53759801  0.15663046  1  -1.153275  -0.090541  -0.300093  -0.53915  -0.048249  2.355512  -0.077
O  O76  1  0.59912841  0.61939244  0.46201582  1  -1.148034  -0.091825  -0.301553  -0.540963  -0.048941  2.357638  -0.078
O  O77  1  0.97921215  0.84325634  0.38124764  1  -1.138181  -0.090403  -0.299484  -0.537966  -0.048259  2.358074  -0.077
