# generated using pymatgen
data_CdH12C10(NO)4
_symmetry_space_group_name_H-M   'P 1'
_cell_length_a   5.10584297
_cell_length_b   6.89381828
_cell_length_c   10.39132132
_cell_angle_alpha   73.94699991
_cell_angle_beta   83.79332917
_cell_angle_gamma   68.80567854
_symmetry_Int_Tables_number   1
_chemical_formula_structural   CdH12C10(NO)4
_chemical_formula_sum   'Cd1 H12 C10 N4 O4'
_cell_volume   327.71010503
_cell_formula_units_Z   1
loop_
 _symmetry_equiv_pos_site_id
 _symmetry_equiv_pos_as_xyz
  1  'x, y, z'
loop_
 _atom_site_type_symbol
 _atom_site_label
 _atom_site_symmetry_multiplicity
 _atom_site_fract_x
 _atom_site_fract_y
 _atom_site_fract_z
 _atom_site_occupancy
 _atom_site_hle17_bader_spin_density
 _atom_site_hle17_ddec_charge
 _atom_site_hle17_ddec_spin_density
 _atom_site_hle17_ddec_sum_bond_order
 _atom_site_hle17_magmom
 _atom_site_hse06_10hf_bader_spin_density
 _atom_site_hse06_10hf_ddec_charge
 _atom_site_hse06_10hf_ddec_spin_density
 _atom_site_hse06_10hf_ddec_sum_bond_order
 _atom_site_hse06_10hf_magmom
 _atom_site_hse06_bader_spin_density
 _atom_site_hse06_ddec_charge
 _atom_site_hse06_ddec_spin_density
 _atom_site_hse06_ddec_sum_bond_order
 _atom_site_hse06_magmom
 _atom_site_pbe_bader_spin_density
 _atom_site_pbe_cm5_charge
 _atom_site_pbe_ddec_charge
 _atom_site_pbe_ddec_spin_density
 _atom_site_pbe_ddec_sum_bond_order
 _atom_site_pbe_magmom
Cd  Cd0  1  0.00000743  0.00000939  0.99997835  1  0  1.143299  0  1.706181  0  0  0.944476  0  2.167116  0  0  0.998832  0  2.115567  0  0  0.797125  0.90695  0  2.203212  0
H  H1  1  0.33615490  0.20435709  0.39480838  1  0  0.111908  0  0.942165  0  0  0.127748  0  0.996593  0  0  0.129861  0  0.995303  0  0  0.128112  0.126137  0  0.99743  0
H  H2  1  0.66382801  0.79563830  0.60520281  1  0  0.11192  0  0.942149  0  0  0.127746  0  0.996599  0  0  0.129859  0  0.995311  0  0  0.12809  0.12613  0  0.997443  0
H  H3  1  0.81745854  0.85468006  0.33817276  1  0  0.105705  0  0.944722  0  0  0.116174  0  1.006224  0  0  0.118609  0  1.004468  0  0  0.120448  0.114308  0  1.007626  0
H  H4  1  0.18259012  0.14534050  0.66180918  1  0  0.105556  0  0.944249  0  0  0.116021  0  1.005857  0  0  0.118464  0  1.004102  0  0  0.120285  0.114153  0  1.007258  0
H  H5  1  0.34871131  0.17174784  0.14795029  1  0  0.300019  0  0.945412  0  0  0.272552  0  1.017445  0  0  0.282421  0  1.010035  0  0  0.311929  0.265543  0  1.022694  0
H  H6  1  0.65128805  0.82824598  0.85206135  1  0  0.299951  0  0.945491  0  0  0.272373  0  1.017594  0  0  0.282241  0  1.010188  0  0  0.311874  0.265364  0  1.022845  0
H  H7  1  0.66800334  0.46596301  0.80768490  1  0  0.142618  0  0.970101  0  0  0.156365  0  1.036616  0  0  0.159561  0  1.034765  0  0  0.091366  0.154104  0  1.037875  0
H  H8  1  0.33196898  0.53404782  0.19230266  1  0  0.142512  0  0.969765  0  0  0.156293  0  1.036291  0  0  0.159493  0  1.034449  0  0  0.091286  0.154026  0  1.037554  0
H  H9  1  0.48743638  0.39951221  0.69668481  1  0  0.123154  0  0.94486  0  0  0.142364  0  1.004887  0  0  0.14444  0  1.004341  0  0  0.08943  0.141064  0  1.00508  0
H  H10  1  0.51258400  0.60048688  0.30333826  1  0  0.12301  0  0.944798  0  0  0.142238  0  1.004827  0  0  0.144311  0  1.004288  0  0  0.089347  0.140935  0  1.005016  0
H  H11  1  0.30708030  0.62177761  0.76460450  1  0  0.130723  0  0.982996  0  0  0.14577  0  1.050596  0  0  0.147288  0  1.051945  0  0  0.091649  0.144762  0  1.049676  0
H  H12  1  0.69298318  0.37820596  0.23538479  1  0  0.130607  0  0.982717  0  0  0.145679  0  1.050364  0  0  0.147211  0  1.051703  0  0  0.091576  0.144655  0  1.049458  0
C  C13  1  0.04047388  0.01556232  0.42976259  1  0  -0.052146  0  3.911583  0  0  -0.036124  0  4.158194  0  0  -0.041846  0  4.184803  0  0  -0.033617  -0.032768  0  4.140603  0
C  C14  1  0.95948485  0.98440204  0.57019031  1  0  -0.051875  0  3.911291  0  0  -0.035955  0  4.158043  0  0  -0.041661  0  4.184654  0  0  -0.033581  -0.032608  0  4.14045  0
C  C15  1  0.22011621  0.12374686  0.36095052  1  0  -0.011672  0  3.664741  0  0  -0.065048  0  3.928183  0  0  -0.058483  0  3.9433  0  0  0.020674  -0.068208  0  3.916981  0
C  C16  1  0.77989934  0.87625116  0.63903834  1  0  -0.011899  0  3.665151  0  0  -0.06533  0  3.928571  0  0  -0.058775  0  3.943697  0  0  0.020545  -0.068478  0  3.917367  0
C  C17  1  0.95474682  0.94620030  0.33078046  1  0  -0.009018  0  3.71178  0  0  -0.055126  0  3.983327  0  0  -0.048844  0  3.998948  0  0  0.015824  -0.059852  0  3.973802  0
C  C18  1  0.04521994  0.05377047  0.66922182  1  0  -0.009272  0  3.709184  0  0  -0.055386  0  3.980873  0  0  -0.049119  0  3.996516  0  0  0.015794  -0.060105  0  3.971342  0
C  C19  1  0.46651311  0.45988997  0.78607942  1  0  -0.469905  0  3.663057  0  0  -0.544961  0  3.899558  0  0  -0.552354  0  3.901975  0  0  -0.259089  -0.539718  0  3.897479  0
C  C20  1  0.53351712  0.54014509  0.21390159  1  0  -0.46992  0  3.662558  0  0  -0.545052  0  3.899058  0  0  -0.552468  0  3.901466  0  0  -0.259083  -0.539786  0  3.896994  0
C  C21  1  0.36494905  0.31671095  0.90305997  1  0  0.771924  0  3.794566  0  0  0.725614  0  4.094516  0  0  0.760892  0  4.084651  0  0  0.211186  0.701554  0  4.100305  0
C  C22  1  0.63507157  0.68333680  0.09691329  1  0  0.772312  0  3.794638  0  0  0.726013  0  4.094476  0  0  0.761306  0  4.084594  0  0  0.211481  0.701951  0  4.100267  0
N  N23  1  0.23199983  0.11617949  0.23212324  1  0  -0.144171  0  3.492242  0  0  -0.08188  0  3.729023  0  0  -0.094012  0  3.748774  0  0  -0.270106  -0.073748  0  3.716072  0
N  N24  1  0.76799445  0.88382557  0.76788553  1  0  -0.144364  0  3.492535  0  0  -0.081792  0  3.729093  0  0  -0.093923  0  3.748856  0  0  -0.270044  -0.073657  0  3.716133  0
N  N25  1  0.07189144  0.00934391  0.21224791  1  0  -0.241122  0  3.192174  0  0  -0.182471  0  3.472147  0  0  -0.197253  0  3.490371  0  0  -0.252689  -0.173736  0  3.461641  0
N  N26  1  0.92805272  0.99063062  0.78782502  1  0  -0.240789  0  3.191765  0  0  -0.182146  0  3.471638  0  0  -0.196928  0  3.489872  0  0  -0.252717  -0.173416  0  3.461135  0
O  O27  1  0.51391007  0.22750111  0.00985664  1  0  -0.673261  0  2.013388  0  0  -0.603038  0  2.260035  0  0  -0.631033  0  2.248014  0  0  -0.331312  -0.583229  0  2.267619  0
O  O28  1  0.48605697  0.77249065  0.99014351  1  0  -0.673392  0  2.013772  0  0  -0.603082  0  2.260402  0  0  -0.631085  0  2.248379  0  0  -0.331354  -0.58325  0  2.267939  0
O  O29  1  0.13538175  0.29288921  0.88928844  1  0  -0.656288  0  1.964126  0  0  -0.590089  0  2.215044  0  0  -0.618571  0  2.203037  0  0  -0.332243  -0.56961  0  2.222228  0
O  O30  1  0.86463281  0.70713567  0.11073092  1  0  -0.656123  0  1.963861  0  0  -0.589945  0  2.214709  0  0  -0.618433  0  2.202707  0  0  -0.332186  -0.569465  0  2.22189  0
