# generated using pymatgen
data_ZnH28C20(N2O3)2
_symmetry_space_group_name_H-M   'P 1'
_cell_length_a   8.96893826
_cell_length_b   9.75872793
_cell_length_c   12.31065910
_cell_angle_alpha   90.00003831
_cell_angle_beta   90.00004266
_cell_angle_gamma   96.29080980
_symmetry_Int_Tables_number   1
_chemical_formula_structural   ZnH28C20(N2O3)2
_chemical_formula_sum   'Zn2 H56 C40 N8 O12'
_cell_volume   1071.00761736
_cell_formula_units_Z   2
loop_
 _symmetry_equiv_pos_site_id
 _symmetry_equiv_pos_as_xyz
  1  'x, y, z'
loop_
 _atom_site_type_symbol
 _atom_site_label
 _atom_site_symmetry_multiplicity
 _atom_site_fract_x
 _atom_site_fract_y
 _atom_site_fract_z
 _atom_site_occupancy
 _atom_site_hle17_bader_spin_density
 _atom_site_hle17_ddec_charge
 _atom_site_hle17_ddec_spin_density
 _atom_site_hle17_ddec_sum_bond_order
 _atom_site_hle17_magmom
 _atom_site_hse06_10hf_bader_spin_density
 _atom_site_hse06_10hf_ddec_charge
 _atom_site_hse06_10hf_ddec_spin_density
 _atom_site_hse06_10hf_ddec_sum_bond_order
 _atom_site_hse06_10hf_magmom
 _atom_site_hse06_bader_spin_density
 _atom_site_hse06_ddec_charge
 _atom_site_hse06_ddec_spin_density
 _atom_site_hse06_ddec_sum_bond_order
 _atom_site_hse06_magmom
 _atom_site_pbe_bader_spin_density
 _atom_site_pbe_cm5_charge
 _atom_site_pbe_ddec_charge
 _atom_site_pbe_ddec_spin_density
 _atom_site_pbe_ddec_sum_bond_order
 _atom_site_pbe_magmom
Zn  Zn0  1  0.99999876  0.99999740  0.00000135  1  0  1.056038  0  1.830829  0  0  0.886855  0  2.271704  0  0  0.931747  0  2.219782  0  0  0.680504  0.854696  0  2.307304  0
Zn  Zn1  1  0.49999937  0.99999944  0.49999881  1  0  1.05601  0  1.830862  0  0  0.886817  0  2.271736  0  0  0.93171  0  2.219811  0  0  0.680494  0.854658  0  2.307339  0
H  H2  1  0.91493840  0.09896138  0.81926835  1  0  0.407007  0  0.903466  0  0  0.372267  0  0.974491  0  0  0.384194  0  0.957033  0  0  0.277189  0.363978  0  0.986574  0
H  H3  1  0.58506326  0.90103787  0.31926844  1  0  0.406983  0  0.903493  0  0  0.372246  0  0.974513  0  0  0.384173  0  0.957055  0  0  0.277181  0.363957  0  0.986596  0
H  H4  1  0.08506451  0.90103858  0.18073226  1  0  0.406978  0  0.903495  0  0  0.37224  0  0.974517  0  0  0.384168  0  0.957058  0  0  0.277169  0.363952  0  0.986598  0
H  H5  1  0.41493853  0.09896208  0.68073136  1  0  0.407004  0  0.903483  0  0  0.372255  0  0.97452  0  0  0.384183  0  0.957061  0  0  0.277173  0.363966  0  0.986602  0
H  H6  1  0.08855856  0.09488898  0.78148867  1  0  0.416074  0  0.887436  0  0  0.382668  0  0.956072  0  0  0.393928  0  0.93965  0  0  0.280004  0.374597  0  0.967829  0
H  H7  1  0.41144360  0.90511281  0.28148731  1  0  0.416052  0  0.887468  0  0  0.382646  0  0.956103  0  0  0.393906  0  0.939682  0  0  0.279982  0.374574  0  0.967862  0
H  H8  1  0.91144335  0.90511201  0.21851275  1  0  0.416135  0  0.887361  0  0  0.382736  0  0.955983  0  0  0.393996  0  0.939562  0  0  0.279996  0.374665  0  0.967739  0
H  H9  1  0.58855831  0.09488818  0.71851167  1  0  0.416141  0  0.887358  0  0  0.382737  0  0.955987  0  0  0.393999  0  0.939563  0  0  0.280006  0.374667  0  0.967743  0
H  H10  1  0.19718313  0.68901872  0.70686734  1  0  0.11073  0  0.965119  0  0  0.116775  0  1.031594  0  0  0.119835  0  1.031599  0  0  0.106413  0.114856  0  1.031208  0
H  H11  1  0.30281747  0.31097989  0.20686480  1  0  0.110747  0  0.965105  0  0  0.116767  0  1.031605  0  0  0.119822  0  1.031618  0  0  0.106407  0.114863  0  1.031203  0
H  H12  1  0.80281743  0.31098020  0.29313327  1  0  0.110729  0  0.965121  0  0  0.11677  0  1.031599  0  0  0.119827  0  1.031607  0  0  0.106413  0.11485  0  1.031212  0
H  H13  1  0.69718197  0.68901902  0.79313256  1  0  0.110725  0  0.965123  0  0  0.116786  0  1.031579  0  0  0.119859  0  1.031571  0  0  0.106418  0.114867  0  1.031192  0
H  H14  1  0.19662577  0.89828368  0.82481559  1  0  0.087913  0  0.95566  0  0  0.095485  0  1.020453  0  0  0.09793  0  1.018608  0  0  0.118593  0.093458  0  1.022186  0
H  H15  1  0.30336974  0.10171811  0.32481294  1  0  0.087971  0  0.955573  0  0  0.095475  0  1.020427  0  0  0.09792  0  1.018581  0  0  0.118593  0.09345  0  1.022158  0
H  H16  1  0.80336944  0.10171727  0.17518583  1  0  0.087984  0  0.955627  0  0  0.095485  0  1.020482  0  0  0.09793  0  1.018636  0  0  0.118593  0.093458  0  1.022214  0
H  H17  1  0.69662671  0.89828388  0.67518442  1  0  0.087942  0  0.955618  0  0  0.095492  0  1.020434  0  0  0.097935  0  1.01859  0  0  0.118594  0.093464  0  1.022167  0
H  H18  1  0.85994862  0.70778331  0.01928452  1  0  0.086294  0  0.936761  0  0  0.092503  0  1.006012  0  0  0.095787  0  1.00198  0  0  0.116965  0.089974  0  1.009255  0
H  H19  1  0.64004577  0.29221357  0.51928439  1  0  0.086217  0  0.936823  0  0  0.092433  0  1.006065  0  0  0.095716  0  1.002033  0  0  0.116938  0.089903  0  1.00931  0
H  H20  1  0.14004689  0.29221044  0.98071446  1  0  0.086287  0  0.936793  0  0  0.092463  0  1.006063  0  0  0.095747  0  1.002031  0  0  0.116953  0.089934  0  1.009307  0
H  H21  1  0.35994798  0.70778429  0.48071541  1  0  0.086316  0  0.936724  0  0  0.092492  0  1.006011  0  0  0.095775  0  1.001979  0  0  0.116962  0.089963  0  1.009254  0
H  H22  1  0.94707662  0.30180715  0.53809175  1  0  0.054381  0  0.916967  0  0  0.071633  0  0.983657  0  0  0.072435  0  0.98295  0  0  0.095172  0.070597  0  0.984861  0
H  H23  1  0.55292384  0.69819389  0.03809172  1  0  0.054386  0  0.916964  0  0  0.07162  0  0.983655  0  0  0.07242  0  0.982952  0  0  0.095167  0.070586  0  0.984858  0
H  H24  1  0.05292206  0.69819485  0.46190804  1  0  0.054405  0  0.91696  0  0  0.071627  0  0.983663  0  0  0.07243  0  0.982958  0  0  0.095186  0.070597  0  0.984863  0
H  H25  1  0.44707707  0.30180812  0.96190727  1  0  0.054388  0  0.916933  0  0  0.071639  0  0.983621  0  0  0.072444  0  0.982912  0  0  0.095152  0.070601  0  0.984825  0
H  H26  1  0.14221928  0.31978586  0.56963331  1  0  0.067535  0  0.923572  0  0  0.087737  0  0.981914  0  0  0.087935  0  0.982359  0  0  0.104743  0.08739  0  0.982131  0
H  H27  1  0.35778052  0.68021674  0.06963262  1  0  0.067552  0  0.923648  0  0  0.087762  0  0.981956  0  0  0.087961  0  0.9824  0  0  0.104761  0.087415  0  0.982174  0
H  H28  1  0.85777940  0.68021614  0.43036649  1  0  0.067573  0  0.923624  0  0  0.087772  0  0.981943  0  0  0.08797  0  0.982388  0  0  0.104775  0.087426  0  0.982159  0
H  H29  1  0.64221939  0.31978630  0.93036637  1  0  0.067559  0  0.92367  0  0  0.087758  0  0.981997  0  0  0.087959  0  0.982441  0  0  0.104777  0.087413  0  0.982212  0
H  H30  1  0.84638795  0.48994265  0.90984523  1  0  0.109633  0  0.96504  0  0  0.116273  0  1.032323  0  0  0.119669  0  1.031312  0  0  0.106585  0.114329  0  1.032105  0
H  H31  1  0.65361035  0.51005564  0.40984514  1  0  0.109553  0  0.965084  0  0  0.116219  0  1.032349  0  0  0.119614  0  1.03134  0  0  0.106564  0.114273  0  1.032133  0
H  H32  1  0.15361238  0.51005420  0.09015376  1  0  0.109579  0  0.965081  0  0  0.116229  0  1.032355  0  0  0.119625  0  1.031344  0  0  0.106565  0.114284  0  1.032137  0
H  H33  1  0.34638786  0.48994224  0.59015547  1  0  0.109629  0  0.965047  0  0  0.116266  0  1.032339  0  0  0.119662  0  1.031327  0  0  0.106585  0.114322  0  1.032119  0
H  H34  1  0.09977459  0.38157329  0.74670101  1  0  0.083656  0  0.914172  0  0  0.100711  0  0.976338  0  0  0.101855  0  0.974884  0  0  0.11108  0.09904  0  0.978726  0
H  H35  1  0.40022506  0.61842639  0.24670112  1  0  0.083664  0  0.914152  0  0  0.100723  0  0.976317  0  0  0.101868  0  0.974861  0  0  0.111085  0.099052  0  0.978705  0
H  H36  1  0.90022597  0.61842563  0.25329798  1  0  0.083683  0  0.914139  0  0  0.10074  0  0.976306  0  0  0.101889  0  0.974843  0  0  0.111099  0.099072  0  0.978687  0
H  H37  1  0.59977561  0.38157356  0.75329868  1  0  0.08369  0  0.914187  0  0  0.100746  0  0.976351  0  0  0.101889  0  0.974897  0  0  0.111099  0.099075  0  0.978737  0
H  H38  1  0.90366387  0.38392639  0.73882838  1  0  0.061239  0  0.907312  0  0  0.078204  0  0.968564  0  0  0.079907  0  0.966769  0  0  0.096699  0.076265  0  0.970925  0
H  H39  1  0.59633659  0.61607278  0.23882832  1  0  0.061245  0  0.907304  0  0  0.078205  0  0.968562  0  0  0.079901  0  0.966769  0  0  0.096706  0.076266  0  0.970922  0
H  H40  1  0.09633781  0.61607254  0.26117142  1  0  0.061244  0  0.907298  0  0  0.078204  0  0.96856  0  0  0.079904  0  0.966766  0  0  0.096706  0.076265  0  0.97092  0
H  H41  1  0.40366385  0.38392510  0.76117148  1  0  0.06124  0  0.907303  0  0  0.078213  0  0.968546  0  0  0.079916  0  0.96675  0  0  0.096702  0.076274  0  0.970907  0
H  H42  1  0.54300564  0.92684651  0.10467472  1  0  0.099169  0  0.945705  0  0  0.112477  0  1.008934  0  0  0.115328  0  1.00702  0  0  0.097317  0.11041  0  1.010609  0
H  H43  1  0.95699625  0.07315666  0.60467546  1  0  0.099092  0  0.945727  0  0  0.11244  0  1.008933  0  0  0.115287  0  1.007016  0  0  0.097306  0.110375  0  1.01061  0
H  H44  1  0.45699650  0.07315653  0.89532507  1  0  0.099102  0  0.945738  0  0  0.112445  0  1.008948  0  0  0.115291  0  1.007031  0  0  0.097313  0.11038  0  1.010625  0
H  H45  1  0.04300490  0.92684741  0.39532515  1  0  0.099122  0  0.945719  0  0  0.112454  0  1.008938  0  0  0.115303  0  1.007024  0  0  0.097323  0.110389  0  1.010613  0
H  H46  1  0.53418107  0.10519557  0.09228930  1  0  0.094048  0  0.931121  0  0  0.112004  0  0.990028  0  0  0.113664  0  0.990302  0  0  0.09737  0.110516  0  0.990582  0
H  H47  1  0.96581980  0.89480861  0.59228804  1  0  0.094003  0  0.931081  0  0  0.111965  0  0.990008  0  0  0.113621  0  0.990278  0  0  0.09736  0.110481  0  0.990563  0
H  H48  1  0.46581884  0.89480746  0.90771212  1  0  0.093996  0  0.931087  0  0  0.111963  0  0.990012  0  0  0.113618  0  0.990281  0  0  0.097359  0.110477  0  0.990568  0
H  H49  1  0.03418134  0.10519546  0.40771176  1  0  0.094005  0  0.93113  0  0  0.111978  0  0.990035  0  0  0.113637  0  0.990311  0  0  0.097356  0.110492  0  0.990591  0
H  H50  1  0.90693587  0.65790598  0.62903579  1  0  0.053814  0  0.965109  0  0  0.071974  0  1.028879  0  0  0.071397  0  1.031002  0  0  0.098363  0.072041  0  1.02807  0
H  H51  1  0.59306493  0.34209721  0.12903477  1  0  0.053822  0  0.965089  0  0  0.071977  0  1.028864  0  0  0.071402  0  1.030988  0  0  0.098351  0.072047  0  1.028047  0
H  H52  1  0.09306516  0.34209706  0.37096563  1  0  0.053849  0  0.965082  0  0  0.071981  0  1.028868  0  0  0.071405  0  1.030993  0  0  0.098353  0.072056  0  1.028041  0
H  H53  1  0.40693721  0.65790584  0.87096340  1  0  0.053838  0  0.965108  0  0  0.07198  0  1.028916  0  0  0.071403  0  1.031038  0  0  0.098376  0.072058  0  1.028078  0
H  H54  1  0.80464050  0.50685136  0.57536272  1  0  0.038964  0  0.931866  0  0  0.054498  0  1.004226  0  0  0.05485  0  1.004196  0  0  0.088658  0.054544  0  1.003443  0
H  H55  1  0.69535912  0.49315177  0.07536022  1  0  0.038967  0  0.931833  0  0  0.054494  0  1.004217  0  0  0.054848  0  1.004189  0  0  0.088644  0.054541  0  1.003436  0
H  H56  1  0.19535830  0.49315167  0.42463951  1  0  0.038952  0  0.931885  0  0  0.054488  0  1.004232  0  0  0.054833  0  1.004211  0  0  0.088646  0.054535  0  1.003451  0
H  H57  1  0.30464079  0.50685126  0.92463714  1  0  0.038968  0  0.931867  0  0  0.054505  0  1.004227  0  0  0.05485  0  1.004202  0  0  0.088656  0.054549  0  1.003443  0
C  C58  1  0.31980679  0.98877017  0.08970066  1  0  0.700769  0  3.837897  0  0  0.652187  0  4.140462  0  0  0.685528  0  4.13374  0  0  0.208501  0.629669  0  4.143382  0
C  C59  1  0.18019503  0.01123040  0.58970040  1  0  0.700633  0  3.837981  0  0  0.652053  0  4.140578  0  0  0.685389  0  4.133857  0  0  0.208437  0.629538  0  4.143498  0
C  C60  1  0.68019489  0.01122875  0.91030076  1  0  0.700797  0  3.837731  0  0  0.652178  0  4.140374  0  0  0.685508  0  4.133655  0  0  0.208509  0.62966  0  4.1433  0
C  C61  1  0.81980576  0.98877058  0.41029939  1  0  0.70069  0  3.837919  0  0  0.652097  0  4.140512  0  0  0.685437  0  4.133793  0  0  0.20847  0.62958  0  4.143435  0
C  C62  1  0.12319877  0.68822171  0.77707315  1  0  -0.165072  0  3.713649  0  0  -0.182591  0  3.962757  0  0  -0.190255  0  3.983734  0  0  -0.086141  -0.177663  0  3.948188  0
C  C63  1  0.37679833  0.31177490  0.27706983  1  0  -0.165143  0  3.71371  0  0  -0.18265  0  3.962796  0  0  -0.190311  0  3.983775  0  0  -0.086133  -0.177738  0  3.948217  0
C  C64  1  0.87680044  0.31177514  0.22292908  1  0  -0.165155  0  3.713708  0  0  -0.182656  0  3.962786  0  0  -0.190319  0  3.983764  0  0  -0.08617  -0.177729  0  3.948217  0
C  C65  1  0.62319865  0.68822194  0.72292671  1  0  -0.165064  0  3.713712  0  0  -0.182598  0  3.962804  0  0  -0.190274  0  3.983774  0  0  -0.086136  -0.177671  0  3.948233  0
C  C66  1  0.12271391  0.80452213  0.84180489  1  0  0.123534  0  3.707569  0  0  0.094107  0  3.954246  0  0  0.100599  0  3.973142  0  0  0.044139  0.089938  0  3.941899  0
C  C67  1  0.37728597  0.19547867  0.34180232  1  0  0.123465  0  3.707645  0  0  0.094165  0  3.954334  0  0  0.100658  0  3.973226  0  0  0.044123  0.089996  0  3.941991  0
C  C68  1  0.87728565  0.19547782  0.15819653  1  0  0.123497  0  3.707759  0  0  0.094195  0  3.95444  0  0  0.100691  0  3.973332  0  0  0.04416  0.090027  0  3.94209  0
C  C69  1  0.62271471  0.80452128  0.65819504  1  0  0.123503  0  3.70762  0  0  0.094086  0  3.954294  0  0  0.100581  0  3.973194  0  0  0.044115  0.089919  0  3.941946  0
C  C70  1  0.93408934  0.69736186  0.95032811  1  0  0.142004  0  3.701839  0  0  0.109606  0  3.955301  0  0  0.117463  0  3.972097  0  0  0.049152  0.104138  0  3.943985  0
C  C71  1  0.56590801  0.30263749  0.45032624  1  0  0.142079  0  3.701851  0  0  0.109742  0  3.955332  0  0  0.117602  0  3.972125  0  0  0.049157  0.104276  0  3.944016  0
C  C72  1  0.06590887  0.30263601  0.04967250  1  0  0.142061  0  3.701894  0  0  0.109778  0  3.955335  0  0  0.117637  0  3.972126  0  0  0.049168  0.104311  0  3.944015  0
C  C73  1  0.43408809  0.69736140  0.54967112  1  0  0.142006  0  3.701812  0  0  0.109627  0  3.955268  0  0  0.117485  0  3.97206  0  0  0.049152  0.10416  0  3.943953  0
C  C74  1  0.05038011  0.37611290  0.54001913  1  0  -0.018384  0  3.68746  0  0  -0.077978  0  3.956115  0  0  -0.074631  0  3.967895  0  0  -0.067365  -0.080265  0  3.948688  0
C  C75  1  0.44962066  0.62388865  0.04002089  1  0  -0.018473  0  3.687572  0  0  -0.078003  0  3.956158  0  0  -0.074657  0  3.967938  0  0  -0.067378  -0.080293  0  3.948733  0
C  C76  1  0.94961957  0.62388808  0.45997823  1  0  -0.018515  0  3.687567  0  0  -0.078049  0  3.956173  0  0  -0.074706  0  3.967954  0  0  -0.067412  -0.080341  0  3.948753  0
C  C77  1  0.55038137  0.37611337  0.95998053  1  0  -0.018452  0  3.687522  0  0  -0.078003  0  3.956155  0  0  -0.074659  0  3.967937  0  0  -0.067376  -0.08029  0  3.948725  0
C  C78  1  0.92840196  0.57675950  0.88949137  1  0  -0.183953  0  3.734196  0  0  -0.20357  0  3.989243  0  0  -0.211955  0  4.010698  0  0  -0.088125  -0.197372  0  3.97271  0
C  C79  1  0.57159374  0.42323567  0.38949038  1  0  -0.183969  0  3.734491  0  0  -0.203623  0  3.989521  0  0  -0.212009  0  4.010979  0  0  -0.088152  -0.197425  0  3.972988  0
C  C80  1  0.07159590  0.42323529  0.11050924  1  0  -0.184021  0  3.734565  0  0  -0.203645  0  3.989587  0  0  -0.212031  0  4.011043  0  0  -0.088138  -0.197447  0  3.973055  0
C  C81  1  0.42840189  0.57675910  0.61050861  1  0  -0.183967  0  3.734219  0  0  -0.203585  0  3.989251  0  0  -0.21197  0  4.010705  0  0  -0.088125  -0.197387  0  3.972719  0
C  C82  1  0.02248331  0.57162898  0.79952356  1  0  0.12935  0  3.727918  0  0  0.143443  0  3.964978  0  0  0.148336  0  3.986672  0  0  0.012633  0.140352  0  3.948971  0
C  C83  1  0.47751775  0.42837281  0.29952279  1  0  0.12941  0  3.728001  0  0  0.143538  0  3.965021  0  0  0.148431  0  3.986713  0  0  0.012688  0.140446  0  3.949014  0
C  C84  1  0.97751972  0.42837201  0.20047624  1  0  0.129429  0  3.727979  0  0  0.143506  0  3.965058  0  0  0.148397  0  3.986752  0  0  0.012657  0.140411  0  3.949053  0
C  C85  1  0.52248416  0.57162817  0.70047619  1  0  0.129348  0  3.72798  0  0  0.143448  0  3.965033  0  0  0.148338  0  3.986732  0  0  0.012623  0.140356  0  3.949026  0
C  C86  1  0.01233133  0.44825969  0.72531060  1  0  -0.047404  0  3.704294  0  0  -0.106731  0  3.958484  0  0  -0.103469  0  3.968666  0  0  -0.057327  -0.108138  0  3.951184  0
C  C87  1  0.48766830  0.55173996  0.22530990  1  0  -0.047445  0  3.704322  0  0  -0.106778  0  3.958531  0  0  -0.103507  0  3.968705  0  0  -0.057344  -0.108183  0  3.951224  0
C  C88  1  0.98766923  0.55173922  0.27468920  1  0  -0.047449  0  3.704331  0  0  -0.10678  0  3.958552  0  0  -0.10351  0  3.968723  0  0  -0.057357  -0.108184  0  3.951249  0
C  C89  1  0.51233238  0.44825999  0.77468827  1  0  -0.047449  0  3.704358  0  0  -0.106779  0  3.958546  0  0  -0.103517  0  3.96873  0  0  -0.057356  -0.108186  0  3.951248  0
C  C90  1  0.48583234  0.00394491  0.06113496  1  0  -0.244761  0  3.696281  0  0  -0.286855  0  3.952219  0  0  -0.291857  0  3.960267  0  0  -0.169394  -0.283133  0  3.946456  0
C  C91  1  0.01416868  0.99605872  0.56113513  1  0  -0.244593  0  3.696075  0  0  -0.286767  0  3.952112  0  0  -0.291741  0  3.960138  0  0  -0.169383  -0.283058  0  3.946364  0
C  C92  1  0.51416880  0.99605916  0.93886484  1  0  -0.244593  0  3.696115  0  0  -0.286767  0  3.952146  0  0  -0.291736  0  3.960166  0  0  -0.169378  -0.283058  0  3.946397  0
C  C93  1  0.98583246  0.00394535  0.43886467  1  0  -0.24464  0  3.696153  0  0  -0.286784  0  3.952161  0  0  -0.291786  0  3.960209  0  0  -0.169393  -0.283069  0  3.946409  0
C  C94  1  0.91543578  0.57045540  0.57418168  1  0  -0.0193  0  3.70072  0  0  -0.07856  0  3.966529  0  0  -0.07508  0  3.978711  0  0  -0.071469  -0.080959  0  3.958321  0
C  C95  1  0.58456496  0.42954774  0.07418070  1  0  -0.01929  0  3.700657  0  0  -0.078564  0  3.966548  0  0  -0.075097  0  3.978743  0  0  -0.07142  -0.080959  0  3.958327  0
C  C96  1  0.08456413  0.42954764  0.42581893  1  0  -0.019333  0  3.700754  0  0  -0.078548  0  3.96654  0  0  -0.075071  0  3.978733  0  0  -0.071419  -0.080939  0  3.958317  0
C  C97  1  0.41543607  0.57045530  0.92581747  1  0  -0.019329  0  3.700744  0  0  -0.0786  0  3.96656  0  0  -0.07512  0  3.978744  0  0  -0.071456  -0.080994  0  3.95835  0
N  N98  1  0.02806017  0.80990186  0.92613666  1  0  -0.323682  0  3.297101  0  0  -0.243653  0  3.55546  0  0  -0.262575  0  3.572767  0  0  -0.328478  -0.230725  0  3.544127  0
N  N99  1  0.47193264  0.19009487  0.42613496  1  0  -0.323522  0  3.296909  0  0  -0.243676  0  3.555444  0  0  -0.262598  0  3.572746  0  0  -0.328455  -0.230751  0  3.544115  0
N  N100  1  0.97193446  0.19009394  0.07386476  1  0  -0.323568  0  3.296991  0  0  -0.243735  0  3.555508  0  0  -0.262658  0  3.572809  0  0  -0.328472  -0.230808  0  3.544176  0
N  N101  1  0.52806099  0.80990196  0.57386322  1  0  -0.323693  0  3.297101  0  0  -0.243638  0  3.55542  0  0  -0.262562  0  3.572725  0  0  -0.328461  -0.230711  0  3.544088  0
N  N102  1  0.03416965  0.49137394  0.61274881  1  0  -0.234483  0  3.268067  0  0  -0.15595  0  3.529962  0  0  -0.170884  0  3.550275  0  0  -0.344568  -0.145725  0  3.514621  0
N  N103  1  0.46583120  0.50862767  0.11274808  1  0  -0.234419  0  3.268029  0  0  -0.155913  0  3.529958  0  0  -0.170843  0  3.550269  0  0  -0.344574  -0.145692  0  3.514623  0
N  N104  1  0.96583126  0.50862807  0.38725099  1  0  -0.23446  0  3.268094  0  0  -0.15596  0  3.530004  0  0  -0.170891  0  3.550312  0  0  -0.344588  -0.145739  0  3.514671  0
N  N105  1  0.53416959  0.49137331  0.88725009  1  0  -0.234475  0  3.26805  0  0  -0.155956  0  3.529966  0  0  -0.170889  0  3.550273  0  0  -0.344584  -0.145734  0  3.514625  0
O  O106  1  0.23342028  0.03777118  0.02136692  1  0  -0.650289  0  2.045911  0  0  -0.585636  0  2.310277  0  0  -0.613285  0  2.298901  0  0  -0.325766  -0.565287  0  2.316546  0
O  O107  1  0.26657912  0.96222828  0.52136640  1  0  -0.650237  0  2.04597  0  0  -0.585556  0  2.310301  0  0  -0.613206  0  2.298929  0  0  -0.325712  -0.565204  0  2.31656  0
O  O108  1  0.76657893  0.96222567  0.97863450  1  0  -0.650366  0  2.045915  0  0  -0.585658  0  2.310252  0  0  -0.613306  0  2.298881  0  0  -0.325798  -0.565302  0  2.316505  0
O  O109  1  0.73341933  0.03777166  0.47863340  1  0  -0.65026  0  2.045924  0  0  -0.585579  0  2.310265  0  0  -0.613227  0  2.298892  0  0  -0.325736  -0.565224  0  2.316523  0
O  O110  1  0.27797923  0.93012601  0.17921331  1  0  -0.661469  0  1.955191  0  0  -0.597421  0  2.171589  0  0  -0.622922  0  2.159506  0  0  -0.323252  -0.579533  0  2.179423  0
O  O111  1  0.22202369  0.06987361  0.67921392  1  0  -0.661431  0  1.955193  0  0  -0.597387  0  2.171596  0  0  -0.622887  0  2.159516  0  0  -0.323253  -0.579499  0  2.179427  0
O  O112  1  0.72202344  0.06987188  0.82078811  1  0  -0.661474  0  1.955065  0  0  -0.597423  0  2.171488  0  0  -0.622923  0  2.159407  0  0  -0.323256  -0.579536  0  2.179323  0
O  O113  1  0.77798022  0.93012532  0.32078669  1  0  -0.661451  0  1.955217  0  0  -0.597404  0  2.171618  0  0  -0.622904  0  2.159533  0  0  -0.323247  -0.579517  0  2.179451  0
O  O114  1  0.02213066  0.11440923  0.84318154  1  0  -0.845326  0  1.891948  0  0  -0.788996  0  2.0925  0  0  -0.809565  0  2.057006  0  0  -0.58793  -0.774607  0  2.1173  0
O  O115  1  0.47787033  0.88559158  0.34318102  1  0  -0.845281  0  1.892006  0  0  -0.788952  0  2.092554  0  0  -0.809519  0  2.057063  0  0  -0.587894  -0.774561  0  2.117356  0
O  O116  1  0.97787113  0.88559073  0.15681989  1  0  -0.845365  0  1.891918  0  0  -0.789038  0  2.092472  0  0  -0.809608  0  2.056977  0  0  -0.587901  -0.77465  0  2.117272  0
O  O117  1  0.52213158  0.11440941  0.65681878  1  0  -0.845389  0  1.8919  0  0  -0.78906  0  2.092487  0  0  -0.80963  0  2.05699  0  0  -0.587909  -0.774671  0  2.117289  0
