# generated using pymatgen
data_Cu3P4H20C14(NO8)2
_symmetry_space_group_name_H-M   'P 1'
_cell_length_a   6.20135052
_cell_length_b   12.70772604
_cell_length_c   15.25745937
_cell_angle_alpha   106.74912614
_cell_angle_beta   89.99976248
_cell_angle_gamma   89.99996685
_symmetry_Int_Tables_number   1
_chemical_formula_structural   Cu3P4H20C14(NO8)2
_chemical_formula_sum   'Cu6 P8 H40 C28 N4 O32'
_cell_volume   1151.35562615
_cell_formula_units_Z   2
loop_
 _symmetry_equiv_pos_site_id
 _symmetry_equiv_pos_as_xyz
  1  'x, y, z'
loop_
 _atom_site_type_symbol
 _atom_site_label
 _atom_site_symmetry_multiplicity
 _atom_site_fract_x
 _atom_site_fract_y
 _atom_site_fract_z
 _atom_site_occupancy
 _atom_site_pbe_bader_charge
 _atom_site_pbe_bader_spin_density
 _atom_site_pbe_cm5_charge
 _atom_site_pbe_ddec_charge
 _atom_site_pbe_ddec_spin_density
 _atom_site_pbe_ddec_sum_bond_order
 _atom_site_pbe_magmom
Cu  Cu0  1  0.00036605  0.00004104  0.00008562  1  1.155205  -0.614222  0.755565  1.045034  -0.773041  2.058893  -0.617
Cu  Cu1  1  0.49963860  0.00003572  0.50008202  1  1.155205  -0.614225  0.75555  1.045018  -0.773045  2.058913  -0.617
Cu  Cu2  1  0.61901619  0.70036773  0.97644503  1  1.14937  0.614839  0.758545  0.983269  0.78659  2.14843  0.614
Cu  Cu3  1  0.11879545  0.29979339  0.52349052  1  1.147986  -0.621206  0.758919  0.983231  -0.774471  2.149269  -0.621
Cu  Cu4  1  0.38121183  0.29979828  0.02348682  1  1.148004  -0.621206  0.758915  0.983275  -0.774467  2.149264  -0.621
Cu  Cu5  1  0.88097944  0.70036117  0.47644391  1  1.149401  0.614841  0.758504  0.983245  0.786593  2.148446  0.614
P  P6  1  0.11992502  0.76260642  0.00568882  1  3.369661  0.003903  0.328585  1.221944  0.007753  5.462343  0.007
P  P7  1  0.61976232  0.23716320  0.49433876  1  3.368398  -0.005907  0.328564  1.22224  -0.013358  5.462031  -0.008
P  P8  1  0.88024495  0.23716622  0.99433796  1  3.36826  -0.005906  0.328704  1.222562  -0.013357  5.461874  -0.008
P  P9  1  0.38007223  0.76260370  0.50568865  1  3.369772  0.0039  0.32857  1.221922  0.007751  5.462582  0.007
P  P10  1  0.81700302  0.88919314  0.14636948  1  3.287671  -0.001284  0.366843  1.256315  -0.002252  5.270622  -0.001
P  P11  1  0.31652433  0.11106682  0.35368511  1  3.288703  -0.004752  0.367731  1.258066  -0.008938  5.269373  -0.005
P  P12  1  0.18348139  0.11106921  0.85368516  1  3.288732  -0.004752  0.367778  1.258293  -0.008938  5.269391  -0.005
P  P13  1  0.68299900  0.88918813  0.64636780  1  3.287393  -0.001286  0.366856  1.256317  -0.002253  5.270758  -0.001
H  H14  1  0.68426278  0.43464693  0.15870940  1  0.140079  -0.002682  0.116895  0.094604  -0.001242  1.031869  -0.002
H  H15  1  0.18430616  0.56541412  0.34120064  1  0.138449  0.002687  0.116782  0.094662  0.001291  1.031829  0.002
H  H16  1  0.31566853  0.56542053  0.84120534  1  0.138316  0.002689  0.116776  0.094628  0.001292  1.031814  0.002
H  H17  1  0.81575254  0.43464023  0.65871497  1  0.14005  -0.002681  0.116911  0.094615  -0.001242  1.031956  -0.002
H  H18  1  0.68275757  0.62196986  0.27420553  1  0.098967  -0.001555  0.110557  0.120752  -0.000786  1.019085  -0.001
H  H19  1  0.18299424  0.37801841  0.22580418  1  0.100752  0.001556  0.110589  0.120984  0.0008  1.01865  0.001
H  H20  1  0.31699313  0.37802398  0.72580671  1  0.100774  0.001556  0.11061  0.121027  0.000799  1.018707  0.001
H  H21  1  0.81724668  0.62196312  0.77420715  1  0.099383  -0.001555  0.110596  0.120805  -0.000786  1.018998  -0.001
H  H22  1  0.37158817  0.74736041  0.27700291  1  0.129813  -0.000285  0.118069  0.136285  -0.000135  0.968217  0.0
H  H23  1  0.87193458  0.25259947  0.22305425  1  0.130575  0.000357  0.11811  0.136188  0.000172  0.968772  0.0
H  H24  1  0.62805933  0.25260843  0.72305068  1  0.130695  0.000358  0.11807  0.136221  0.000172  0.968677  0.0
H  H25  1  0.12841760  0.74734890  0.77700177  1  0.130041  -0.000285  0.118066  0.136259  -0.000135  0.968349  0.0
H  H26  1  0.08327964  0.48752090  0.06220541  1  0.113933  -0.002749  0.118361  0.09816  -0.001195  1.013872  -0.002
H  H27  1  0.58331717  0.51253164  0.43766480  1  0.11654  0.002726  0.118255  0.097991  0.001205  1.01464  0.002
H  H28  1  0.91667263  0.51253794  0.93766733  1  0.116548  0.00273  0.11826  0.097961  0.001207  1.014583  0.002
H  H29  1  0.41671251  0.48751327  0.56220927  1  0.11392  -0.002745  0.118363  0.098164  -0.001193  1.01406  -0.002
H  H30  1  0.95259409  0.73127410  0.23487325  1  0.103438  -0.00034  0.104217  0.123077  -0.000168  1.016153  0.0
H  H31  1  0.45279824  0.26873525  0.26513766  1  0.103771  0.000382  0.104205  0.12324  0.000171  1.015742  0.0
H  H32  1  0.04719854  0.26874351  0.76513865  1  0.103815  0.000382  0.104248  0.123283  0.000171  1.015778  0.0
H  H33  1  0.54741204  0.73126676  0.73487125  1  0.103516  -0.00034  0.104262  0.123137  -0.000168  1.016064  0.0
H  H34  1  0.88526584  0.65177120  0.12224233  1  0.055512  -0.000544  0.099603  0.094665  -0.000436  1.032883  0.0
H  H35  1  0.38543970  0.34829213  0.37774918  1  0.055894  0.000549  0.09957  0.094724  0.00045  1.032848  0.0
H  H36  1  0.11455260  0.34829954  0.87775314  1  0.054229  0.000549  0.09957  0.09477  0.00045  1.032723  0.0
H  H37  1  0.61473026  0.65176543  0.62224058  1  0.055646  -0.000544  0.099611  0.094741  -0.000436  1.032816  0.0
H  H38  1  0.75144132  0.01190454  0.28128160  1  0.682804  3.8e-05  0.312684  0.384716  1.4e-05  0.961481  0.0
H  H39  1  0.25165800  0.98803893  0.21884338  1  0.682636  -3.7e-05  0.312873  0.384788  -0.000142  0.961267  0.0
H  H40  1  0.24834325  0.98803551  0.71884261  1  0.682696  -3.7e-05  0.312869  0.384868  -0.000142  0.961175  0.0
H  H41  1  0.74856196  0.01190026  0.78127670  1  0.682831  3.8e-05  0.3127  0.384675  1.4e-05  0.961538  0.0
H  H42  1  0.37916133  0.84009522  0.14651215  1  0.651348  -0.000107  0.307525  0.363836  1.1e-05  0.951335  0.0
H  H43  1  0.87902275  0.15992956  0.35331569  1  0.652767  0.000124  0.307357  0.363547  3e-06  0.951555  0.0
H  H44  1  0.62097961  0.15992868  0.85331180  1  0.65285  0.000125  0.30738  0.363607  3e-06  0.951514  0.0
H  H45  1  0.12084084  0.84009027  0.64651058  1  0.651287  -0.000107  0.307534  0.363825  1.1e-05  0.95137  0.0
H  H46  1  0.41806826  0.85825146  0.91415586  1  0.655232  -4.9e-05  0.292429  0.407366  -0.000129  0.916822  0.0
H  H47  1  0.91807757  0.14165650  0.58582297  1  0.654592  6e-06  0.292161  0.407078  -0.00016  0.917192  0.0
H  H48  1  0.58192433  0.14165677  0.08582131  1  0.654517  6e-06  0.292147  0.407017  -0.00016  0.917276  0.0
H  H49  1  0.08192469  0.85824350  0.41415163  1  0.655015  -4.9e-05  0.292443  0.40742  -0.000129  0.916731  0.0
H  H50  1  0.62583136  0.86650802  0.85542721  1  0.617238  -5.1e-05  0.29828  0.396728  5.5e-05  0.919721  0.0
H  H51  1  0.12584178  0.13343723  0.64456541  1  0.616699  -0.000153  0.298175  0.396603  -9.8e-05  0.920028  0.0
H  H52  1  0.37416284  0.13343888  0.14456424  1  0.616742  -0.000153  0.298169  0.396561  -9.8e-05  0.920103  0.0
H  H53  1  0.87415887  0.86650720  0.35542547  1  0.617185  -5.1e-05  0.298359  0.396841  5.4e-05  0.919554  0.0
C  C54  1  0.55130136  0.49185997  0.16394103  1  0.454418  0.000961  0.040709  0.076374  -0.000167  3.937718  0.0
C  C55  1  0.05143194  0.50817297  0.33601511  1  0.454712  -0.001231  0.040758  0.076309  0.000107  3.9375  -0.001
C  C56  1  0.44856061  0.50817927  0.83602152  1  0.455282  -0.001232  0.040773  0.076282  0.000107  3.937427  -0.001
C  C57  1  0.94869449  0.49185066  0.66394314  1  0.453861  0.000962  0.040717  0.076427  -0.000167  3.937818  0.0
C  C58  1  0.55037215  0.59612582  0.22618792  1  -0.039442  -0.006805  -0.081542  -0.112487  -0.004517  3.965791  -0.005
C  C59  1  0.05058734  0.40386841  0.27383128  1  -0.029486  0.006584  -0.081416  -0.112623  0.004491  3.965967  0.005
C  C60  1  0.44939629  0.40387634  0.77383610  1  -0.029643  0.006583  -0.081427  -0.112614  0.00449  3.966206  0.005
C  C61  1  0.94963423  0.59611732  0.72618890  1  -0.039355  -0.006806  -0.081647  -0.112719  -0.004517  3.965768  -0.005
C  C62  1  0.37646644  0.66592808  0.22778853  1  -0.029329  0.004284  -0.059856  -0.065667  0.002831  3.862675  0.003
C  C63  1  0.87671873  0.33403162  0.27225089  1  -0.043164  -0.004454  -0.060056  -0.065554  -0.002871  3.862908  -0.003
C  C64  1  0.62326330  0.33404388  0.77224941  1  -0.043632  -0.004453  -0.060001  -0.065647  -0.00287  3.863056  -0.003
C  C65  1  0.12354316  0.66592810  0.72779206  1  -0.029431  0.004287  -0.059815  -0.065477  0.002833  3.862576  0.003
C  C66  1  0.20651025  0.62980043  0.16602474  1  -0.025006  -0.007623  0.00034  0.100827  -0.005007  3.933729  -0.006
C  C67  1  0.70671187  0.37018793  0.33399544  1  -0.023255  0.00718  0.000467  0.10117  0.004823  3.933035  0.006
C  C68  1  0.79328883  0.37018530  0.83399544  1  -0.022746  0.007185  0.000483  0.101224  0.004826  3.933095  0.006
C  C69  1  0.29349196  0.62979119  0.66601992  1  -0.024799  -0.007621  0.000367  0.100806  -0.005006  3.933763  -0.006
C  C70  1  0.21625365  0.52264922  0.10794434  1  0.504822  0.000707  0.04837  0.042128  -0.00063  3.900327  0.0
C  C71  1  0.71635618  0.47738166  0.39198482  1  0.50209  -0.000764  0.048027  0.041664  0.000672  3.900086  0.0
C  C72  1  0.78362283  0.47739053  0.89198621  1  0.502392  -0.000765  0.047997  0.041531  0.000673  3.900478  0.0
C  C73  1  0.28376057  0.52263919  0.60794197  1  0.504407  0.000707  0.048253  0.041934  -0.00063  3.900364  0.0
C  C74  1  0.01388282  0.70056263  0.16446162  1  -0.043896  -0.001546  -0.157738  -0.23784  -0.001067  3.959185  -0.001
C  C75  1  0.51404903  0.29944972  0.33556253  1  -0.043493  0.001917  -0.1577  -0.23813  0.001328  3.959509  0.001
C  C76  1  0.98593722  0.29945430  0.83556323  1  -0.041746  0.001916  -0.157766  -0.238226  0.001327  3.959778  0.001
C  C77  1  0.48611771  0.70055735  0.66446067  1  -0.044283  -0.001546  -0.157813  -0.238033  -0.001067  3.958989  -0.001
C  C78  1  0.05971167  0.80137035  0.12965618  1  -0.425743  0.002757  0.057113  -0.176333  0.001591  3.880465  0.002
C  C79  1  0.55962124  0.19863703  0.37036739  1  -0.427073  -0.000853  0.057067  -0.176538  0.000394  3.88031  -0.001
C  C80  1  0.94038090  0.19863835  0.87036609  1  -0.426981  -0.000852  0.057025  -0.17678  0.000394  3.880504  -0.001
C  C81  1  0.44028588  0.80136429  0.62965513  1  -0.42536  0.002756  0.0571  -0.176184  0.00159  3.880194  0.002
N  N82  1  0.38402521  0.45549611  0.10694215  1  -1.221505  -0.105145  -0.343513  -0.241011  -0.067775  3.642221  -0.09
N  N83  1  0.88404058  0.54457438  0.39294682  1  -1.221314  0.104423  -0.343458  -0.241143  0.069106  3.640017  0.09
N  N84  1  0.61595447  0.54457687  0.89295093  1  -1.222235  0.104413  -0.343463  -0.240956  0.069098  3.640565  0.09
N  N85  1  0.11597136  0.45548300  0.60694394  1  -1.221269  -0.105154  -0.343421  -0.240806  -0.067782  3.641727  -0.09
O  O86  1  0.31308760  0.68462741  0.99076989  1  -1.385692  0.070517  -0.380225  -0.719793  0.044371  2.399999  0.06
O  O87  1  0.81271855  0.31530273  0.50960887  1  -1.381215  -0.10632  -0.380393  -0.719546  -0.065777  2.399638  -0.091
O  O88  1  0.68729199  0.31530213  0.00961142  1  -1.381177  -0.106302  -0.380408  -0.719574  -0.065766  2.399729  -0.091
O  O89  1  0.18691766  0.68461938  0.49076809  1  -1.385866  0.070508  -0.380261  -0.719808  0.044366  2.399937  0.06
O  O90  1  0.17746869  0.87020613  0.98327469  1  -1.384816  -0.074315  -0.378497  -0.745663  -0.046172  2.413817  -0.065
O  O91  1  0.67793508  0.12941971  0.51642956  1  -1.383998  -0.085753  -0.378207  -0.745316  -0.052568  2.41269  -0.075
O  O92  1  0.82207077  0.12942059  0.01642830  1  -1.383879  -0.085759  -0.378341  -0.745485  -0.052571  2.412614  -0.075
O  O93  1  0.32253321  0.87019878  0.48327151  1  -1.384721  -0.074315  -0.378447  -0.745637  -0.046172  2.414035  -0.065
O  O94  1  0.92434657  0.70221402  0.95396646  1  -1.397369  0.085161  -0.384321  -0.755879  0.054013  2.451335  0.072
O  O95  1  0.42391597  0.29713836  0.54611986  1  -1.398686  -0.087063  -0.384654  -0.756831  -0.053447  2.451927  -0.074
O  O96  1  0.07609430  0.29713537  0.04611943  1  -1.398556  -0.087068  -0.38466  -0.756928  -0.053451  2.452005  -0.074
O  O97  1  0.57565735  0.70221020  0.45396452  1  -1.397423  0.085173  -0.384294  -0.755902  0.054021  2.451453  0.072
O  O98  1  0.62767196  0.81479659  0.10193353  1  -1.415915  0.053504  -0.36789  -0.755777  0.034813  2.384878  0.047
O  O99  1  0.12734592  0.18584980  0.39772792  1  -1.41663  -0.056592  -0.368492  -0.756351  -0.035259  2.383965  -0.05
O  O100  1  0.37265927  0.18585362  0.89772471  1  -1.416666  -0.056596  -0.368484  -0.756413  -0.035261  2.383867  -0.05
O  O101  1  0.87233222  0.81478896  0.60193354  1  -1.415992  0.053502  -0.367909  -0.755795  0.034812  2.384917  0.047
O  O102  1  0.86083069  0.98833719  0.11210422  1  -1.392878  -0.075409  -0.37825  -0.739676  -0.046782  2.361514  -0.064
O  O103  1  0.35946808  0.01209394  0.38826163  1  -1.394799  -0.075007  -0.378874  -0.74091  -0.0463  2.362743  -0.064
O  O104  1  0.14053901  0.01209800  0.88826083  1  -1.39488  -0.075004  -0.378931  -0.740999  -0.046299  2.362812  -0.064
O  O105  1  0.63917157  0.98832890  0.61209792  1  -1.392813  -0.075396  -0.378198  -0.739711  -0.046776  2.361601  -0.064
O  O106  1  0.77750138  0.92854768  0.25353692  1  -1.433511  -0.001934  -0.371694  -0.625757  -0.000946  2.249075  -0.001
O  O107  1  0.27732216  0.07141374  0.24650110  1  -1.432774  -0.017463  -0.372082  -0.626169  -0.010627  2.249531  -0.014
O  O108  1  0.22267827  0.07141034  0.74650038  1  -1.432767  -0.017463  -0.37203  -0.626268  -0.010627  2.249502  -0.014
O  O109  1  0.72249950  0.92854427  0.75353489  1  -1.433484  -0.001934  -0.371704  -0.625676  -0.000945  2.249205  -0.001
O  O110  1  0.23740332  0.86495252  0.17836188  1  -1.129316  0.001024  -0.356423  -0.438161  0.000643  2.404803  0.001
O  O111  1  0.73711835  0.13493213  0.32162092  1  -1.129965  -0.000922  -0.356426  -0.438193  -0.000673  2.405887  -0.001
O  O112  1  0.76288920  0.13493197  0.82161893  1  -1.130193  -0.000922  -0.356457  -0.438177  -0.000673  2.405865  -0.001
O  O113  1  0.26259849  0.86494745  0.67836136  1  -1.129302  0.001024  -0.356452  -0.438193  0.000643  2.404778  0.001
O  O114  1  0.55391301  0.82112680  0.88865442  1  -1.26729  0.001248  -0.596322  -0.808674  0.00102  2.03446  0.002
O  O115  1  0.05385922  0.17881714  0.61136423  1  -1.266471  -0.00232  -0.596228  -0.808523  -0.001585  2.034247  -0.003
O  O116  1  0.44614569  0.17881789  0.11136142  1  -1.266528  -0.002322  -0.596235  -0.808457  -0.001586  2.034384  -0.003
O  O117  1  0.94607532  0.82112177  0.38864830  1  -1.267079  0.001247  -0.596417  -0.808816  0.00102  2.034286  0.002
