# generated using pymatgen
data_Al2H7C19(NO5)2
_symmetry_space_group_name_H-M   'P 1'
_cell_length_a   6.71634405
_cell_length_b   19.53671394
_cell_length_c   21.37104309
_cell_angle_alpha   86.70368741
_cell_angle_beta   89.21992630
_cell_angle_gamma   89.73996507
_symmetry_Int_Tables_number   1
_chemical_formula_structural   Al2H7C19(NO5)2
_chemical_formula_sum   'Al4 H14 C38 N4 O20'
_cell_volume   2799.28888325
_cell_formula_units_Z   2
loop_
 _symmetry_equiv_pos_site_id
 _symmetry_equiv_pos_as_xyz
  1  'x, y, z'
loop_
 _atom_site_type_symbol
 _atom_site_label
 _atom_site_symmetry_multiplicity
 _atom_site_fract_x
 _atom_site_fract_y
 _atom_site_fract_z
 _atom_site_occupancy
 _atom_site_pbe_bader_charge
 _atom_site_pbe_bader_spin_density
 _atom_site_pbe_cm5_charge
 _atom_site_pbe_ddec_charge
 _atom_site_pbe_ddec_spin_density
 _atom_site_pbe_ddec_sum_bond_order
 _atom_site_pbe_magmom
Al  Al0  1  0.75377098  0.26489612  0.26210429  1  2.504732  0  0.407354  1.645877  0  2.577198  0
Al  Al1  1  0.24623358  0.73510342  0.73789493  1  2.504683  0  0.407373  1.645966  0  2.577102  0
Al  Al2  1  0.25235981  0.26472064  0.26225759  1  2.504719  0  0.407948  1.645232  0  2.575076  0
Al  Al3  1  0.74764476  0.73527839  0.73774166  1  2.504769  0  0.407956  1.645219  0  2.575128  0
H  H4  1  0.24219191  0.09111861  0.97128035  1  0.061778  0  0.101544  0.110302  0  0.999192  0
H  H5  1  0.75780221  0.90888143  0.02871890  1  0.061704  0  0.101584  0.11041  0  0.999191  0
H  H6  1  0.83931293  0.11354663  0.88997666  1  0.423346  0  0.291203  0.280307  0  0.964929  0
H  H7  1  0.96070237  0.05544427  0.85022376  1  0.401973  0  0.295618  0.288987  0  0.953486  0
H  H8  1  0.16067528  0.88645136  0.11002226  1  0.423319  0  0.291227  0.280335  0  0.964868  0
H  H9  1  0.03928732  0.94455423  0.14977559  1  0.401946  0  0.295612  0.288923  0  0.9536  0
H  H10  1  0.46697865  0.94654356  0.01632773  1  0.417558  0  0.284633  0.273931  0  1.010208  0
H  H11  1  0.36132881  0.89156304  0.96919266  1  0.408168  0  0.292796  0.284333  0  0.96281  0
H  H12  1  0.53301108  0.05345339  0.98367216  1  0.417496  0  0.284647  0.273877  0  1.010101  0
H  H13  1  0.63865937  0.10843597  0.03080574  1  0.407852  0  0.292817  0.284373  0  0.96278  0
H  H14  1  0.50453580  0.17680884  0.25329912  1  0.647774  0  0.362123  0.44341  0  0.83316  0
H  H15  1  0.49546878  0.82319019  0.74670059  1  0.647732  0  0.362142  0.443423  0  0.833173  0
H  H16  1  0.00154612  0.35200623  0.27712334  1  0.615892  0  0.360235  0.441801  0  0.836631  0
H  H17  1  0.99845848  0.64799228  0.72287781  1  0.615863  0  0.360252  0.441838  0  0.836554  0
C  C18  1  0.50563858  0.34871065  0.17463447  1  1.690732  0  0.274967  0.697422  0  4.186841  0
C  C19  1  0.49436153  0.65128837  0.82536574  1  1.690774  0  0.274839  0.697175  0  4.187206  0
C  C20  1  0.49870855  0.34532168  0.34410310  1  1.712409  0  0.280572  0.706419  0  4.169985  0
C  C21  1  0.50130492  0.65467840  0.65589465  1  1.712695  0  0.280754  0.706801  0  4.169531  0
C  C22  1  0.00016532  0.17816723  0.34792788  1  1.731515  0  0.274175  0.696019  0  4.186105  0
C  C23  1  0.99984216  0.82183539  0.65207165  1  1.73138  0  0.274283  0.69613  0  4.18611  0
C  C24  1  0.00737630  0.18401566  0.18107151  1  1.657658  0  0.275985  0.726481  0  4.154807  0
C  C25  1  0.99263423  0.81598286  0.81892773  1  1.657517  0  0.27608  0.72657  0  4.154292  0
C  C26  1  0.94524814  0.03334948  0.94463551  1  0.437162  0  0.093789  0.199099  0  3.758245  0
C  C27  1  0.05474305  0.96664851  0.05536386  1  0.437378  0  0.093825  0.199032  0  3.75854  0
C  C28  1  0.13600284  0.05005145  0.98338976  1  -0.059461  0  -0.083415  -0.212769  0  3.631478  0
C  C29  1  0.86398836  0.94994603  0.01660916  1  -0.059053  0  -0.083485  -0.213015  0  3.63157  0
C  C30  1  0.00914284  0.13571314  0.13301879  1  0.009  0  -0.052217  -0.232911  0  3.98186  0
C  C31  1  0.99085580  0.86428486  0.86698054  1  0.008901  0  -0.052231  -0.232915  0  3.981768  0
C  C32  1  0.81597612  0.02846930  0.00738924  1  0.455288  0  0.093932  0.20467  0  3.770391  0
C  C33  1  0.18401504  0.97152971  0.99261008  1  0.455099  0  0.093934  0.204734  0  3.770239  0
C  C34  1  0.00613981  0.04628869  0.04571652  1  0.100491  0  0.001351  0.023521  0  3.828676  0
C  C35  1  0.99384989  0.95370981  0.95428330  1  0.100624  0  0.001374  0.023633  0  3.828513  0
C  C36  1  0.00998758  0.09397627  0.09270681  1  -0.318091  0  -0.019779  0.009136  0  4.083072  0
C  C37  1  0.99000657  0.90602275  0.90729203  1  -0.318034  0  -0.019728  0.009164  0  4.08294  0
C  C38  1  0.00158374  0.87535852  0.60277523  1  -0.01732  0  0.001582  -0.130303  0  3.823883  0
C  C39  1  0.99842370  0.12464615  0.39722513  1  -0.017397  0  0.001647  -0.130202  0  3.823868  0
C  C40  1  0.00171015  0.92318474  0.56299422  1  -0.092134  0  -0.007947  0.025237  0  4.259714  0
C  C41  1  0.99829283  0.07681890  0.43700481  1  -0.092178  0  -0.00795  0.025192  0  4.259595  0
C  C42  1  0.00082017  0.97569573  0.51974350  1  -0.123574  0  0.000859  -0.001601  0  4.19117  0
C  C43  1  0.99917538  0.02430739  0.48025653  1  0.071878  0  0.000811  -0.001642  0  4.191109  0
C  C44  1  0.50664313  0.39532860  0.11984655  1  0.024553  0  0.001916  -0.130479  0  3.824757  0
C  C45  1  0.49335845  0.60467094  0.88015269  1  0.024552  0  0.001897  -0.130433  0  3.824706  0
C  C46  1  0.50467982  0.43550769  0.07358793  1  -0.111124  0  -0.0092  0.02384  0  4.260786  0
C  C47  1  0.49532622  0.56449237  0.92641173  1  -0.111139  0  -0.009232  0.023795  0  4.260758  0
C  C48  1  0.50169264  0.47961313  0.02313201  1  0.075065  0  -0.000893  -0.003448  0  4.192603  0
C  C49  1  0.49830891  0.52038846  0.97686760  1  -0.124373  0  -0.00083  -0.0034  0  4.192654  0
C  C50  1  0.49667069  0.39287046  0.39317562  1  0.202301  0  0.002475  -0.135797  0  3.825987  0
C  C51  1  0.50334123  0.60713218  0.60682155  1  0.202417  0  0.002479  -0.135841  0  3.826027  0
C  C52  1  0.49733710  0.43413794  0.43431361  1  -0.341554  0  -0.005143  0.030627  0  4.254769  0
C  C53  1  0.50265844  0.56586468  0.56568316  1  -0.34141  0  -0.005134  0.030649  0  4.254903  0
C  C54  1  0.49884988  0.47925611  0.47929838  1  0.133169  0  0.003282  0.00056  0  4.17729  0
C  C55  1  0.50112173  0.52075110  0.52069689  1  -0.074817  0  0.00333  0.000614  0  4.177392  0
N  N56  1  0.86902711  0.06247767  0.88779029  1  -1.173919  0  -0.616289  -0.647536  0  3.276202  0
N  N57  1  0.13096405  0.93752134  0.11220903  1  -1.173814  0  -0.616295  -0.647451  0  3.276498  0
N  N58  1  0.37110013  0.94150064  0.98029811  1  -1.169844  0  -0.616612  -0.641797  0  3.279866  0
N  N59  1  0.62889106  0.05849785  0.01970170  1  -1.169535  0  -0.616645  -0.641735  0  3.279896  0
O  O60  1  0.32986895  0.32712313  0.32457040  1  -1.225669  0  -0.222308  -0.574044  0  2.279233  0
O  O61  1  0.67014452  0.67287746  0.67542827  1  -1.225854  0  -0.22238  -0.574195  0  2.279058  0
O  O62  1  0.67519633  0.33118074  0.19625117  1  -1.223934  0  -0.224868  -0.57373  0  2.285098  0
O  O63  1  0.32480678  0.66881776  0.80375092  1  -1.223904  0  -0.224802  -0.573614  0  2.285187  0
O  O64  1  0.83670385  0.20361398  0.20031516  1  -1.242917  0  -0.231575  -0.593494  0  2.285005  0
O  O65  1  0.16330367  0.79638608  0.79968356  1  -1.242829  0  -0.231653  -0.59361  0  2.284874  0
O  O66  1  0.66967869  0.32691826  0.32464372  1  -1.227236  0  -0.222168  -0.574382  0  2.280417  0
O  O67  1  0.33033335  0.67307976  0.67535554  1  -1.227337  0  -0.222274  -0.574609  0  2.280329  0
O  O68  1  0.83065203  0.19830822  0.32803846  1  -1.230197  0  -0.225015  -0.575179  0  2.2836  0
O  O69  1  0.16935249  0.80169286  0.67195975  1  -1.230242  0  -0.22507  -0.575235  0  2.283645  0
O  O70  1  0.33479624  0.33064787  0.19601507  1  -1.221093  0  -0.224408  -0.572777  0  2.281734  0
O  O71  1  0.66520687  0.66934962  0.80398333  1  -1.221109  0  -0.224331  -0.572662  0  2.281853  0
O  O72  1  0.50350663  0.22460652  0.26320282  1  -1.446063  0  -0.445435  -0.996518  0  2.190728  0
O  O73  1  0.49649943  0.77539251  0.73679595  1  -1.44609  0  -0.445468  -0.996501  0  2.190719  0
O  O74  1  0.17121312  0.19862473  0.32864606  1  -1.230128  0  -0.225148  -0.574801  0  2.282921  0
O  O75  1  0.82879437  0.80137737  0.67135443  1  -1.229972  0  -0.225211  -0.574855  0  2.282964  0
O  O76  1  0.17578444  0.20269554  0.20100237  1  -1.239842  0  -0.230082  -0.590144  0  2.282718  0
O  O77  1  0.82422164  0.79730247  0.79899739  1  -1.239802  0  -0.230124  -0.59017  0  2.282461  0
O  O78  1  0.00268441  0.30607766  0.26221879  1  -1.415458  0  -0.445934  -0.995606  0  2.184244  0
O  O79  1  0.99732163  0.69392189  0.73777996  1  -1.41541  0  -0.445926  -0.99566  0  2.184292  0
