# generated using pymatgen
data_MnH25C29N5O6
_symmetry_space_group_name_H-M   'P 1'
_cell_length_a   10.61549729
_cell_length_b   11.11253857
_cell_length_c   13.20884219
_cell_angle_alpha   71.95413802
_cell_angle_beta   80.16309327
_cell_angle_gamma   63.90158273
_symmetry_Int_Tables_number   1
_chemical_formula_structural   MnH25C29N5O6
_chemical_formula_sum   'Mn2 H50 C58 N10 O12'
_cell_volume   1329.38553869
_cell_formula_units_Z   2
loop_
 _symmetry_equiv_pos_site_id
 _symmetry_equiv_pos_as_xyz
  1  'x, y, z'
loop_
 _atom_site_type_symbol
 _atom_site_label
 _atom_site_symmetry_multiplicity
 _atom_site_fract_x
 _atom_site_fract_y
 _atom_site_fract_z
 _atom_site_occupancy
 _atom_site_hle17_ddec_charge
 _atom_site_hle17_ddec_spin_density
 _atom_site_hle17_ddec_sum_bond_order
 _atom_site_hle17_magmom
 _atom_site_hse06_10hf_ddec_charge
 _atom_site_hse06_10hf_ddec_spin_density
 _atom_site_hse06_10hf_ddec_sum_bond_order
 _atom_site_hse06_10hf_magmom
 _atom_site_hse06_ddec_charge
 _atom_site_hse06_ddec_spin_density
 _atom_site_hse06_ddec_sum_bond_order
 _atom_site_hse06_magmom
 _atom_site_pbe_cm5_charge
 _atom_site_pbe_ddec_charge
 _atom_site_pbe_ddec_spin_density
 _atom_site_pbe_ddec_sum_bond_order
 _atom_site_pbe_magmom
Mn  Mn0  1  0.83591068  0.58204106  0.22911336  1  1.130813  4.81062  1.76801  4.681  0.959787  4.735505  2.264648  4.538  1.019743  4.77844  2.194093  4.6  0.587461  0.914515  4.688482  2.317134  4.474
Mn  Mn1  1  0.16408495  0.41796446  0.77088741  1  1.130822  -4.810623  1.768083  -4.681  0.959775  -4.735499  2.264727  -4.538  1.019733  -4.778432  2.19417  -4.6  0.587458  0.91449  -4.688468  2.317203  -4.474
H  H2  1  0.88664520  0.85244248  0.38823624  1  0.114918  -0.000129  0.940349  0.0  0.121627  -0.000109  1.008613  0.0  0.125989  -0.000132  1.004516  0.0  0.110156  0.118412  -7.9e-05  1.011659  0.0
H  H3  1  0.11335773  0.14757764  0.61175604  1  0.114985  0.000115  0.94022  0.0  0.12163  0.000109  1.008547  0.0  0.125993  0.000132  1.004449  0.0  0.110144  0.118401  7.9e-05  1.011593  0.0
H  H4  1  0.03191703  0.17417032  0.33332446  1  0.107275  -0.000244  0.969743  0.0  0.111129  -0.000247  1.042439  0.0  0.114358  -0.000261  1.040084  0.0  0.10677  0.108571  -0.000226  1.044549  0.0
H  H5  1  0.96808037  0.82585400  0.66665839  1  0.107445  0.000242  0.969711  0.0  0.111297  0.000246  1.042392  0.0  0.114529  0.000261  1.040049  0.0  0.106847  0.108744  0.000225  1.044506  0.0
H  H6  1  0.04910598  0.19862438  0.13748578  1  0.09399  -7.3e-05  0.970694  0.0  0.105722  -0.000214  1.027828  0.0  0.108106  -0.000166  1.02775  0.0  0.104143  0.103768  -0.000282  1.02831  0.0
H  H7  1  0.95090042  0.80137399  0.86249720  1  0.093964  8.8e-05  0.970542  0.0  0.105632  0.000214  1.027761  0.0  0.108012  0.000166  1.027691  0.0  0.104111  0.103726  0.000281  1.028191  0.0
H  H8  1  0.98609606  0.05000671  0.06792154  1  0.099237  -3.5e-05  0.980757  0.0  0.103383  -6e-06  1.055765  0.0  0.107443  -5e-06  1.052096  0.0  0.100908  0.10045  -1e-05  1.058463  0.0
H  H9  1  0.01391206  0.94998746  0.93206835  1  0.099217  3.3e-05  0.980799  0.0  0.103377  6e-06  1.05577  0.0  0.107432  5e-06  1.052121  0.0  0.100879  0.100449  9e-06  1.058462  0.0
H  H10  1  0.97955730  0.40182845  0.45943608  1  0.081747  -0.000231  0.946681  0.0  0.089685  1.7e-05  1.011893  0.0  0.092346  -8e-05  1.009244  0.0  0.118416  0.087564  0.000114  1.014353  0.001
H  H11  1  0.02044715  0.59815837  0.54056526  1  0.081779  0.000221  0.946671  0.0  0.089698  -1.7e-05  1.011909  0.0  0.092359  8e-05  1.00926  0.0  0.118428  0.087576  -0.000114  1.014376  -0.001
H  H12  1  0.91162951  0.37640594  0.65437881  1  0.120654  0.000659  0.966661  0.0  0.127053  0.000763  1.029293  0.0  0.13068  0.000722  1.028405  0.0  0.109158  0.12447  0.000789  1.029907  0.0
H  H13  1  0.08837259  0.62358192  0.34562258  1  0.120587  -0.000668  0.966565  0.0  0.126956  -0.000763  1.029256  0.0  0.130584  -0.000722  1.02837  0.0  0.109132  0.124381  -0.00079  1.02987  0.0
H  H14  1  0.65689757  0.49835829  0.70713444  1  0.089593  -7.1e-05  0.94153  0.0  0.103751  2.1e-05  0.999036  0.0  0.106542  3e-06  0.997437  0.0  0.105933  0.101827  4.1e-05  1.000123  0.0
H  H15  1  0.34310670  0.50162436  0.29287027  1  0.089582  7.1e-05  0.941542  0.0  0.103776  -2.1e-05  0.999002  0.0  0.106546  -2e-06  0.99743  0.0  0.105988  0.10185  -4.2e-05  1.0001  0.0
H  H16  1  0.40570274  0.64779391  0.64916683  1  0.105814  0.000244  0.949894  0.0  0.116821  0.000283  1.010849  0.0  0.120327  0.000271  1.009018  0.0  0.106507  0.114311  0.000287  1.012195  0.0
H  H17  1  0.59430510  0.35218252  0.35083747  1  0.105786  -0.000249  0.949796  0.0  0.116792  -0.000283  1.010764  0.0  0.120297  -0.000271  1.008938  0.0  0.106523  0.114286  -0.000287  1.012112  0.0
H  H18  1  0.24142912  0.78820519  0.50359264  1  0.102495  9.2e-05  0.955794  0.0  0.113458  0.00012  1.014534  0.0  0.11509  0.0001  1.01534  0.0  0.10535  0.112216  0.000134  1.014363  0.0
H  H19  1  0.75857442  0.21178365  0.49641739  1  0.102577  -9.1e-05  0.955823  0.0  0.113566  -0.00012  1.014527  0.0  0.1152  -0.0001  1.015331  0.0  0.105389  0.112368  -0.000134  1.01431  0.0
H  H20  1  0.19894188  0.87695234  0.30658567  1  0.088859  -4.7e-05  1.00336  0.0  0.099176  7.2e-05  1.066326  0.0  0.099748  4.5e-05  1.068786  0.0  0.101674  0.098606  5.7e-05  1.06488  0.0
H  H21  1  0.80105511  0.12305206  0.69342580  1  0.088856  5.4e-05  1.003417  0.0  0.099165  -7.2e-05  1.066402  0.0  0.099738  -4.5e-05  1.068856  0.0  0.10168  0.098597  -5.7e-05  1.064959  0.0
H  H22  1  0.29879772  0.89861970  0.11910381  1  0.110611  0.000254  0.944726  0.0  0.121767  0.000282  1.001082  0.0  0.124949  0.00023  1.000398  0.0  0.109028  0.119418  0.000324  1.001844  0.0
H  H23  1  0.70119571  0.10139096  0.88090350  1  0.110517  -0.000258  0.944719  0.0  0.121646  -0.000282  1.001116  0.0  0.12483  -0.00023  1.000423  0.0  0.10896  0.119295  -0.000325  1.001876  0.0
H  H24  1  0.56220668  0.78013117  0.09015563  1  0.079716  -0.000187  0.950847  0.0  0.08982  0.000117  1.011468  0.0  0.092558  -2e-05  1.008304  0.0  0.116339  0.087761  0.000276  1.013821  0.001
H  H25  1  0.43778563  0.21987534  0.90985063  1  0.079706  0.00019  0.950739  0.0  0.089853  -0.000117  1.011319  0.0  0.09259  2.1e-05  1.008158  0.0  0.116368  0.087791  -0.000276  1.013672  -0.001
H  H26  1  0.86996971  0.44593325  0.04212226  1  0.059061  0.000301  0.976776  0.0  0.065529  0.000475  1.048654  0.0  0.067229  0.00035  1.044142  0.0  0.128643  0.064139  0.000587  1.051999  0.0
H  H27  1  0.13002533  0.55406913  0.95787939  1  0.059083  -0.0003  0.976677  0.0  0.065589  -0.000476  1.048526  0.0  0.067291  -0.000349  1.044013  0.0  0.128649  0.064194  -0.000587  1.051888  0.0
H  H28  1  0.66350218  0.21456780  0.16042623  1  0.099918  3e-05  0.945425  0.0  0.120345  6.8e-05  1.008455  0.0  0.119455  4.5e-05  1.011228  0.0  0.10254  0.120691  0.00012  1.006921  0.0
H  H29  1  0.33650249  0.78542522  0.83958182  1  0.099895  -2.7e-05  0.945553  0.0  0.120306  -6.8e-05  1.008585  0.0  0.11941  -4.5e-05  1.011366  0.0  0.102536  0.120669  -0.00012  1.007035  0.0
H  H30  1  0.53843650  0.33989060  0.06374370  1  0.094716  3.5e-05  0.937564  0.0  0.11686  5.1e-05  0.99765  0.0  0.116911  4.6e-05  0.998496  0.0  0.103455  0.116759  5.6e-05  0.99704  0.0
H  H31  1  0.46156573  0.66010137  0.93626571  1  0.09487  -4e-05  0.937463  0.0  0.116979  -5.2e-05  0.997575  0.0  0.117031  -4.6e-05  0.99842  0.0  0.103495  0.116871  -5.6e-05  0.996975  0.0
H  H32  1  0.56475228  0.38679662  0.17421854  1  0.100018  -0.000119  0.951515  0.0  0.117163  -9e-05  1.02031  0.0  0.118964  -0.000121  1.01813  0.0  0.106331  0.115716  -5.6e-05  1.021956  0.0
H  H33  1  0.43525048  0.61319639  0.82578977  1  0.100031  0.000122  0.951612  0.0  0.117171  8.9e-05  1.020392  0.0  0.11897  0.000121  1.018214  0.0  0.106356  0.115723  5.6e-05  1.022033  0.0
H  H34  1  0.67780001  0.39270630  0.89826231  1  0.085094  9.1e-05  0.944733  0.0  0.103301  0.000176  1.013306  0.0  0.104014  0.00013  1.013323  0.0  0.097454  0.102688  0.000216  1.013397  0.0
H  H35  1  0.32220181  0.60727527  0.10174829  1  0.085108  -9.8e-05  0.944841  0.0  0.103279  -0.000176  1.013447  0.0  0.103994  -0.00013  1.013464  0.0  0.097423  0.102684  -0.000216  1.013529  0.0
H  H36  1  0.80867001  0.22712176  0.95956837  1  0.101618  2e-05  0.937556  0.0  0.120612  8.2e-05  1.002725  0.0  0.121083  5.9e-05  1.002936  0.0  0.104457  0.12025  9.5e-05  1.002545  0.0
H  H37  1  0.19132857  0.77286289  0.04044794  1  0.101401  -2.9e-05  0.937756  0.0  0.120434  -8.2e-05  1.002906  0.0  0.120902  -5.8e-05  1.003125  0.0  0.104391  0.120084  -9.5e-05  1.002726  0.0
H  H38  1  0.84965134  0.37553415  0.91456149  1  0.119569  8.4e-05  0.938621  0.0  0.139006  5.2e-05  0.999144  0.0  0.139856  8.4e-05  0.999235  0.0  0.116268  0.13805  1.8e-05  0.999479  0.0
H  H39  1  0.15035146  0.62444745  0.08544443  1  0.119432  -9e-05  0.938694  0.0  0.138897  -5.2e-05  0.99917  0.0  0.139763  -8.4e-05  0.999241  0.0  0.116204  0.137939  -1.8e-05  0.999519  0.0
H  H40  1  0.21998408  0.25108862  0.40081600  1  0.110119  -0.000177  0.948489  0.0  0.114353  -0.000165  1.021708  0.0  0.118713  -0.00018  1.017632  0.0  0.10741  0.111197  -0.000139  1.024644  0.0
H  H41  1  0.78001151  0.74891486  0.59917697  1  0.110123  0.000172  0.948453  0.0  0.114332  0.000164  1.0217  0.0  0.118695  0.000181  1.017623  0.0  0.107397  0.111177  0.000139  1.024648  0.0
H  H42  1  0.62103636  0.94532450  0.32732837  1  0.108281  -0.000158  0.95884  0.0  0.11015  -0.000184  1.034463  0.0  0.113883  -0.000188  1.031317  0.0  0.105763  0.107148  -0.000175  1.037382  0.0
H  H43  1  0.37896596  0.05468101  0.67267454  1  0.108188  0.000166  0.958993  0.0  0.11004  0.000184  1.034645  0.0  0.113769  0.000188  1.031505  0.0  0.105724  0.107039  0.000174  1.037546  0.0
H  H44  1  0.56509860  0.03237961  0.13493876  1  0.093544  -4e-06  0.944786  0.0  0.104705  -1.4e-05  1.000464  0.0  0.107773  -2.7e-05  0.99959  0.0  0.102001  0.102481  -1e-05  1.001241  0.0
H  H45  1  0.43490581  0.96763009  0.86505825  1  0.09353  -1e-06  0.944823  0.0  0.104733  1.5e-05  1.000452  0.0  0.107801  2.6e-05  0.999579  0.0  0.101973  0.102506  9e-06  1.001231  0.0
H  H46  1  0.33423478  0.22705399  0.07671303  1  0.093058  9.7e-05  0.993545  0.0  0.100737  -2e-05  1.061677  0.0  0.10464  8.2e-05  1.057959  0.0  0.100486  0.097656  -0.000148  1.064683  0.0
H  H47  1  0.66577066  0.77295780  0.92328332  1  0.093078  -9.9e-05  0.993549  0.0  0.100754  2e-05  1.061683  0.0  0.104652  -8.2e-05  1.057973  0.0  0.10048  0.0977  0.000147  1.064662  0.0
H  H48  1  0.85254539  0.66065601  0.99972439  1  0.421452  0.000613  0.890024  0.002  0.389823  0.001267  0.956749  0.003  0.401085  0.00097  0.940175  0.002  0.288588  0.38194  0.001539  0.968279  0.003
H  H49  1  0.14745523  0.33934227  0.00027151  1  0.421497  -0.000613  0.889988  -0.002  0.389853  -0.001268  0.956742  -0.003  0.401115  -0.00097  0.940171  -0.002  0.28858  0.381966  -0.00154  0.968276  -0.003
H  H50  1  0.83035640  0.78134520  0.05790368  1  0.411342  -4.1e-05  0.904892  0.0  0.378564  0.000626  0.972098  0.001  0.39108  0.000394  0.954128  0.001  0.281779  0.369735  0.000839  0.984735  0.001
H  H51  1  0.16964049  0.21865516  0.94209067  1  0.411319  4.1e-05  0.904922  0.0  0.378513  -0.000626  0.972165  -0.001  0.391028  -0.000393  0.954196  -0.001  0.281764  0.369684  -0.000839  0.984804  -0.001
C  C52  1  0.92123613  0.92866153  0.33261241  1  -0.125619  0.000513  3.686231  0.001  -0.159002  0.000434  3.935059  0.0  -0.15937  0.000467  3.954221  0.0  -0.073831  -0.158467  0.000574  3.922562  0.001
C  C53  1  0.07876083  0.07135236  0.66737695  1  -0.125541  -0.000324  3.686227  0.0  -0.15895  -0.000435  3.93496  0.0  -0.159325  -0.000462  3.954128  0.0  -0.073792  -0.1584  -0.000573  3.922434  -0.001
C  C54  1  0.96219272  0.00913674  0.37188533  1  0.138211  -0.00048  3.832674  -0.001  0.146478  -0.000159  4.08434  0.0  0.145118  -0.000274  4.107387  0.0  0.07995  0.147473  -0.00012  4.068517  0.0
C  C55  1  0.03780529  0.99087923  0.62810336  1  0.138111  0.000316  3.832745  0.0  0.146641  0.000168  4.083994  0.0  0.145286  0.000258  4.107041  0.0  0.079994  0.14763  0.000119  4.068167  0.0
C  C56  1  0.00424606  0.11020473  0.30125273  1  -0.105642  0.000802  3.682561  0.001  -0.130128  0.000976  3.928797  0.001  -0.129533  0.000693  3.947203  0.001  -0.076933  -0.130378  0.00174  3.916687  0.001
C  C57  1  0.99575051  0.88981027  0.69872581  1  -0.105889  -0.000636  3.682653  -0.001  -0.130447  -0.000978  3.928741  -0.001  -0.129866  -0.000689  3.947146  -0.001  -0.077043  -0.130702  -0.001741  3.916661  -0.001
C  C58  1  0.01282282  0.12348381  0.19248479  1  -0.058647  -0.000733  3.750175  -0.001  -0.067183  -0.000468  3.99742  0.0  -0.071174  -0.000537  4.019302  0.0  -0.088409  -0.064362  -0.000558  3.983056  0.0
C  C59  1  0.98718442  0.87652391  0.80749797  1  -0.058587  0.00055  3.749953  0.0  -0.067082  0.000473  3.997205  0.0  -0.071068  0.000531  4.019091  0.0  -0.088429  -0.064296  0.000558  3.982835  0.0
C  C60  1  0.97615397  0.04055112  0.15313871  1  -0.065756  0.001294  3.70726  0.001  -0.093259  0.001549  3.958561  0.001  -0.091879  0.001259  3.976931  0.001  -0.080357  -0.094591  0.002206  3.946705  0.002
C  C61  1  0.02385597  0.95945244  0.84684626  1  -0.06578  -0.001155  3.707498  -0.001  -0.093285  -0.00155  3.958786  -0.001  -0.091914  -0.001253  3.977154  -0.001  -0.080304  -0.094617  -0.002206  3.946952  -0.002
C  C62  1  0.92855377  0.94384345  0.22287492  1  -0.076511  0.000496  3.78444  0.001  -0.04992  0.000776  4.015365  0.001  -0.058146  0.000444  4.039029  0.0  -0.022499  -0.044752  0.001013  4.000321  0.001
C  C63  1  0.07144830  0.05616731  0.77711834  1  -0.076654  -0.000628  3.784902  -0.001  -0.050054  -0.000776  4.015827  -0.001  -0.058268  -0.000449  4.039492  0.0  -0.022533  -0.044891  -0.001014  4.000775  -0.001
C  C64  1  0.88867606  0.85550217  0.17971877  1  0.645183  0.002806  3.916812  0.003  0.596593  0.00598  4.206649  0.006  0.63076  0.004423  4.200929  0.005  0.211092  0.573222  0.007299  4.209537  0.007
C  C65  1  0.11131628  0.14450438  0.82028066  1  0.645394  -0.002832  3.917066  -0.003  0.59677  -0.005978  4.206901  -0.006  0.630933  -0.004424  4.201185  -0.005  0.21117  0.573395  -0.007298  4.209774  -0.007
C  C66  1  0.54757043  0.68823194  0.35125484  1  0.135808  0.00132  3.74966  0.001  0.127867  0.003303  3.988691  0.003  0.1323  0.002553  4.010033  0.002  0.124836  0.12442  0.004423  3.974576  0.004
C  C67  1  0.45242757  0.31176110  0.64874804  1  0.135916  -0.001398  3.749252  -0.002  0.127968  -0.003305  3.988335  -0.003  0.132402  -0.002561  4.009673  -0.002  0.12481  0.12452  -0.004423  3.974214  -0.004
C  C68  1  0.64395992  0.60357442  0.43604470  1  0.13037  0.001427  3.753111  0.002  0.125033  0.00346  3.991166  0.003  0.129269  0.00268  4.012523  0.003  0.125372  0.122473  0.004407  3.976313  0.004
C  C69  1  0.35603844  0.39641551  0.56395817  1  0.130223  -0.001385  3.753457  -0.002  0.124852  -0.003458  3.991487  -0.003  0.129087  -0.002682  4.012843  -0.003  0.125383  0.122292  -0.004409  3.97662  -0.004
C  C70  1  0.87122722  0.45528297  0.48613346  1  0.144358  0.002483  3.680502  0.003  0.11397  0.004733  3.935964  0.004  0.121327  0.003835  3.953221  0.003  0.063006  0.108784  0.005849  3.925221  0.005
C  C71  1  0.12877226  0.54471111  0.51386972  1  0.144495  -0.002423  3.680212  -0.003  0.114122  -0.004733  3.935677  -0.004  0.121477  -0.003835  3.952933  -0.003  0.063087  0.108927  -0.005849  3.924945  -0.005
C  C72  1  0.83166405  0.44001202  0.59505351  1  -0.117431  -0.000549  3.71376  0.0  -0.131667  -0.000117  3.971602  0.0  -0.138493  -0.000521  3.992548  0.0  -0.082441  -0.126737  0.000154  3.957816  0.0
C  C73  1  0.16834515  0.55997477  0.40495553  1  -0.117521  0.000531  3.713823  0.0  -0.131749  0.000113  3.971731  0.0  -0.138569  0.000526  3.992659  0.0  -0.082469  -0.126828  -0.000153  3.957968  0.0
C  C74  1  0.69190018  0.50819483  0.62349872  1  -0.042849  0.002355  3.696451  0.002  -0.067943  0.003975  3.946564  0.003  -0.065744  0.003369  3.964945  0.003  -0.062786  -0.069383  0.004945  3.933986  0.004
C  C75  1  0.30810286  0.49179299  0.37650936  1  -0.042731  -0.002318  3.696564  -0.002  -0.067884  -0.003969  3.946611  -0.003  -0.065669  -0.003376  3.964998  -0.003  -0.062789  -0.069332  -0.004945  3.934049  -0.004
C  C76  1  0.59253701  0.59126498  0.54376366  1  0.023723  -0.000535  3.798318  0.0  0.037283  -0.000188  4.03448  0.0  0.034888  -0.000495  4.059034  0.0  -0.000687  0.039058  4.4e-05  4.017849  0.0
C  C77  1  0.40746638  0.40871973  0.45624366  1  0.023667  0.00049  3.798435  0.0  0.037375  0.000183  4.034411  0.0  0.034983  0.000499  4.058956  0.0  -0.000711  0.039147  -4.4e-05  4.01778  0.0
C  C78  1  0.44509201  0.66039215  0.56634771  1  -0.093128  -9.7e-05  3.716672  0.0  -0.116976  -7.3e-05  3.973168  0.0  -0.120258  -9.4e-05  3.995412  0.0  -0.082071  -0.114833  -9e-05  3.958372  0.0
C  C79  1  0.55490670  0.33959465  0.43365591  1  -0.092984  0.000173  3.716497  0.0  -0.116866  7.3e-05  3.972965  0.0  -0.120148  9.7e-05  3.99521  0.0  -0.082031  -0.11473  9e-05  3.958205  0.0
C  C80  1  0.35353457  0.73762580  0.48579090  1  -0.08236  -7e-06  3.71521  0.0  -0.105915  -7.1e-05  3.969882  0.0  -0.108758  -0.0001  3.993576  0.0  -0.081149  -0.104499  -5.7e-05  3.954711  0.0
C  C81  1  0.64646534  0.26236723  0.51421248  1  -0.082445  -5.9e-05  3.715172  0.0  -0.106041  7.3e-05  3.969905  0.0  -0.108886  9.8e-05  3.993601  0.0  -0.081217  -0.104663  5.8e-05  3.95473  0.0
C  C82  1  0.40199720  0.75312248  0.37643297  1  0.024796  -0.000474  3.791129  0.0  0.040835  -0.000177  4.023511  0.0  0.037925  -0.000463  4.047694  0.0  -0.000742  0.042916  3.1e-05  4.007596  0.0
C  C83  1  0.59799721  0.24687675  0.62357563  1  0.024676  0.000543  3.79106  0.0  0.040716  0.000174  4.023491  0.0  0.037804  0.00047  4.047675  0.0  -0.000743  0.042794  -3.1e-05  4.007594  0.0
C  C84  1  0.31144838  0.82808307  0.29039153  1  -0.03949  0.002364  3.688017  0.002  -0.063735  0.003989  3.931982  0.003  -0.061153  0.003341  3.952328  0.003  -0.062925  -0.06548  0.004947  3.918388  0.004
C  C85  1  0.68855046  0.17191931  0.70961264  1  -0.039506  -0.002451  3.687887  -0.002  -0.063748  -0.003986  3.931843  -0.003  -0.061162  -0.003353  3.952184  -0.003  -0.062947  -0.065499  -0.004948  3.91826  -0.004
C  C86  1  0.36645785  0.83908921  0.18688348  1  -0.130717  -0.000758  3.752079  -0.001  -0.142397  -0.000386  4.005297  0.0  -0.149821  -0.000763  4.026908  -0.001  -0.08572  -0.137666  -8.4e-05  3.990952  0.0
C  C87  1  0.63353915  0.16091522  0.81312495  1  -0.130624  0.000829  3.751813  0.001  -0.142269  0.000382  4.005048  0.0  -0.14969  0.000772  4.02666  0.001  -0.085687  -0.137535  8.4e-05  3.990701  0.0
C  C88  1  0.51254735  0.77360432  0.16996348  1  0.139387  0.002512  3.708816  0.003  0.108052  0.004915  3.963454  0.004  0.115982  0.003926  3.980318  0.003  0.057205  0.10273  0.005919  3.952157  0.005
C  C89  1  0.48745054  0.22639806  0.83004082  1  0.139448  -0.002581  3.708825  -0.003  0.108082  -0.004914  3.963487  -0.004  0.116012  -0.003933  3.980352  -0.003  0.057195  0.102756  -0.005918  3.952183  -0.005
C  C90  1  0.78825515  0.42087213  0.09567047  1  0.387654  0.001411  3.791933  0.001  0.312014  0.003638  4.080336  0.003  0.340227  0.002594  4.08159  0.002  0.173433  0.292947  0.004695  4.07856  0.004
C  C91  1  0.21174449  0.57912612  0.90433086  1  0.387679  -0.001416  3.791714  -0.001  0.312011  -0.003639  4.080117  -0.003  0.34022  -0.002599  4.081369  -0.002  0.173484  0.292937  -0.004696  4.078351  -0.004
C  C92  1  0.61628067  0.32503607  0.11661448  1  -0.167136  -0.000104  3.670199  0.0  -0.267209  0.000104  3.915017  0.0  -0.263108  1.4e-05  3.925548  0.0  -0.134695  -0.269511  0.000163  3.907642  0.0
C  C93  1  0.38372052  0.67495380  0.88339636  1  -0.167396  9.4e-05  3.670607  0.0  -0.267437  -9.9e-05  3.915526  0.0  -0.263331  -1.7e-05  3.926058  0.0  -0.134846  -0.269765  -0.000163  3.908144  0.0
C  C94  1  0.76727632  0.33944004  0.95087090  1  -0.171497  0.000289  3.656215  0.0  -0.270966  0.000479  3.902324  0.0  -0.267898  0.000357  3.913962  0.0  -0.130073  -0.272694  0.000599  3.894408  0.0
C  C95  1  0.23272707  0.66054466  0.04913794  1  -0.171151  -0.000252  3.656401  0.0  -0.270608  -0.000478  3.90247  0.0  -0.267553  -0.000357  3.9141  0.0  -0.129852  -0.272328  -0.000599  3.894558  0.0
C  C96  1  0.26175147  0.25305441  0.23433684  1  -0.076649  -0.000237  3.778411  0.0  -0.050181  -0.000255  4.008004  0.0  -0.059401  -0.000469  4.033733  0.0  -0.023084  -0.044166  -0.000113  3.990809  0.0
C  C97  1  0.73825166  0.74694698  0.76565944  1  -0.076606  0.000313  3.778457  0.0  -0.050149  0.000254  4.008081  0.0  -0.059365  0.000464  4.033803  0.0  -0.023022  -0.044134  0.000113  3.990895  0.0
C  C98  1  0.29463601  0.20420929  0.34175730  1  -0.114322  0.000618  3.688902  0.001  -0.148497  0.00066  3.939356  0.001  -0.14907  0.000627  3.959375  0.001  -0.072306  -0.147788  0.001115  3.92587  0.001
C  C99  1  0.70536337  0.79579417  0.65824047  1  -0.114232  -0.000675  3.688705  -0.001  -0.148374  -0.000657  3.939136  -0.001  -0.148947  -0.000624  3.959154  -0.001  -0.072285  -0.147671  -0.001117  3.925666  -0.001
C  C100  1  0.42305818  0.09363457  0.37485065  1  0.149596  -0.000489  3.817361  -0.001  0.159128  -0.000318  4.064767  0.0  0.157438  -0.000397  4.089596  0.0  0.083179  0.16031  -0.000362  4.047867  0.0
C  C101  1  0.57693440  0.90637820  0.62515094  1  0.149436  0.000561  3.817474  0.001  0.158965  0.000315  4.064882  0.0  0.157274  0.000403  4.089713  0.0  0.083158  0.160147  0.000362  4.047982  0.0
C  C102  1  0.52136085  0.03091803  0.30007666  1  -0.10728  0.000778  3.687196  0.001  -0.132993  0.001012  3.936133  0.001  -0.132888  0.000889  3.956088  0.001  -0.078644  -0.132797  0.001302  3.923272  0.001
C  C103  1  0.47863617  0.96909790  0.69991975  1  -0.107036  -0.000903  3.687542  -0.001  -0.132735  -0.001008  3.936444  -0.001  -0.132626  -0.000892  3.956396  -0.001  -0.07855  -0.132533  -0.001302  3.923557  -0.001
C  C104  1  0.48885247  0.07986426  0.19333132  1  -0.072162  -0.000523  3.790763  0.0  -0.079482  -0.000353  4.040136  0.0  -0.083767  -0.000454  4.062817  0.0  -0.091037  -0.076806  -0.000347  4.02495  0.0
C  C105  1  0.51114916  0.92014752  0.80666478  1  -0.072242  0.000628  3.790824  0.001  -0.079596  0.000353  4.040205  0.0  -0.08388  0.000452  4.062882  0.0  -0.091067  -0.076922  0.000347  4.025022  0.0
C  C106  1  0.35996689  0.19005868  0.16032414  1  -0.071185  0.001087  3.721251  0.001  -0.094804  0.001199  3.96402  0.001  -0.094796  0.001098  3.985264  0.001  -0.084981  -0.09481  0.001368  3.949954  0.001
C  C107  1  0.64003996  0.80995210  0.83966773  1  -0.071248  -0.001168  3.721226  -0.001  -0.094868  -0.001201  3.964066  -0.001  -0.094856  -0.001094  3.985303  -0.001  -0.084979  -0.094895  -0.001369  3.949984  -0.001
C  C108  1  0.12174788  0.36965569  0.19990142  1  0.641156  0.003988  3.917872  0.003  0.589813  0.007566  4.212507  0.006  0.624459  0.005943  4.205907  0.005  0.210992  0.566233  0.009103  4.215899  0.007
C  C109  1  0.87824962  0.63034780  0.80009053  1  0.6412  -0.003998  3.918219  -0.003  0.589805  -0.007567  4.212901  -0.006  0.624451  -0.005943  4.206293  -0.005  0.210913  0.566221  -0.009107  4.2163  -0.007
N  N110  1  0.60033432  0.70003081  0.24944755  1  -0.341647  0.025861  3.239927  0.016  -0.278166  0.029939  3.509099  0.016  -0.296991  0.026592  3.525439  0.013  -0.308737  -0.264968  0.033064  3.498491  0.019
N  N111  1  0.39966000  0.29996634  0.75056083  1  -0.341688  -0.025789  3.239694  -0.016  -0.278223  -0.029938  3.508925  -0.016  -0.297051  -0.026582  3.525261  -0.013  -0.308697  -0.265018  -0.033064  3.4983  -0.019
N  N112  1  0.78097995  0.53556485  0.40877912  1  -0.336648  0.025812  3.205785  0.015  -0.275516  0.031276  3.474297  0.016  -0.293161  0.027685  3.488926  0.014  -0.303265  -0.26277  0.03471  3.464361  0.019
N  N113  1  0.21902640  0.46442197  0.59122348  1  -0.336608  -0.025849  3.205776  -0.015  -0.275495  -0.031274  3.474321  -0.016  -0.293139  -0.027684  3.488947  -0.014  -0.303353  -0.262742  -0.034708  3.464367  -0.019
N  N114  1  0.72233801  0.36912630  0.05413760  1  -0.100431  0.001543  3.509969  0.002  0.005603  0.002787  3.743007  0.003  -0.015155  0.002113  3.76841  0.002  -0.288201  0.019633  0.003486  3.725204  0.004
N  N115  1  0.27766240  0.63086776  0.94586925  1  -0.100387  -0.001538  3.509933  -0.002  0.00562  -0.002788  3.743017  -0.003  -0.015137  -0.002108  3.768422  -0.002  -0.288191  0.019648  -0.003485  3.725224  -0.004
N  N116  1  0.96334341  0.97779680  0.48386428  1  -0.15733  0.000511  3.00479  0.001  -0.134736  0.000242  3.290767  0.0  -0.133137  0.000372  3.296437  0.0  -0.151058  -0.136381  0.000194  3.287285  0.0
N  N117  1  0.03665443  0.02222649  0.51611802  1  -0.157069  -0.000517  3.004469  -0.001  -0.134525  -0.000251  3.290298  0.0  -0.132926  -0.000361  3.295965  0.0  -0.150914  -0.136162  -0.000196  3.28681  0.0
N  N118  1  0.44416537  0.05349092  0.48515347  1  -0.152314  0.000744  3.010896  0.001  -0.130093  0.000457  3.294083  0.0  -0.129084  0.000586  3.302224  0.001  -0.147429  -0.130816  0.000516  3.288455  0.001
N  N119  1  0.55583200  0.94652189  0.51484293  1  -0.152223  -0.000732  3.010794  -0.001  -0.129988  -0.000458  3.293971  0.0  -0.128981  -0.00059  3.302114  -0.001  -0.147452  -0.130715  -0.000516  3.288351  -0.001
O  O120  1  0.88771036  0.74365211  0.24539467  1  -0.651869  0.031871  2.028869  0.021  -0.586185  0.038157  2.290446  0.024  -0.61682  0.03424  2.27785  0.02  -0.31643  -0.562869  0.041981  2.298051  0.027
O  O121  1  0.11227674  0.25635543  0.75461126  1  -0.651983  -0.031862  2.029034  -0.021  -0.586261  -0.038159  2.29058  -0.024  -0.616893  -0.034238  2.277988  -0.02  -0.316512  -0.562946  -0.04198  2.298168  -0.027
O  O122  1  0.85999882  0.89746896  0.08184521  1  -0.629156  0.001152  1.942157  0.002  -0.575782  0.003084  2.160341  0.004  -0.60067  0.002022  2.15029  0.003  -0.323916  -0.558137  0.004013  2.166647  0.005
O  O123  1  0.13999006  0.10253447  0.91815396  1  -0.629153  -0.001151  1.942242  -0.002  -0.575764  -0.003084  2.160453  -0.004  -0.600652  -0.002023  2.150406  -0.003  -0.3239  -0.558142  -0.004016  2.166768  -0.005
O  O124  1  0.03993393  0.42462755  0.27186082  1  -0.644766  0.031615  2.039573  0.019  -0.578115  0.036207  2.30864  0.019  -0.609066  0.032627  2.296075  0.016  -0.314389  -0.554988  0.039641  2.316207  0.022
O  O125  1  0.96006581  0.57537280  0.72813541  1  -0.644771  -0.031604  2.039856  -0.019  -0.578054  -0.036206  2.308891  -0.019  -0.609007  -0.032626  2.296331  -0.016  -0.314288  -0.554926  -0.039639  2.316457  -0.022
O  O126  1  0.08934180  0.40806526  0.10346417  1  -0.643761  0.002955  2.022164  0.001  -0.587786  0.006362  2.259485  0.004  -0.612963  0.005315  2.248145  0.003  -0.310704  -0.570062  0.007314  2.266567  0.005
O  O127  1  0.91066022  0.59193199  0.89652953  1  -0.643854  -0.002959  2.022154  -0.001  -0.587835  -0.006365  2.25944  -0.004  -0.613017  -0.005318  2.248107  -0.003  -0.310775  -0.570126  -0.007316  2.266549  -0.005
O  O128  1  0.76015435  0.44049646  0.18699968  1  -0.534629  0.023577  2.05999  0.014  -0.478623  0.031722  2.326277  0.019  -0.505085  0.028643  2.318118  0.017  -0.292077  -0.459229  0.034796  2.331144  0.022
O  O129  1  0.23984379  0.55950070  0.81300895  1  -0.534627  -0.023577  2.060052  -0.014  -0.478607  -0.031722  2.326335  -0.019  -0.505064  -0.028646  2.318172  -0.017  -0.292127  -0.459221  -0.034796  2.331226  -0.022
O  O130  1  0.80852553  0.69939805  0.06231105  1  -0.872939  0.032471  1.94254  0.02  -0.809902  0.041443  2.159582  0.025  -0.83503  0.037097  2.121198  0.021  -0.584537  -0.790731  0.045269  2.18619  0.028
O  O131  1  0.19147049  0.30060438  0.93768364  1  -0.872971  -0.032477  1.942537  -0.02  -0.809909  -0.041447  2.159641  -0.025  -0.835039  -0.037101  2.121265  -0.021  -0.584538  -0.79073  -0.04527  2.186247  -0.028
