# generated using pymatgen
data_ZnH41C37N3O8
_symmetry_space_group_name_H-M   'P 1'
_cell_length_a   10.60842037
_cell_length_b   18.79100387
_cell_length_c   19.16603054
_cell_angle_alpha   89.55178957
_cell_angle_beta   94.12969354
_cell_angle_gamma   89.93975183
_symmetry_Int_Tables_number   1
_chemical_formula_structural   ZnH41C37N3O8
_chemical_formula_sum   'Zn2 H82 C74 N6 O16'
_cell_volume   3810.57005321
_cell_formula_units_Z   2
loop_
 _symmetry_equiv_pos_site_id
 _symmetry_equiv_pos_as_xyz
  1  'x, y, z'
loop_
 _atom_site_type_symbol
 _atom_site_label
 _atom_site_symmetry_multiplicity
 _atom_site_fract_x
 _atom_site_fract_y
 _atom_site_fract_z
 _atom_site_occupancy
 _atom_site_pbe_bader_charge
 _atom_site_pbe_bader_spin_density
 _atom_site_pbe_cm5_charge
 _atom_site_pbe_ddec_charge
 _atom_site_pbe_ddec_spin_density
 _atom_site_pbe_ddec_sum_bond_order
 _atom_site_pbe_magmom
Zn  Zn0  1  0.51016138  0.41888576  0.50163509  1  1.307964  0  0.687454  0.866687  0  2.301195  0
Zn  Zn1  1  0.51677163  0.58623214  0.50180242  1  1.301607  0  0.687049  0.8734  0  2.308056  0
H  H2  1  0.43906149  0.62326550  0.72203923  1  0.142359  0  0.124298  0.141218  0  0.977791  0
H  H3  1  0.59745912  0.40768577  0.27212765  1  0.143798  0  0.124322  0.137074  0  0.98552  0
H  H4  1  0.33989746  0.58119136  0.29694440  1  0.129694  0  0.123767  0.136172  0  1.003101  0
H  H5  1  0.39206861  0.39656526  0.70723709  1  0.138694  0  0.121438  0.130135  0  1.010107  0
H  H6  1  0.17442978  0.44898170  0.92714289  1  0.074236  0  0.110103  0.112914  0  0.976428  0
H  H7  1  0.54658241  0.53939324  0.07192328  1  0.073154  0  0.108246  0.111432  0  0.981546  0
H  H8  1  0.18111620  0.43870760  0.05636668  1  0.095097  0  0.113684  0.11892  0  0.974698  0
H  H9  1  0.53987670  0.55029293  0.94303801  1  0.060565  0  0.108456  0.11042  0  0.982696  0
H  H10  1  0.51597333  0.17045094  0.61710321  1  0.069759  0  0.110667  0.123112  0  1.00601  0
H  H11  1  0.32365842  0.83227670  0.44370698  1  0.083422  0  0.10487  0.114791  0  1.050294  0
H  H12  1  0.47409894  0.16900663  0.39257376  1  0.053158  0  0.107932  0.119174  0  1.025188  0
H  H13  1  0.68142494  0.83707173  0.56344516  1  0.082088  0  0.105155  0.116343  0  1.045096  0
H  H14  1  0.01502576  0.66039382  0.36832481  1  0.001417  0  0.082186  0.106491  0  1.046396  0
H  H15  1  0.01105599  0.58648526  0.31138698  1  0.014692  0  0.080793  0.106046  0  1.03177  0
H  H16  1  0.89070091  0.65192004  0.30215535  1  0.02462  0  0.085292  0.111958  0  1.001083  0
H  H17  1  0.80599590  0.54590155  0.36193883  1  0.005234  0  0.087511  0.083489  0  0.98809  0
H  H18  1  0.81386548  0.61823693  0.41853190  1  0.042989  0  0.088589  0.088115  0  1.00289  0
H  H19  1  0.00980857  0.39337894  0.67540488  1  0.005601  0  0.083256  0.109517  0  1.023027  0
H  H20  1  0.00599368  0.32172243  0.61588544  1  0.013771  0  0.08192  0.104996  0  1.037416  0
H  H21  1  0.13114441  0.32853493  0.68230897  1  0.025084  0  0.080995  0.113722  0  1.021805  0
H  H22  1  0.20700301  0.36730519  0.56683826  1  0.015907  0  0.087917  0.086371  0  0.994115  0
H  H23  1  0.21364146  0.43701914  0.62665394  1  0.024446  0  0.084059  0.078129  0  1.028608  0
H  H24  1  0.91334430  0.38010893  0.32615676  1  0.014674  0  0.084324  0.110549  0  1.022682  0
H  H25  1  0.90111968  0.46839218  0.29320306  1  0.013618  0  0.084788  0.112002  0  1.023774  0
H  H26  1  0.00546081  0.40741734  0.25714819  1  0.013996  0  0.084036  0.110568  0  1.005115  0
H  H27  1  0.12855739  0.49124075  0.33673042  1  0.016575  0  0.082152  0.070064  0  1.005435  0
H  H28  1  0.14355686  0.40358189  0.36781649  1  0.024946  0  0.088048  0.084048  0  1.002274  0
H  H29  1  0.12385125  0.51684142  0.69416932  1  0.00647  0  0.080073  0.106124  0  1.039341  0
H  H30  1  0.10761401  0.60549498  0.66268892  1  0.043106  0  0.083646  0.110392  0  1.020855  0
H  H31  1  0.01956332  0.57619193  0.73276881  1  0.017031  0  0.083749  0.108904  0  1.005195  0
H  H32  1  0.87766265  0.58050304  0.62320800  1  0.019963  0  0.089961  0.084617  0  1.010068  0
H  H33  1  0.89518898  0.49259639  0.65347332  1  0.004592  0  0.089794  0.083114  0  0.985707  0
H  H34  1  0.05896553  0.30392912  0.41056163  1  0.006576  0  0.083451  0.108609  0  1.030408  0
H  H35  1  0.08842546  0.28770664  0.50135527  1  0.005556  0  0.083933  0.111385  0  1.023978  0
H  H36  1  0.96774124  0.23990198  0.45309810  1  0.013799  0  0.079763  0.100828  0  1.021176  0
H  H37  1  0.86756501  0.33431341  0.52123983  1  0.035002  0  0.086813  0.080464  0  1.012033  0
H  H38  1  0.84070110  0.35153377  0.43190479  1  0.03295  0  0.088223  0.083658  0  0.984471  0
H  H39  1  0.92295920  0.69535796  0.49184947  1  0.030176  0  0.085368  0.113863  0  1.018178  0
H  H40  1  0.96589438  0.68270214  0.58230809  1  0.02557  0  0.084625  0.109983  0  1.044717  0
H  H41  1  0.04718184  0.74610163  0.53374586  1  0.012067  0  0.080041  0.101814  0  1.011113  0
H  H42  1  0.17927789  0.63649657  0.55446790  1  0.029972  0  0.088944  0.087909  0  0.99173  0
H  H43  1  0.14232265  0.65274209  0.46566943  1  0.037783  0  0.087814  0.080508  0  1.034569  0
H  H44  1  0.68393860  0.22188539  0.68283684  1  0.016911  0  0.083416  0.103436  0  1.026949  0
H  H45  1  0.77068864  0.27489376  0.62583419  1  0.007604  0  0.088878  0.117556  0  1.010074  0
H  H46  1  0.73232318  0.30874434  0.70787950  1  0.049908  0  0.093815  0.125145  0  0.986259  0
H  H47  1  0.58933172  0.36461446  0.61779204  1  0.092245  0  0.100505  0.115578  0  1.035446  0
H  H48  1  0.50018483  0.30612997  0.66683284  1  0.015996  0  0.097396  0.102143  0  0.96804  0
H  H49  1  0.17272566  0.75903133  0.39256559  1  -0.003717  0  0.08524  0.10838  0  1.01158  0
H  H50  1  0.28978749  0.78421696  0.33500734  1  0.012637  0  0.087341  0.115924  0  1.011395  0
H  H51  1  0.20127093  0.70577282  0.31934462  1  0.08047  0  0.091412  0.12829  0  1.011877  0
H  H52  1  0.41555396  0.67401454  0.36945719  1  0.10364  0  0.105152  0.124122  0  0.98006  0
H  H53  1  0.30426575  0.64726339  0.42628192  1  0.083729  0  0.100523  0.112081  0  1.040743  0
H  H54  1  0.40343676  0.22547850  0.29904335  1  0.014778  0  0.085577  0.108484  0  1.009981  0
H  H55  1  0.26925041  0.24724646  0.34532024  1  0.03816  0  0.087996  0.115681  0  1.00533  0
H  H56  1  0.31949393  0.30515785  0.27933405  1  0.019755  0  0.089748  0.121513  0  0.995918  0
H  H57  1  0.38397083  0.35812411  0.39186606  1  0.099532  0  0.102464  0.117275  0  1.022021  0
H  H58  1  0.52038430  0.33144241  0.35370342  1  0.057708  0  0.098321  0.108783  0  0.993664  0
H  H59  1  0.82987502  0.77773142  0.62159482  1  0.00716  0  0.0852  0.106483  0  1.016553  0
H  H60  1  0.70192102  0.76906031  0.67635718  1  0.02913  0  0.088802  0.118128  0  1.000075  0
H  H61  1  0.82424025  0.70454295  0.67972263  1  0.038083  0  0.093046  0.12375  0  0.995404  0
H  H62  1  0.63747982  0.65422948  0.61518667  1  0.104081  0  0.103962  0.12627  0  1.0086  0
H  H63  1  0.75624032  0.66466920  0.55791385  1  0.083243  0  0.100199  0.10829  0  1.027659  0
H  H64  1  0.18149121  0.07196097  0.50658368  1  0.051167  0  0.085455  0.113404  0  0.998208  0
H  H65  1  0.25297784  0.15581614  0.49328838  1  0.054095  0  0.082495  0.111263  0  1.034263  0
H  H66  1  0.12324841  0.12845846  0.43655201  1  0.04144  0  0.087768  0.116338  0  1.003793  0
H  H67  1  0.32160869  0.11184060  0.37640302  1  0.018397  0  0.089136  0.07815  0  1.022644  0
H  H68  1  0.24399588  0.03156736  0.38981126  1  0.020857  0  0.095065  0.092302  0  0.992668  0
H  H69  1  0.39349113  0.93331504  0.66373920  1  0.024749  0  0.086673  0.115311  0  0.998822  0
H  H70  1  0.44418221  0.84937658  0.63440244  1  0.050101  0  0.082352  0.112489  0  1.032056  0
H  H71  1  0.49812844  0.87987575  0.71868871  1  0.045686  0  0.091321  0.122929  0  0.991861  0
H  H72  1  0.67023470  0.89784628  0.63844187  1  0.027755  0  0.088857  0.077894  0  1.023836  0
H  H73  1  0.61490913  0.97780504  0.67011103  1  0.033939  0  0.095158  0.092018  0  0.991722  0
H  H74  1  0.80894657  0.06380014  0.50407965  1  0.00763  0  0.085486  0.113009  0  1.000228  0
H  H75  1  0.74037464  0.14931783  0.51155994  1  0.033596  0  0.08254  0.111193  0  1.032671  0
H  H76  1  0.86903222  0.12306126  0.57036708  1  0.047922  0  0.088808  0.118165  0  0.995095  0
H  H77  1  0.66973939  0.11305015  0.63088044  1  0.027688  0  0.087189  0.07494  0  1.035129  0
H  H78  1  0.74320292  0.03058917  0.62297637  1  0.043448  0  0.095384  0.093151  0  0.992965  0
H  H79  1  0.59247455  0.93883153  0.34271568  1  0.041056  0  0.08698  0.115644  0  0.998092  0
H  H80  1  0.54815409  0.85370280  0.37306639  1  0.037426  0  0.083018  0.113621  0  1.032644  0
H  H81  1  0.48668534  0.88499295  0.28998002  1  0.019544  0  0.09057  0.120193  0  0.992231  0
H  H82  1  0.31957916  0.89963553  0.37333256  1  0.019893  0  0.088538  0.076659  0  1.025898  0
H  H83  1  0.37052456  0.98068830  0.34134197  1  0.049798  0  0.095152  0.091872  0  0.994787  0
C  C84  1  0.52093343  0.50384256  0.36863503  1  1.597744  0  0.214295  0.580877  0  4.215707  0
C  C85  1  0.46242431  0.51191636  0.63278161  1  1.5783  0  0.217723  0.588475  0  4.18693  0
C  C86  1  0.27404668  0.49765116  0.48305328  1  1.546079  0  0.218238  0.612733  0  4.140671  0
C  C87  1  0.74890681  0.49149148  0.51360986  1  1.5315  0  0.220535  0.620913  0  4.148135  0
C  C88  1  0.03524632  0.47052085  0.42937699  1  0.001019  0  7.9e-05  0.046039  0  3.582108  0
C  C89  1  0.98582418  0.51482453  0.56015859  1  0.001029  0  0.002095  0.049265  0  3.581155  0
C  C90  1  0.96870766  0.42342744  0.48502792  1  -0.010338  0  -0.003657  0.040206  0  3.591987  0
C  C91  1  0.05059948  0.56227243  0.50443275  1  -0.01079  0  -0.005728  0.038756  0  3.593877  0
C  C92  1  0.94852977  0.53638389  0.44541672  1  0.000435  0  -0.000981  0.045004  0  3.580239  0
C  C93  1  0.07108752  0.44890834  0.54368339  1  0.011656  0  0.003373  0.053675  0  3.577357  0
C  C94  1  0.88489273  0.48910899  0.50093130  1  0.008243  0  -0.011776  -0.12967  0  3.676982  0
C  C95  1  0.13526131  0.49710512  0.48809183  1  -0.016135  0  -0.013579  -0.133502  0  3.673348  0
C  C96  1  0.41779652  0.57218184  0.74564975  1  0.057945  0  -0.060376  -0.118685  0  3.921163  0
C  C97  1  0.52292710  0.44337918  0.25117443  1  0.014362  0  -0.061056  -0.123895  0  3.927648  0
C  C98  1  0.37810403  0.54002357  0.26486737  1  0.048032  0  -0.06275  -0.126759  0  3.926447  0
C  C99  1  0.39156713  0.44526758  0.73752483  1  -0.065438  0  -0.062555  -0.126961  0  3.936394  0
C  C100  1  0.38515710  0.56846917  0.81451087  1  0.128485  0  0.085186  0.035379  0  3.906609  0
C  C101  1  0.47707355  0.43825599  0.18158697  1  0.149379  0  0.083963  0.028329  0  3.912945  0
C  C102  1  0.33243043  0.53239798  0.19548361  1  0.116607  0  0.085988  0.035529  0  3.910321  0
C  C103  1  0.36629841  0.44321095  0.80768986  1  0.233305  0  0.084379  0.035822  0  3.914852  0
C  C104  1  0.36410553  0.50396272  0.84976792  1  0.06971  0  0.021525  0.000425  0  3.947262  0
C  C105  1  0.38243263  0.48303428  0.15006688  1  0.105238  0  0.023045  0.005228  0  3.929184  0
C  C106  1  0.42261953  0.50989468  0.70673483  1  0.075112  0  -0.003881  -0.001724  0  3.946206  0
C  C107  1  0.47426383  0.49551006  0.29312792  1  0.090272  0  0.00017  0.012464  0  3.940314  0
C  C108  1  0.25607146  0.46898818  0.95885473  1  0.008412  0  -0.081221  -0.107411  0  3.947591  0
C  C109  1  0.46454415  0.52002336  0.04010392  1  -0.000337  0  -0.087336  -0.119319  0  3.972213  0
C  C110  1  0.25929046  0.46330061  0.03145824  1  0.041964  0  -0.073607  -0.085802  0  3.949813  0
C  C111  1  0.46048660  0.52647294  0.96777403  1  -0.071244  0  -0.084985  -0.109656  0  3.975231  0
C  C112  1  0.36417385  0.48820468  0.07250902  1  -0.036214  0  -0.010165  0.062744  0  4.02192  0
C  C113  1  0.35676934  0.50032367  0.92650537  1  0.045794  0  -0.010832  0.065065  0  4.047685  0
C  C114  1  0.52688433  0.27030720  0.56362544  1  0.50025  0  0.129591  0.286942  0  3.917976  0
C  C115  1  0.42243969  0.73422486  0.46061095  1  0.534701  0  0.126561  0.28851  0  3.91416  0
C  C116  1  0.47586297  0.27012435  0.44267398  1  0.41345  0  0.126503  0.284897  0  3.910546  0
C  C117  1  0.60004746  0.73556826  0.54029430  1  0.497313  0  0.125439  0.286452  0  3.92246  0
C  C118  1  0.51125526  0.19663257  0.56623664  1  -0.069774  0  -0.08855  -0.243503  0  3.920332  0
C  C119  1  0.40701460  0.80723872  0.46894340  1  -0.087004  0  -0.093556  -0.244679  0  3.924812  0
C  C120  1  0.48286766  0.19619214  0.44240797  1  0.034369  0  -0.089943  -0.24143  0  3.919187  0
C  C121  1  0.60168364  0.80971239  0.53746294  1  0.007216  0  -0.094883  -0.246821  0  3.921334  0
C  C122  1  0.49582958  0.15688581  0.50491691  1  -0.021519  0  0.015837  0.147912  0  4.013983  0
C  C123  1  0.50094604  0.84830028  0.50438773  1  -0.04611  0  0.014297  0.145161  0  4.005417  0
C  C124  1  0.41325566  0.04006649  0.45688178  1  0.024775  0  -0.006953  0.024892  0  3.884235  0
C  C125  1  0.55622124  0.96558225  0.56214503  1  -0.028362  0  -0.005469  0.02891  0  3.868173  0
C  C126  1  0.57558356  0.03947658  0.55418330  1  -0.038024  0  -0.007169  0.024473  0  3.886201  0
C  C127  1  0.43415596  0.96637703  0.44866949  1  -0.065726  0  -0.005573  0.02707  0  3.866767  0
C  C128  1  0.49624703  0.92738680  0.50518712  1  -0.023425  0  -0.011867  -0.052343  0  3.914533  0
C  C129  1  0.49423679  0.07790476  0.50552257  1  0.000597  0  -0.013089  -0.052431  0  3.93869  0
C  C130  1  0.87347494  0.58103150  0.39145994  1  0.002725  0  -0.165901  -0.133745  0  3.981124  0
C  C131  1  0.95208609  0.62200373  0.34065785  1  -0.041344  0  -0.246677  -0.351095  0  3.973073  0
C  C132  1  0.14687903  0.40283590  0.59574627  1  0.007681  0  -0.168069  -0.138183  0  3.982338  0
C  C133  1  0.06899257  0.35921019  0.64489524  1  -0.044928  0  -0.248102  -0.352288  0  3.965693  0
C  C134  1  0.07480022  0.44733249  0.35908218  1  -0.005721  0  -0.163545  -0.130145  0  3.990402  0
C  C135  1  0.96762180  0.42464716  0.30616466  1  -0.04251  0  -0.244962  -0.350824  0  3.972626  0
C  C136  1  0.94711329  0.53701455  0.63088944  1  0.018464  0  -0.162312  -0.134403  0  3.981453  0
C  C137  1  0.05559212  0.56011690  0.68285922  1  -0.062415  0  -0.246537  -0.349034  0  3.966375  0
C  C138  1  0.91628419  0.34942314  0.47451900  1  -0.004771  0  -0.164928  -0.131194  0  3.984694  0
C  C139  1  0.01330839  0.29227414  0.45901732  1  -0.03773  0  -0.246959  -0.352875  0  3.976872  0
C  C140  1  0.10009973  0.63693089  0.51407019  1  -0.001359  0  -0.168555  -0.133843  0  3.98761  0
C  C141  1  0.00324206  0.69310570  0.53135125  1  -0.082714  0  -0.247672  -0.353481  0  3.971655  0
C  C142  1  0.57410216  0.30836416  0.62928516  1  -0.003751  0  -0.161617  -0.194407  0  3.945792  0
C  C143  1  0.69702489  0.27628436  0.66325608  1  -0.035581  0  -0.236264  -0.334239  0  3.939522  0
C  C144  1  0.34608516  0.69503022  0.40406029  1  -0.073367  0  -0.168608  -0.214323  0  3.974443  0
C  C145  1  0.24713845  0.73868248  0.36085564  1  -0.067356  0  -0.243707  -0.350504  0  3.973381  0
C  C146  1  0.43564411  0.31071166  0.37672670  1  -0.011215  0  -0.167096  -0.20393  0  3.96164  0
C  C147  1  0.35299314  0.26939810  0.32238966  1  -0.074249  0  -0.241391  -0.341598  0  3.967536  0
C  C148  1  0.69196413  0.69501565  0.58903307  1  -0.058416  0  -0.168678  -0.219411  0  3.971838  0
C  C149  1  0.76577462  0.73944773  0.64432240  1  -0.06676  0  -0.241837  -0.344977  0  3.981185  0
C  C150  1  0.29805541  0.07384711  0.41730693  1  0.005418  0  -0.16275  -0.148263  0  3.981543  0
C  C151  1  0.20940331  0.10972968  0.46643094  1  -0.12441  0  -0.244408  -0.349828  0  3.953665  0
C  C152  1  0.58828338  0.93378509  0.63481418  1  -0.010491  0  -0.162088  -0.148787  0  3.982959  0
C  C153  1  0.47433328  0.89665335  0.66428425  1  -0.103378  0  -0.243727  -0.35207  0  3.959861  0
C  C154  1  0.69169265  0.07250844  0.59269796  1  -0.021046  0  -0.162779  -0.149156  0  3.982611  0
C  C155  1  0.78232671  0.10415008  0.54155297  1  -0.070501  0  -0.243509  -0.349109  0  3.957057  0
C  C156  1  0.40050054  0.93615873  0.37595848  1  -0.029466  0  -0.161954  -0.148083  0  3.984985  0
C  C157  1  0.51361833  0.90109326  0.34399273  1  -0.066817  0  -0.244758  -0.351315  0  3.959664  0
N  N158  1  0.50401819  0.30713172  0.50275991  1  -1.216666  0  -0.313243  -0.327765  0  3.390124  0
N  N159  1  0.51397723  0.69783038  0.49962159  1  -1.232072  0  -0.318821  -0.335296  0  3.393866  0
N  N160  1  0.37087690  0.63699938  0.85074957  1  0.408504  0  0.05855  0.515708  0  4.220556  0
N  N161  1  0.53233882  0.38142685  0.14012349  1  0.420849  0  0.057698  0.515799  0  4.220494  0
N  N162  1  0.23035802  0.58161245  0.17005342  1  0.40137  0  0.060645  0.518994  0  4.209677  0
N  N163  1  0.35054576  0.37143920  0.83827236  1  0.40108  0  0.059796  0.514717  0  4.226147  0
O  O164  1  0.56621264  0.44897020  0.40020031  1  -1.172749  0  -0.313436  -0.559881  0  2.333564  0
O  O165  1  0.49994298  0.57146762  0.61058818  1  -1.159224  0  -0.308902  -0.542171  0  2.32801  0
O  O166  1  0.45449655  0.45348661  0.60012395  1  -1.16828  0  -0.305544  -0.557899  0  2.392014  0
O  O167  1  0.50722110  0.56536732  0.39369210  1  -1.164779  0  -0.306255  -0.545817  0  2.356704  0
O  O168  1  0.32691123  0.43906339  0.46734955  1  -1.176061  0  -0.320996  -0.565196  0  2.341819  0
O  O169  1  0.69738085  0.55290771  0.50761607  1  -1.177337  0  -0.313065  -0.563714  0  2.405317  0
O  O170  1  0.69448327  0.43413685  0.53135443  1  -1.177148  0  -0.3227  -0.558799  0  2.332161  0
O  O171  1  0.33166039  0.55586799  0.49662918  1  -1.179239  0  -0.307762  -0.550696  0  2.418952  0
O  O172  1  0.44997135  0.68386131  0.84074951  1  -0.458887  0  -0.143723  -0.341081  0  1.853607  0
O  O173  1  0.27932702  0.64327579  0.88670767  1  -0.430685  0  -0.126338  -0.319516  0  1.876834  0
O  O174  1  0.64778042  0.37123498  0.14997621  1  -0.457076  0  -0.140478  -0.336715  0  1.855262  0
O  O175  1  0.45886854  0.34676886  0.10057320  1  -0.445397  0  -0.122345  -0.3154  0  1.883401  0
O  O176  1  0.14386773  0.55696932  0.13068343  1  -0.433114  0  -0.121916  -0.322139  0  1.898217  0
O  O177  1  0.23684841  0.64371608  0.19151878  1  -0.4646  0  -0.134641  -0.335221  0  1.874602  0
O  O178  1  0.27024844  0.33259978  0.80759219  1  -0.461709  0  -0.135608  -0.33692  0  1.873781  0
O  O179  1  0.41984791  0.35493582  0.89039922  1  -0.414643  0  -0.115257  -0.305325  0  1.887178  0
