# generated using pymatgen
data_ZnH6C19Br4N2(ClO2)2
_symmetry_space_group_name_H-M   'P 1'
_cell_length_a   21.47641313
_cell_length_b   21.55049204
_cell_length_c   22.22640192
_cell_angle_alpha   60.63054800
_cell_angle_beta   63.48344235
_cell_angle_gamma   89.96725128
_symmetry_Int_Tables_number   1
_chemical_formula_structural   ZnH6C19Br4N2(ClO2)2
_chemical_formula_sum   'Zn4 H24 C76 Br16 N8 Cl8 O16'
_cell_volume   7700.79630796
_cell_formula_units_Z   4
loop_
 _symmetry_equiv_pos_site_id
 _symmetry_equiv_pos_as_xyz
  1  'x, y, z'
loop_
 _atom_site_type_symbol
 _atom_site_label
 _atom_site_symmetry_multiplicity
 _atom_site_fract_x
 _atom_site_fract_y
 _atom_site_fract_z
 _atom_site_occupancy
 _atom_site_pbe_bader_charge
 _atom_site_pbe_bader_spin_density
 _atom_site_pbe_cm5_charge
 _atom_site_pbe_ddec_charge
 _atom_site_pbe_ddec_spin_density
 _atom_site_pbe_ddec_sum_bond_order
 _atom_site_pbe_magmom
Zn  Zn0  1  0.54315977  0.04234867  0.91103274  1  1.321041  0  0.667741  0.899918  0  2.285508  0
Zn  Zn1  1  0.45931754  0.96235003  0.08963332  1  1.32301  0  0.667306  0.901889  0  2.282863  0
Zn  Zn2  1  0.96218104  0.45212498  0.08818708  1  1.3128  0  0.663898  0.887397  0  2.285561  0
Zn  Zn3  1  0.04307695  0.55230936  0.91292516  1  1.312432  0  0.664097  0.888272  0  2.286416  0
H  H4  1  0.71423771  0.16359761  0.89111684  1  0.095618  0  0.093223  0.109802  0  1.048111  0
H  H5  1  0.85930046  0.27276924  0.10204966  1  0.121005  0  0.107209  0.128958  0  0.994939  0
H  H6  1  0.87733591  0.45800607  0.88796899  1  0.103779  0  0.099074  0.104804  0  1.015822  0
H  H7  1  0.79194154  0.37497769  0.89231368  1  0.063416  0  0.103136  0.109977  0  0.989897  0
H  H8  1  0.55544458  0.11079790  0.12597909  1  0.099546  0  0.106405  0.115251  0  0.991734  0
H  H9  1  0.64205611  0.19723976  0.11633541  1  0.068726  0  0.103122  0.109  0  0.990065  0
H  H10  1  0.43314534  0.88450266  0.91185568  1  0.104713  0  0.104357  0.123799  0  1.002916  0
H  H11  1  0.10763243  0.53103949  0.14322390  1  0.105559  0  0.098269  0.112854  0  1.028565  0
H  H12  1  0.14758778  0.71709740  0.91688932  1  0.081435  0  0.106118  0.114362  0  0.99072  0
H  H13  1  0.22835275  0.79583351  0.92117588  1  0.11296  0  0.100957  0.106794  0  0.99691  0
H  H14  1  0.26619081  0.81452612  0.15069235  1  0.081746  0  0.100836  0.105896  0  1.009313  0
H  H15  1  0.18780657  0.73101109  0.14879913  1  0.077943  0  0.101402  0.107279  0  0.996424  0
H  H16  1  0.40092277  0.17811240  0.85339100  1  0.141221  0  0.100222  0.116002  0  1.021536  0
H  H17  1  0.06564827  0.28110842  0.09702866  1  0.101008  0  0.107049  0.126137  0  0.993851  0
H  H18  1  0.22582158  0.45787145  0.85720278  1  0.104374  0  0.092575  0.093985  0  1.040398  0
H  H19  1  0.30905274  0.37753169  0.85391041  1  0.081196  0  0.101445  0.10821  0  0.994324  0
H  H20  1  0.36331494  0.13803777  0.07798153  1  0.073004  0  0.103767  0.111523  0  0.997161  0
H  H21  1  0.27651584  0.21479104  0.07793633  1  0.082016  0  0.101639  0.107871  0  0.994544  0
H  H22  1  0.63204440  0.85915873  0.89777897  1  0.09152  0  0.109423  0.131286  0  0.984832  0
H  H23  1  0.77649041  0.54252878  0.09545872  1  0.110733  0  0.095573  0.11112  0  1.03951  0
H  H24  1  0.95223961  0.74009858  0.90039328  1  0.107833  0  0.105981  0.114267  0  0.992624  0
H  H25  1  0.86395871  0.81604844  0.90289954  1  0.0777  0  0.10532  0.111093  0  0.983143  0
H  H26  1  0.63547051  0.85790187  0.09037459  1  0.085167  0  0.098859  0.10707  0  1.009836  0
H  H27  1  0.71840257  0.77626375  0.09113405  1  0.07195  0  0.10578  0.111845  0  0.98261  0
C  C28  1  0.40180034  0.90715877  0.02946887  1  1.577037  0  0.215331  0.606515  0  4.145093  0
C  C29  1  0.43842365  0.10610982  0.96639361  1  1.586273  0  0.214156  0.607698  0  4.142418  0
C  C30  1  0.57902534  0.07891347  0.01476205  1  1.572604  0  0.216806  0.608538  0  4.137632  0
C  C31  1  0.58310144  0.91619626  0.98990834  1  1.565963  0  0.214415  0.605031  0  4.14752  0
C  C32  1  0.09272172  0.42444262  0.98283961  1  1.583397  0  0.214583  0.606613  0  4.143288  0
C  C33  1  0.07350681  0.57203235  0.02773341  1  1.577376  0  0.215969  0.610778  0  4.143901  0
C  C34  1  0.92235315  0.59138303  0.99571147  1  1.571969  0  0.213713  0.604305  0  4.150011  0
C  C35  1  0.92173838  0.41896242  0.99614020  1  1.568472  0  0.214013  0.601371  0  4.156152  0
C  C36  1  0.81229109  0.36597196  0.25671286  1  0.508879  0  0.11327  0.206781  0  3.960367  0
C  C37  1  0.76522370  0.33811038  0.33857304  1  0.023406  0  -0.017006  -0.040751  0  3.918192  0
C  C38  1  0.79401809  0.31999984  0.38901293  1  0.347383  0  0.097511  0.133756  0  3.978025  0
C  C39  1  0.87007484  0.33782466  0.35316672  1  0.001609  0  -0.015748  -0.038052  0  3.917404  0
C  C40  1  0.91250366  0.36298183  0.27143894  1  0.574019  0  0.113315  0.205326  0  3.966683  0
C  C41  1  0.62801757  0.17201756  0.64152186  1  -0.022776  0  -0.01846  -0.038299  0  3.910413  0
C  C42  1  0.70442899  0.19314588  0.60291463  1  0.401866  0  0.097045  0.134127  0  3.978305  0
C  C43  1  0.73552909  0.16536921  0.65170585  1  0.027096  0  -0.017324  -0.040856  0  3.921332  0
C  C44  1  0.69030592  0.12448976  0.73563708  1  0.498113  0  0.112706  0.204219  0  3.973344  0
C  C45  1  0.58761261  0.12443660  0.72594867  1  0.543154  0  0.113349  0.202715  0  3.970055  0
C  C46  1  0.18278955  0.63218508  0.74128781  1  0.554502  0  0.112379  0.202476  0  3.973825  0
C  C47  1  0.22583327  0.65508218  0.66045906  1  -0.005877  0  -0.016382  -0.0395  0  3.919742  0
C  C48  1  0.19557831  0.68218123  0.61103203  1  0.365449  0  0.097011  0.133497  0  3.980609  0
C  C49  1  0.12024782  0.67314682  0.64799622  1  -0.05875  0  -0.017291  -0.03959  0  3.914099  0
C  C50  1  0.08011981  0.64334137  0.73120695  1  0.585623  0  0.112229  0.204077  0  3.958436  0
C  C51  1  0.36738037  0.82365099  0.36167009  1  0.029374  0  -0.017646  -0.036828  0  3.91471  0
C  C52  1  0.29182810  0.81373741  0.39774227  1  0.346011  0  0.095304  0.130748  0  3.981886  0
C  C53  1  0.26428662  0.85176776  0.34686305  1  -0.011605  0  -0.018008  -0.040596  0  3.923707  0
C  C54  1  0.31168399  0.89494260  0.26328771  1  0.556603  0  0.111447  0.204166  0  3.98124  0
C  C55  1  0.41005891  0.86627350  0.27714194  1  0.559324  0  0.113263  0.203531  0  3.978116  0
C  C56  1  0.62975649  0.13174069  0.00926711  1  -0.004533  0  -0.015842  -0.009203  0  3.962377  0
C  C57  1  0.87306959  0.37032432  0.99501731  1  -0.013733  0  -0.017188  -0.01194  0  3.969604  0
C  C58  1  0.69866829  0.17079754  0.94061152  1  0.070883  0  -0.092782  -0.158206  0  3.961071  0
C  C59  1  0.74739988  0.21755203  0.93644496  1  -0.015319  0  0.013862  0.110228  0  4.009463  0
C  C60  1  0.84472929  0.29482740  0.05588895  1  0.017134  0  -0.093155  -0.164654  0  3.972676  0
C  C61  1  0.79903367  0.24844933  0.05653380  1  0.039718  0  0.015329  0.108235  0  4.012678  0
C  C62  1  0.85473347  0.39913487  0.93528922  1  -0.011743  0  -0.087881  -0.091944  0  3.980617  0
C  C63  1  0.80756785  0.35256293  0.93772837  1  -0.057847  0  -0.089757  -0.120433  0  3.998756  0
C  C64  1  0.60934830  0.14136745  0.07278500  1  -0.047033  0  -0.087985  -0.096443  0  3.98683  0
C  C65  1  0.65788184  0.18931075  0.06719510  1  -0.032265  0  -0.091196  -0.121588  0  4.007565  0
C  C66  1  0.72822701  0.22788349  0.99964594  1  0.032155  0  -0.011923  0.016805  0  3.990671  0
C  C67  1  0.77879265  0.27629353  0.99788947  1  0.02618  0  -0.011849  0.020042  0  3.986425  0
C  C68  1  0.35426468  0.85479344  0.03127117  1  -0.090033  0  -0.016342  -0.009122  0  3.968966  0
C  C69  1  0.12215470  0.61941705  0.03013206  1  0.025914  0  -0.013458  -0.000625  0  3.962277  0
C  C70  1  0.37953957  0.85013582  0.96414905  1  0.07448  0  -0.091353  -0.161092  0  3.960302  0
C  C71  1  0.33675832  0.80080480  0.96498039  1  0.020544  0  0.01515  0.109713  0  4.003941  0
C  C72  1  0.13467467  0.58896608  0.09407271  1  0.006352  0  -0.094181  -0.16407  0  3.963047  0
C  C73  1  0.18326071  0.63227042  0.09373941  1  0.024347  0  0.014252  0.109153  0  4.003847  0
C  C74  1  0.15720292  0.69388222  0.96687873  1  -0.008607  0  -0.089487  -0.103767  0  3.992783  0
C  C75  1  0.20285355  0.73728678  0.96908880  1  -0.056232  0  -0.09022  -0.116077  0  4.007715  0
C  C76  1  0.28542474  0.81068936  0.09855028  1  0.008421  0  -0.087203  -0.095477  0  3.987045  0
C  C77  1  0.24223939  0.76373716  0.09741787  1  -0.054782  0  -0.089973  -0.116806  0  3.997459  0
C  C78  1  0.26652334  0.75698564  0.03124655  1  0.052178  0  -0.011538  0.01891  0  3.980324  0
C  C79  1  0.21781042  0.70782695  0.03182110  1  -0.028276  0  -0.01286  0.016513  0  3.984062  0
C  C80  1  0.38793702  0.15400664  0.96527160  1  -0.002933  0  -0.015041  -0.002998  0  3.962482  0
C  C81  1  0.14101562  0.37482486  0.97758875  1  -0.043778  0  -0.013788  -0.000736  0  3.956374  0
C  C82  1  0.37328016  0.18586899  0.90286399  1  0.010571  0  -0.093043  -0.162601  0  3.960181  0
C  C83  1  0.32174227  0.22548281  0.90546159  1  0.000682  0  0.013837  0.107918  0  4.006588  0
C  C84  1  0.11864517  0.30191802  0.04319686  1  0.014566  0  -0.090944  -0.161496  0  3.958405  0
C  C85  1  0.16387742  0.25590764  0.03906857  1  0.020793  0  0.014736  0.108728  0  4.006665  0
C  C86  1  0.20900033  0.40121851  0.90838090  1  0.018295  0  -0.091024  -0.096457  0  3.988138  0
C  C87  1  0.25491071  0.35589284  0.90646694  1  -0.067802  0  -0.091107  -0.117069  0  3.996165  0
C  C88  1  0.35204744  0.16361538  0.02917188  1  -0.064619  0  -0.091345  -0.103137  0  3.99343  0
C  C89  1  0.30308687  0.20570076  0.02932586  1  0.010693  0  -0.090528  -0.117206  0  4.003076  0
C  C90  1  0.28594867  0.23715316  0.96823153  1  0.0304  0  -0.012472  0.018256  0  3.984414  0
C  C91  1  0.23386962  0.28220184  0.97135128  1  0.017536  0  -0.012933  0.015601  0  3.987522  0
C  C92  1  0.62893461  0.86352345  0.99402164  1  0.0346  0  -0.014233  -0.007155  0  3.968973  0
C  C93  1  0.86969102  0.63698465  0.99790223  1  -0.03125  0  -0.017009  -0.009386  0  3.966725  0
C  C94  1  0.65007322  0.84010360  0.94099102  1  -0.027899  0  -0.089391  -0.159719  0  3.954639  0
C  C95  1  0.69394658  0.79225622  0.94413087  1  0.059745  0  0.013134  0.105145  0  4.028987  0
C  C96  1  0.79555461  0.60239898  0.05283286  1  -0.01654  0  -0.092359  -0.157634  0  3.956833  0
C  C97  1  0.74657474  0.64480170  0.05158016  1  0.042564  0  0.012542  0.107559  0  4.0257  0
C  C98  1  0.89438266  0.71401020  0.94315341  1  -0.003904  0  -0.088113  -0.099791  0  3.993523  0
C  C99  1  0.84511209  0.75589008  0.94439653  1  -0.080205  0  -0.089144  -0.121269  0  4.002654  0
C  C100  1  0.65240268  0.83938019  0.04929016  1  -0.011318  0  -0.088797  -0.097809  0  3.992962  0
C  C101  1  0.69817528  0.79367574  0.04986274  1  -0.03768  0  -0.088718  -0.121284  0  4.001701  0
C  C102  1  0.71964869  0.76901265  0.99769193  1  0.027073  0  -0.013079  0.016535  0  4.012093  0
C  C103  1  0.77038066  0.72224205  0.99806902  1  0.06581  0  -0.014126  0.013826  0  4.012384  0
Br  Br104  1  0.01174521  0.36874160  0.22690843  1  0.065285  0  0.108071  0.037477  0  1.569094  0
Br  Br105  1  0.91517697  0.33566710  0.40939288  1  0.036698  0  0.058385  -0.007653  0  1.606929  0
Br  Br106  1  0.77284339  0.38203276  0.19168604  1  0.069094  0  0.111289  0.041232  0  1.597682  0
Br  Br107  1  0.66509364  0.32569936  0.37974663  1  0.032068  0  0.063522  -0.000711  0  1.592532  0
Br  Br108  1  0.58013451  0.20048323  0.58339993  1  0.03812  0  0.058046  -0.012716  0  1.643443  0
Br  Br109  1  0.48711819  0.08286826  0.77936993  1  0.055477  0  0.105118  0.033554  0  1.567182  0
Br  Br110  1  0.83658669  0.18298276  0.60405396  1  0.051913  0  0.064811  -0.00366  0  1.599863  0
Br  Br111  1  0.73198153  0.09483130  0.80047232  1  0.075703  0  0.10746  0.036351  0  1.579942  0
Br  Br112  1  0.98025247  0.63386517  0.78125784  1  0.070372  0  0.105581  0.037051  0  1.568747  0
Br  Br113  1  0.07251892  0.69348315  0.59003819  1  0.030633  0  0.054089  -0.01401  0  1.61322  0
Br  Br114  1  0.22719470  0.61805496  0.80139275  1  0.074066  0  0.112677  0.039365  0  1.592601  0
Br  Br115  1  0.32160036  0.64824144  0.62029420  1  0.032776  0  0.064228  0.001722  0  1.588512  0
Br  Br116  1  0.41230412  0.78739061  0.42278903  1  0.04675  0  0.053996  -0.017196  0  1.648974  0
Br  Br117  1  0.50999620  0.87547747  0.22638553  1  0.053133  0  0.099058  0.02602  0  1.567348  0
Br  Br118  1  0.16475807  0.84457442  0.39190214  1  0.037301  0  0.063613  -0.003325  0  1.590874  0
Br  Br119  1  0.27601066  0.94930402  0.19544033  1  0.063811  0  0.105751  0.032579  0  1.566901  0
N  N120  1  0.88449834  0.37847121  0.22400994  1  -1.17793  0  -0.297979  -0.265381  0  3.421139  0
N  N121  1  0.74446650  0.28888337  0.47281600  1  -0.374739  0  -0.110788  -0.057517  0  3.209645  0
N  N122  1  0.75282437  0.22985242  0.51856793  1  -0.378713  0  -0.112128  -0.058883  0  3.259574  0
N  N123  1  0.61784747  0.10448201  0.77160172  1  -1.178182  0  -0.293787  -0.258711  0  3.42496  0
N  N124  1  0.11106952  0.62417933  0.77637100  1  -1.190741  0  -0.297771  -0.262245  0  3.421631  0
N  N125  1  0.24295139  0.71297025  0.52685237  1  -0.343527  0  -0.108961  -0.05469  0  3.204453  0
N  N126  1  0.24297726  0.77774957  0.48203583  1  -0.388529  0  -0.111092  -0.059158  0  3.253583  0
N  N127  1  0.38284799  0.90068827  0.22955621  1  -1.195753  0  -0.294372  -0.260458  0  3.428695  0
Cl  Cl128  1  0.83396940  0.26062583  0.85190065  1  -0.221038  0  -0.031144  -0.107125  0  1.439308  0
Cl  Cl129  1  0.76938543  0.15436329  0.13090944  1  -0.225143  0  -0.029868  -0.106124  0  1.44209  0
Cl  Cl130  1  0.37434266  0.79352376  0.88206012  1  -0.22878  0  -0.030742  -0.110033  0  1.444301  0
Cl  Cl131  1  0.20161220  0.58891691  0.17129825  1  -0.226658  0  -0.03021  -0.10731  0  1.44155  0
Cl  Cl132  1  0.30108439  0.25765555  0.82987447  1  -0.222717  0  -0.029474  -0.106487  0  1.443536  0
Cl  Cl133  1  0.13016578  0.16393479  0.11997698  1  -0.227337  0  -0.031684  -0.111078  0  1.442415  0
Cl  Cl134  1  0.71731606  0.76161982  0.87983403  1  -0.222184  0  -0.034197  -0.106153  0  1.427271  0
Cl  Cl135  1  0.65450604  0.60042528  0.11733613  1  -0.225118  0  -0.033715  -0.104062  0  1.428979  0
O  O136  1  0.44860204  0.96252565  0.96105211  1  -1.185975  0  -0.318401  -0.569544  0  2.387139  0
O  O137  1  0.39135578  0.89188677  0.09732940  1  -1.147032  0  -0.327434  -0.556616  0  2.339878  0
O  O138  1  0.42548828  0.05461787  0.03525190  1  -1.183809  0  -0.319707  -0.575184  0  2.406137  0
O  O139  1  0.48923014  0.11962929  0.89881524  1  -1.157385  0  -0.324998  -0.549636  0  2.32949  0
O  O140  1  0.52512369  0.03212777  0.08502600  1  -1.157937  0  -0.324552  -0.553935  0  2.363502  0
O  O141  1  0.59381854  0.08395455  0.95014828  1  -1.178911  0  -0.321554  -0.572161  0  2.375494  0
O  O142  1  0.59064253  0.96081540  0.92080051  1  -1.150608  0  -0.325614  -0.556036  0  2.363017  0
O  O143  1  0.54207491  0.91359205  0.05396150  1  -1.183176  0  -0.31829  -0.570228  0  2.361409  0
O  O144  1  0.05241657  0.41328481  0.05181356  1  -1.169712  0  -0.32055  -0.563728  0  2.366451  0
O  O145  1  0.09692348  0.47424499  0.91719893  1  -1.16325  0  -0.326019  -0.55969  0  2.341832  0
O  O146  1  0.09240007  0.58518386  0.95884600  1  -1.168858  0  -0.32025  -0.573918  0  2.401294  0
O  O147  1  0.01806366  0.52220429  0.09449368  1  -1.16053  0  -0.325817  -0.551661  0  2.328701  0
O  O148  1  0.98174664  0.62005202  0.92867708  1  -1.161774  0  -0.322242  -0.554276  0  2.365992  0
O  O149  1  0.90357336  0.52806539  0.05911501  1  -1.184186  0  -0.322548  -0.568697  0  2.360941  0
O  O150  1  0.92152217  0.39117127  0.06187633  1  -1.161101  0  -0.323852  -0.558523  0  2.396488  0
O  O151  1  0.95833971  0.48337388  0.93316787  1  -1.17511  0  -0.320168  -0.56126  0  2.357581  0
