# generated using pymatgen
data_Al2H11(C7O5)2
_symmetry_space_group_name_H-M   'P 1'
_cell_length_a   6.67224266
_cell_length_b   13.07219018
_cell_length_c   16.98401642
_cell_angle_alpha   90.96924327
_cell_angle_beta   88.97043004
_cell_angle_gamma   89.25639725
_symmetry_Int_Tables_number   1
_chemical_formula_structural   Al2H11(C7O5)2
_chemical_formula_sum   'Al4 H22 C28 O20'
_cell_volume   1480.77813944
_cell_formula_units_Z   2
loop_
 _symmetry_equiv_pos_site_id
 _symmetry_equiv_pos_as_xyz
  1  'x, y, z'
loop_
 _atom_site_type_symbol
 _atom_site_label
 _atom_site_symmetry_multiplicity
 _atom_site_fract_x
 _atom_site_fract_y
 _atom_site_fract_z
 _atom_site_occupancy
 _atom_site_pbe_bader_charge
 _atom_site_pbe_bader_spin_density
 _atom_site_pbe_cm5_charge
 _atom_site_pbe_ddec_charge
 _atom_site_pbe_ddec_spin_density
 _atom_site_pbe_ddec_sum_bond_order
 _atom_site_pbe_magmom
Al  Al0  1  0.86857540  0.50249412  0.49760325  1  2.502452  0  0.397292  1.640905  0  2.580143  0
Al  Al1  1  0.36880721  0.49922065  0.49875838  1  2.503747  0  0.393076  1.642006  0  2.586206  0
Al  Al2  1  0.39625962  0.98850614  0.99534076  1  2.502428  0  0.394443  1.63886  0  2.586293  0
Al  Al3  1  0.89634279  0.99176083  0.99514399  1  2.50243  0  0.397012  1.640953  0  2.582799  0
H  H4  1  0.97172769  0.65899647  0.85713717  1  0.081477  0  0.099589  0.085154  0  0.991928  0
H  H5  1  0.77717854  0.71789996  0.71643799  1  0.100012  0  0.097088  0.08501  0  1.015217  0
H  H6  1  0.96605930  0.91204847  0.72985284  1  0.065145  0  0.099738  0.085795  0  0.993658  0
H  H7  1  0.29227433  0.83205606  0.63513585  1  0.05717  0  0.099131  0.084163  0  0.993832  0
H  H8  1  0.29774782  0.57919344  0.76239997  1  0.071239  0  0.099846  0.086753  0  0.991813  0
H  H9  1  0.82737791  0.70327238  0.31066548  1  0.06857  0  0.114503  0.112969  0  0.976822  0
H  H10  1  0.28777300  0.68931603  0.29448599  1  0.08552  0  0.111188  0.126456  0  0.990539  0
H  H11  1  0.83409177  0.80982576  0.19219451  1  0.10201  0  0.113891  0.112172  0  0.979409  0
H  H12  1  0.29408970  0.78484702  0.19054569  1  0.091336  0  0.111126  0.127054  0  0.991469  0
H  H13  1  0.94427506  0.19092813  0.79724161  1  0.102788  0  0.109122  0.103998  0  0.987067  0
H  H14  1  0.48269876  0.19444758  0.79996963  1  0.082869  0  0.108525  0.123221  0  0.994853  0
H  H15  1  0.92645481  0.29674601  0.67897319  1  0.119167  0  0.109912  0.105935  0  0.985558  0
H  H16  1  0.46826447  0.30373076  0.70437037  1  0.059952  0  0.107937  0.123008  0  0.995175  0
H  H17  1  0.93514833  0.19418831  0.18188008  1  0.102062  0  0.114757  0.113971  0  0.976308  0
H  H18  1  0.47411715  0.19615049  0.19654320  1  0.091833  0  0.110943  0.126224  0  0.991738  0
H  H19  1  0.93305038  0.31396499  0.29599617  1  0.114544  0  0.113617  0.11187  0  0.977178  0
H  H20  1  0.47814004  0.27833492  0.31003727  1  0.095601  0  0.111262  0.127229  0  0.991361  0
H  H21  1  0.48707621  0.77316354  0.77585133  1  0.080202  0  0.096746  0.083541  0  1.017242  0
H  H22  1  0.60953217  0.62634528  0.53263741  1  0.622234  0  0.351304  0.427791  0  0.85855  0
H  H23  1  0.11501310  0.37203121  0.52551257  1  0.623202  0  0.351748  0.428164  0  0.85621  0
H  H24  1  0.65645765  0.86519585  0.95989009  1  0.620653  0  0.351596  0.428308  0  0.859797  0
H  H25  1  0.14924000  0.11723739  0.96524163  1  0.622412  0  0.350759  0.427062  0  0.858094  0
C  C26  1  0.61476463  0.38205630  0.60775117  1  1.551973  0  0.253849  0.670549  0  4.129284  0
C  C27  1  0.63230133  0.37807623  0.39142604  1  1.555069  0  0.259949  0.674127  0  4.124372  0
C  C28  1  0.12771384  0.61480382  0.38889498  1  1.587539  0  0.259843  0.672211  0  4.127353  0
C  C29  1  0.10757570  0.62378253  0.60713451  1  1.557722  0  0.265611  0.64443  0  4.103112  0
C  C30  1  0.93414443  0.73098950  0.73043191  1  -0.07669  0  -0.080174  -0.074664  0  3.652821  0
C  C31  1  0.04224033  0.69660657  0.80690333  1  -0.042971  0  -0.072724  -0.062843  0  3.633363  0
C  C32  1  0.14987238  0.80299088  0.81300315  1  0.011361  0  -0.006928  -0.037818  0  3.650995  0
C  C33  1  0.03926073  0.83729510  0.73599823  1  -0.025939  0  -0.070424  -0.059492  0  3.617573  0
C  C34  1  0.22189909  0.79468337  0.68551332  1  -0.01786  0  -0.072592  -0.062675  0  3.633405  0
C  C35  1  0.32997511  0.76026230  0.76198653  1  -0.04312  0  -0.079033  -0.071648  0  3.652051  0
C  C36  1  0.22475628  0.65400735  0.75638548  1  -0.039689  0  -0.070282  -0.061352  0  3.621163  0
C  C37  1  0.11424955  0.68840465  0.67943859  1  0.009088  0  -0.007006  -0.037958  0  3.655617  0
C  C38  1  0.97357620  0.71885784  0.28366569  1  0.03322  0  -0.066878  -0.024809  0  3.978863  0
C  C39  1  0.13655424  0.67816302  0.31795346  1  -0.11074  0  -0.082365  -0.226866  0  3.877232  0
C  C40  1  0.97758074  0.78173721  0.21390397  1  -0.062504  0  -0.066161  -0.023117  0  3.977677  0
C  C41  1  0.14420132  0.80899236  0.17347228  1  -0.013146  0  -0.082926  -0.229332  0  3.875092  0
C  C42  1  0.79553242  0.21282710  0.77691783  1  -0.03883  0  -0.07053  -0.027885  0  3.991941  0
C  C43  1  0.63585827  0.17665583  0.81706650  1  -0.097518  0  -0.085136  -0.226055  0  3.877466  0
C  C44  1  0.78523225  0.27774109  0.70851152  1  -0.065492  0  -0.069884  -0.022856  0  3.982562  0
C  C45  1  0.61587870  0.31728089  0.67821028  1  0.005296  0  -0.085723  -0.230214  0  3.875458  0
C  C46  1  0.79007488  0.21547070  0.20879819  1  -0.031825  0  -0.066164  -0.024242  0  3.976772  0
C  C47  1  0.62495955  0.17839727  0.17408508  1  -0.041211  0  -0.082895  -0.228883  0  3.878116  0
C  C48  1  0.78978649  0.28198777  0.27823359  1  -0.028067  0  -0.065705  -0.022259  0  3.977235  0
C  C49  1  0.62655463  0.30762216  0.32280758  1  -0.074021  0  -0.082915  -0.230228  0  3.879522  0
C  C50  1  0.63323204  0.11059994  0.10375477  1  1.559778  0  0.260575  0.673553  0  4.123966  0
C  C51  1  0.65007112  0.11070831  0.88657582  1  1.572776  0  0.255679  0.673798  0  4.124464  0
C  C52  1  0.15636872  0.86775558  0.88535343  1  1.560453  0  0.264019  0.641936  0  4.113848  0
C  C53  1  0.13862714  0.87427596  0.10352291  1  1.555348  0  0.258979  0.671087  0  4.125569  0
O  O54  1  0.46362806  0.39635448  0.42600022  1  -1.252004  0  -0.239121  -0.595042  0  2.310454  0
O  O55  1  0.78198191  0.40126263  0.57386524  1  -1.255455  0  -0.242044  -0.608992  0  2.333669  0
O  O56  1  0.93691865  0.59309618  0.58460166  1  -1.262532  0  -0.239577  -0.598856  0  2.320991  0
O  O57  1  0.79981015  0.41505466  0.41153244  1  -1.262771  0  -0.234814  -0.589275  0  2.329426  0
O  O58  1  0.95860288  0.59961461  0.42259751  1  -1.261306  0  -0.237545  -0.596929  0  2.325574  0
O  O59  1  0.44152572  0.41322692  0.58658261  1  -1.246876  0  -0.244822  -0.606901  0  2.299785  0
O  O60  1  0.61595310  0.56381320  0.50111502  1  -1.425872  0  -0.44792  -0.986594  0  2.187383  0
O  O61  1  0.29678599  0.58026347  0.41138970  1  -1.249593  0  -0.236481  -0.587332  0  2.311149  0
O  O62  1  0.27674948  0.60364960  0.57350482  1  -1.262376  0  -0.243579  -0.611057  0  2.328079  0
O  O63  1  0.11885064  0.43821806  0.50082800  1  -1.428653  0  -0.448713  -0.98957  0  2.202675  0
O  O64  1  0.82277228  0.08100801  0.90867535  1  -1.261251  0  -0.243009  -0.606843  0  2.316704  0
O  O65  1  0.46503762  0.07614947  0.08135731  1  -1.248048  0  -0.236614  -0.586181  0  2.305992  0
O  O66  1  0.30815026  0.89171766  0.07047249  1  -1.250549  0  -0.238789  -0.594183  0  2.30651  0
O  O67  1  0.48152762  0.08922335  0.91902529  1  -1.253152  0  -0.244484  -0.60968  0  2.310972  0
O  O68  1  0.32719900  0.89762148  0.90841760  1  -1.258096  0  -0.239817  -0.598235  0  2.322524  0
O  O69  1  0.80264687  0.09179523  0.07038586  1  -1.264039  0  -0.237579  -0.596618  0  2.334656  0
O  O70  1  0.64928106  0.92747494  0.99170377  1  -1.424355  0  -0.44795  -0.986588  0  2.191141  0
O  O71  1  0.98692206  0.88885478  0.91840217  1  -1.266112  0  -0.243097  -0.61071  0  2.334213  0
O  O72  1  0.96956188  0.90790673  0.08095299  1  -1.26079  0  -0.234025  -0.588057  0  2.334327  0
O  O73  1  0.14584965  0.05290968  0.99269841  1  -1.427225  0  -0.44823  -0.987422  0  2.199015  0
