# generated using pymatgen
data_Zn2H16C18(NO3)3
_symmetry_space_group_name_H-M   'P 1'
_cell_length_a   9.62142992
_cell_length_b   9.70907598
_cell_length_c   11.79599043
_cell_angle_alpha   82.47255321
_cell_angle_beta   81.31915349
_cell_angle_gamma   69.04515434
_symmetry_Int_Tables_number   1
_chemical_formula_structural   Zn2H16C18(NO3)3
_chemical_formula_sum   'Zn4 H32 C36 N6 O18'
_cell_volume   1013.71102150
_cell_formula_units_Z   2
loop_
 _symmetry_equiv_pos_site_id
 _symmetry_equiv_pos_as_xyz
  1  'x, y, z'
loop_
 _atom_site_type_symbol
 _atom_site_label
 _atom_site_symmetry_multiplicity
 _atom_site_fract_x
 _atom_site_fract_y
 _atom_site_fract_z
 _atom_site_occupancy
 _atom_site_hle17_bader_spin_density
 _atom_site_hle17_ddec_charge
 _atom_site_hle17_ddec_spin_density
 _atom_site_hle17_ddec_sum_bond_order
 _atom_site_hle17_magmom
 _atom_site_hse06_10hf_bader_spin_density
 _atom_site_hse06_10hf_ddec_charge
 _atom_site_hse06_10hf_ddec_spin_density
 _atom_site_hse06_10hf_ddec_sum_bond_order
 _atom_site_hse06_10hf_magmom
 _atom_site_hse06_bader_spin_density
 _atom_site_hse06_ddec_charge
 _atom_site_hse06_ddec_spin_density
 _atom_site_hse06_ddec_sum_bond_order
 _atom_site_hse06_magmom
 _atom_site_pbe_bader_spin_density
 _atom_site_pbe_cm5_charge
 _atom_site_pbe_ddec_charge
 _atom_site_pbe_ddec_spin_density
 _atom_site_pbe_ddec_sum_bond_order
 _atom_site_pbe_magmom
Zn  Zn0  1  0.28508703  0.39492631  0.65882493  1  0  1.059974  0  1.829487  0  0  0.882092  0  2.286232  0  0  0.932718  0  2.226944  0  0  0.683836  0.84548  0  2.32752  0
Zn  Zn1  1  0.71491131  0.60507420  0.34117505  1  0  1.059968  0  1.829507  0  0  0.882104  0  2.286248  0  0  0.93273  0  2.226962  0  0  0.683838  0.845494  0  2.327535  0
Zn  Zn2  1  0.35268986  0.65170954  0.75308434  1  0  1.038628  0  1.860679  0  0  0.853007  0  2.342069  0  0  0.901254  0  2.283345  0  0  0.687531  0.819287  0  2.382435  0
Zn  Zn3  1  0.64730848  0.34829097  0.24691479  1  0  1.038586  0  1.860745  0  0  0.852958  0  2.34214  0  0  0.901213  0  2.283398  0  0  0.687494  0.81924  0  2.38251  0
H  H4  1  0.06090017  0.39510413  0.50828065  1  0  0.07795  0  0.964655  0  0  0.084871  0  1.034238  0  0  0.087142  0  1.031775  0  0  0.115892  0.083045  0  1.036349  0
H  H5  1  0.93909883  0.60489749  0.49171827  1  0  0.077923  0  0.964682  0  0  0.08485  0  1.03427  0  0  0.08712  0  1.031806  0  0  0.11589  0.083023  0  1.036382  0
H  H6  1  0.05381905  0.29213761  0.32794947  1  0  0.123069  0  0.958472  0  0  0.130959  0  1.019936  0  0  0.133903  0  1.019981  0  0  0.110297  0.128918  0  1.019848  0
H  H7  1  0.94617930  0.70786290  0.67205050  1  0  0.122978  0  0.958466  0  0  0.130878  0  1.019936  0  0  0.133823  0  1.019979  0  0  0.110247  0.128837  0  1.019848  0
H  H8  1  0.52908594  0.05004957  0.33069981  1  0  0.115378  0  0.944151  0  0  0.126019  0  1.002857  0  0  0.129234  0  1.002106  0  0  0.110521  0.123481  0  1.003854  0
H  H9  1  0.47091134  0.94995094  0.66929944  1  0  0.115364  0  0.944201  0  0  0.126027  0  1.002854  0  0  0.129241  0  1.002104  0  0  0.110534  0.123488  0  1.003852  0
H  H10  1  0.51694509  0.17068047  0.50586995  1  0  0.084461  0  0.964527  0  0  0.090197  0  1.033417  0  0  0.092655  0  1.03143  0  0  0.114674  0.088177  0  1.035135  0
H  H11  1  0.48305391  0.82932115  0.49412812  1  0  0.084477  0  0.964527  0  0  0.090218  0  1.033401  0  0  0.092676  0  1.031411  0  0  0.114678  0.088197  0  1.035118  0
H  H12  1  0.57147914  0.60518734  0.91591948  1  0  0.085266  0  0.932863  0  0  0.09522  0  0.993319  0  0  0.097782  0  0.991216  0  0  0.119954  0.093421  0  0.994596  0
H  H13  1  0.42852131  0.39481317  0.08408108  1  0  0.085233  0  0.932883  0  0  0.095197  0  0.993327  0  0  0.097759  0  0.991223  0  0  0.119954  0.093401  0  0.994604  0
H  H14  1  0.58830806  0.72331897  0.08645328  1  0  0.124833  0  0.969661  0  0  0.131252  0  1.035455  0  0  0.13492  0  1.034188  0  0  0.108096  0.128589  0  1.036327  0
H  H15  1  0.41169145  0.27667822  0.91354775  1  0  0.124826  0  0.969611  0  0  0.131249  0  1.035409  0  0  0.134919  0  1.034141  0  0  0.108084  0.128583  0  1.036289  0
H  H16  1  0.16420387  0.06434133  0.01925373  1  0  0.122219  0  0.946238  0  0  0.130654  0  1.007473  0  0  0.134174  0  1.005859  0  0  0.114566  0.127686  0  1.009491  0
H  H17  1  0.83579695  0.93565808  0.98074520  1  0  0.122259  0  0.946246  0  0  0.130692  0  1.007474  0  0  0.13421  0  1.005862  0  0  0.114579  0.127724  0  1.009492  0
H  H18  1  0.16333784  0.93033484  0.85676968  1  0  0.090873  0  0.937529  0  0  0.098805  0  0.999781  0  0  0.101934  0  0.996085  0  0  0.121548  0.096292  0  1.003001  0
H  H19  1  0.83666547  0.06966346  0.14322905  1  0  0.09084  0  0.937548  0  0  0.09877  0  0.999798  0  0  0.101896  0  0.996105  0  0  0.121541  0.096256  0  1.003019  0
H  H20  1  0.49410764  0.92296319  0.20578543  1  0  0.106409  0  0.962491  0  0  0.117628  0  1.02564  0  0  0.120597  0  1.023986  0  0  0.105656  0.115264  0  1.027157  0
H  H21  1  0.50589176  0.07703732  0.79421526  1  0  0.10643  0  0.962485  0  0  0.11764  0  1.02565  0  0  0.12061  0  1.023996  0  0  0.105666  0.115277  0  1.027167  0
H  H22  1  0.17482851  0.14416540  0.17538930  1  0  0.111717  0  0.967226  0  0  0.122571  0  1.027241  0  0  0.125836  0  1.025284  0  0  0.108123  0.120203  0  1.028647  0
H  H23  1  0.82517127  0.85583401  0.82461061  1  0  0.111722  0  0.967218  0  0  0.122577  0  1.027231  0  0  0.125841  0  1.025274  0  0  0.108123  0.120209  0  1.028637  0
H  H24  1  0.76020243  0.11185404  0.58529992  1  0  0.100276  0  0.946859  0  0  0.112294  0  1.012174  0  0  0.114211  0  1.012488  0  0  0.09646  0.110959  0  1.011836  0
H  H25  1  0.23979696  0.88814648  0.41469907  1  0  0.100258  0  0.946908  0  0  0.112265  0  1.012234  0  0  0.114191  0  1.012539  0  0  0.096447  0.110929  0  1.011895  0
H  H26  1  0.93480335  0.13963933  0.56330696  1  0  0.111225  0  0.907308  0  0  0.130365  0  0.957407  0  0  0.132442  0  0.957223  0  0  0.106796  0.129039  0  0.957438  0
H  H27  1  0.06519604  0.86036118  0.43669288  1  0  0.111248  0  0.907285  0  0  0.130381  0  0.957384  0  0  0.132458  0  0.957202  0  0  0.106808  0.129054  0  0.957415  0
H  H28  1  0.82849410  0.37525200  0.65658205  1  0  0.115222  0  0.943784  0  0  0.121996  0  1.015344  0  0  0.125073  0  1.013366  0  0  0.098758  0.119966  0  1.016551  0
H  H29  1  0.17150462  0.62474741  0.34341715  1  0  0.115246  0  0.943729  0  0  0.122008  0  1.015301  0  0  0.125086  0  1.01332  0  0  0.09876  0.119978  0  1.016508  0
H  H30  1  0.78968495  0.23394314  0.74935618  1  0  0.115988  0  0.9324  0  0  0.129909  0  0.991685  0  0  0.132021  0  0.99154  0  0  0.103383  0.128135  0  0.992406  0
H  H31  1  0.21031378  0.76605626  0.25064471  1  0  0.116  0  0.932414  0  0  0.129911  0  0.991695  0  0  0.132024  0  0.991549  0  0  0.103389  0.128138  0  0.992415  0
H  H32  1  0.13823810  0.48454055  0.05744179  1  0  0.11141  0  0.903542  0  0  0.131873  0  0.954338  0  0  0.133967  0  0.9536  0  0  0.107826  0.130252  0  0.95526  0
H  H33  1  0.86176801  0.51545886  0.94256071  1  0  0.111424  0  0.903594  0  0  0.131886  0  0.954387  0  0  0.133979  0  0.953654  0  0  0.10784  0.130267  0  0.955302  0
H  H34  1  0.13002222  0.35767316  0.96741897  1  0  0.104246  0  0.942901  0  0  0.115005  0  1.010245  0  0  0.117275  0  1.009601  0  0  0.100096  0.113402  0  1.010668  0
H  H35  1  0.86998035  0.64232735  0.03258471  1  0  0.104217  0  0.942901  0  0  0.114979  0  1.010246  0  0  0.117247  0  1.009605  0  0  0.10009  0.113376  0  1.010669  0
C  C36  1  0.16229291  0.31975519  0.46523046  1  0  0.144681  0  3.696652  0  0  0.110792  0  3.949887  0  0  0.118656  0  3.968196  0  0  0.047338  0.105308  0  3.938401  0
C  C37  1  0.83770686  0.68024421  0.53476776  1  0  0.144643  0  3.696667  0  0  0.110741  0  3.949927  0  0  0.118605  0  3.968239  0  0  0.047304  0.105257  0  3.938441  0
C  C38  1  0.15856296  0.26046439  0.36560557  1  0  -0.152826  0  3.661931  0  0  -0.168331  0  3.903512  0  0  -0.176928  0  3.924608  0  0  -0.07847  -0.163307  0  3.889559  0
C  C39  1  0.84143433  0.73953611  0.63439454  1  0  -0.152684  0  3.661879  0  0  -0.168207  0  3.903473  0  0  -0.176803  0  3.924573  0  0  -0.078402  -0.163182  0  3.889518  0
C  C40  1  0.29023870  0.15891482  0.31392070  1  0  0.141241  0  3.794757  0  0  0.155399  0  4.025454  0  0  0.161436  0  4.047569  0  0  0.01126  0.151346  0  4.010409  0
C  C41  1  0.70975899  0.84108458  0.68608032  1  0  0.141244  0  3.794726  0  0  0.155376  0  4.025472  0  0  0.161413  0  4.04759  0  0  0.011259  0.151324  0  4.010426  0
C  C42  1  0.42190286  0.12570200  0.36634486  1  0  -0.163395  0  3.68211  0  0  -0.179935  0  3.92976  0  0  -0.188253  0  3.950488  0  0  -0.08008  -0.174117  0  3.915873  0
C  C43  1  0.57809443  0.87429851  0.63365524  1  0  -0.163385  0  3.682122  0  0  -0.179906  0  3.929766  0  0  -0.188222  0  3.950494  0  0  -0.080067  -0.174088  0  3.915877  0
C  C44  1  0.41635698  0.19181986  0.46507384  1  0  0.133999  0  3.709211  0  0  0.101916  0  3.962355  0  0  0.109455  0  3.980834  0  0  0.044182  0.096948  0  3.949785  0
C  C45  1  0.58364136  0.80818065  0.53492528  1  0  0.133948  0  3.709245  0  0  0.101851  0  3.962391  0  0  0.10939  0  3.980872  0  0  0.044168  0.096883  0  3.949821  0
C  C46  1  0.48388895  0.70641612  0.94341703  1  0  0.126614  0  3.71125  0  0  0.095598  0  3.960153  0  0  0.10298  0  3.979647  0  0  0.044103  0.090944  0  3.946137  0
C  C47  1  0.51611437  0.29358218  0.05658255  1  0  0.126645  0  3.711273  0  0  0.095623  0  3.9602  0  0  0.103007  0  3.979692  0  0  0.044087  0.090966  0  3.946186  0
C  C48  1  0.49282696  0.77379471  0.03714218  1  0  -0.159443  0  3.674321  0  0  -0.177647  0  3.920278  0  0  -0.186755  0  3.942537  0  0  -0.082257  -0.171434  0  3.904786  0
C  C49  1  0.50717492  0.22620470  0.96285831  1  0  -0.159417  0  3.674306  0  0  -0.177639  0  3.920273  0  0  -0.186747  0  3.942532  0  0  -0.082252  -0.171426  0  3.90478  0
C  C50  1  0.37787567  0.90549636  0.06862531  1  0  0.14005  0  3.785645  0  0  0.15628  0  4.014442  0  0  0.16215  0  4.037265  0  0  0.013904  0.152493  0  3.998621  0
C  C51  1  0.62212516  0.09450305  0.93137447  1  0  0.140008  0  3.7858  0  0  0.156261  0  4.014572  0  0  0.162132  0  4.037397  0  0  0.0139  0.152476  0  3.998748  0
C  C52  1  0.25722737  0.96247298  0.00171195  1  0  -0.142493  0  3.650963  0  0  -0.159287  0  3.893735  0  0  -0.167258  0  3.913737  0  0  -0.072206  -0.154166  0  3.880791  0
C  C53  1  0.74277490  0.03752532  0.99828692  1  0  -0.142526  0  3.65105  0  0  -0.159331  0  3.893809  0  0  -0.1673  0  3.91381  0  0  -0.072182  -0.154209  0  3.880865  0
C  C54  1  0.25564340  0.88850712  0.90950110  1  0  0.150745  0  3.690285  0  0  0.114668  0  3.944742  0  0  0.123296  0  3.961437  0  0  0.05213  0.108812  0  3.934045  0
C  C55  1  0.74435886  0.11149118  0.09049777  1  0  0.150806  0  3.690319  0  0  0.114748  0  3.944749  0  0  0.123377  0  3.961446  0  0  0.052111  0.108891  0  3.934054  0
C  C56  1  0.38962898  0.97516325  0.16699756  1  0  -0.092492  0  3.695951  0  0  -0.115688  0  3.95015  0  0  -0.119201  0  3.971627  0  0  -0.076644  -0.113094  0  3.935531  0
C  C57  1  0.61037013  0.02483504  0.83300256  1  0  -0.092493  0  3.695961  0  0  -0.115691  0  3.950164  0  0  -0.119206  0  3.971644  0  0  -0.076639  -0.1131  0  3.935547  0
C  C58  1  0.28123729  0.09340203  0.21230274  1  0  -0.099806  0  3.686209  0  0  -0.118503  0  3.932546  0  0  -0.122056  0  3.952739  0  0  -0.075993  -0.115934  0  3.918615  0
C  C59  1  0.71876288  0.90659626  0.78769809  1  0  -0.099806  0  3.686185  0  0  -0.118498  0  3.932531  0  0  -0.122051  0  3.952726  0  0  -0.075987  -0.115929  0  3.918601  0
C  C60  1  0.59962079  0.39115974  0.67898805  1  0  0.734944  0  3.782477  0  0  0.685777  0  4.075574  0  0  0.720551  0  4.068159  0  0  0.223955  0.661858  0  4.079931  0
C  C61  1  0.40037860  0.60884077  0.32101094  1  0  0.734907  0  3.782401  0  0  0.685728  0  4.075529  0  0  0.720502  0  4.068112  0  0  0.223935  0.661809  0  4.079887  0
C  C62  1  0.77485926  0.28289207  0.45455727  1  0  0.724374  0  3.797509  0  0  0.674368  0  4.09502  0  0  0.709416  0  4.086729  0  0  0.222949  0.650631  0  4.099327  0
C  C63  1  0.22514013  0.71710844  0.54544257  1  0  0.724348  0  3.797518  0  0  0.674358  0  4.094988  0  0  0.709405  0  4.086702  0  0  0.222956  0.650621  0  4.099295  0
C  C64  1  0.81255540  0.19703494  0.56948829  1  0  -0.234977  0  3.669713  0  0  -0.276484  0  3.922733  0  0  -0.282267  0  3.931099  0  0  -0.16268  -0.272693  0  3.91693  0
C  C65  1  0.18744531  0.80296778  0.43051029  1  0  -0.234974  0  3.669779  0  0  -0.276467  0  3.922734  0  0  -0.282257  0  3.931103  0  0  -0.162687  -0.272676  0  3.916931  0
C  C66  1  0.76497024  0.29976782  0.66684847  1  0  -0.25586  0  3.677542  0  0  -0.295999  0  3.930544  0  0  -0.30172  0  3.938041  0  0  -0.168938  -0.291944  0  3.925886  0
C  C67  1  0.23502916  0.70023269  0.33315137  1  0  -0.255904  0  3.677582  0  0  -0.296  0  3.930534  0  0  -0.301718  0  3.938029  0  0  -0.168929  -0.291945  0  3.925875  0
C  C68  1  0.13206336  0.56838603  0.88375164  1  0  0.704041  0  3.809027  0  0  0.654854  0  4.110719  0  0  0.687393  0  4.104474  0  0  0.208149  0.63261  0  4.114363  0
C  C69  1  0.86793815  0.43161447  0.11625132  1  0  0.703984  0  3.809054  0  0  0.654831  0  4.110691  0  0  0.687371  0  4.104449  0  0  0.208129  0.632588  0  4.114333  0
C  C70  1  0.08430745  0.47486697  0.98403077  1  0  -0.236794  0  3.690256  0  0  -0.278506  0  3.944317  0  0  -0.283858  0  3.953222  0  0  -0.166084  -0.274857  0  3.938173  0
C  C71  1  0.91569300  0.52513354  0.01597147  1  0  -0.236682  0  3.690188  0  0  -0.278398  0  3.944208  0  0  -0.283756  0  3.95312  0  0  -0.166068  -0.274746  0  3.938061  0
N  N72  1  0.28881419  0.28692734  0.51486969  1  0  -0.337835  0  3.288805  0  0  -0.256612  0  3.555608  0  0  -0.277066  0  3.572766  0  0  -0.330346  -0.243041  0  3.544204  0
N  N73  1  0.71118415  0.71307317  0.48512943  1  0  -0.337805  0  3.288837  0  0  -0.256566  0  3.555636  0  0  -0.277021  0  3.572798  0  0  -0.330363  -0.242994  0  3.544232  0
N  N74  1  0.36706456  0.76258826  0.88003491  1  0  -0.353688  0  3.329655  0  0  -0.263681  0  3.60821  0  0  -0.285092  0  3.623922  0  0  -0.340218  -0.249207  0  3.597421  0
N  N75  1  0.63293836  0.23741115  0.11996375  1  0  -0.353724  0  3.329754  0  0  -0.263728  0  3.608318  0  0  -0.285143  0  3.624031  0  0  -0.340217  -0.249254  0  3.597531  0
N  N76  1  0.10854450  0.26204484  0.78006311  1  0  0.685887  0  4.111927  0  0  0.714547  0  4.408767  0  0  0.742517  0  4.416369  0  0  0.097531  0.706703  0  4.387432  0
N  N77  1  0.89145489  0.73795567  0.21993673  1  0  0.686001  0  4.111722  0  0  0.714608  0  4.408619  0  0  0.742576  0  4.41622  0  0  0.097591  0.706812  0  4.387228  0
O  O78  1  0.50943388  0.33546047  0.65063954  1  0  -0.6464  0  2.065492  0  0  -0.567289  0  2.328994  0  0  -0.596471  0  2.314669  0  0  -0.313811  -0.546181  0  2.338183  0
O  O79  1  0.49056616  0.66454115  0.34935840  1  0  -0.646359  0  2.065459  0  0  -0.567297  0  2.32902  0  0  -0.596479  0  2.314696  0  0  -0.313838  -0.546189  0  2.33821  0
O  O80  1  0.56251234  0.51735947  0.71818721  1  0  -0.636128  0  2.045215  0  0  -0.565354  0  2.314944  0  0  -0.593935  0  2.300906  0  0  -0.319519  -0.545495  0  2.324067  0
O  O81  1  0.43748809  0.48264105  0.28181081  1  0  -0.636059  0  2.045206  0  0  -0.565258  0  2.314916  0  0  -0.593852  0  2.3009  0  0  -0.319421  -0.5454  0  2.32404  0
O  O82  1  0.79272330  0.40751485  0.43616439  1  0  -0.649804  0  2.099088  0  0  -0.577737  0  2.37179  0  0  -0.606462  0  2.357635  0  0  -0.311813  -0.557902  0  2.381056  0
O  O83  1  0.20727609  0.59248566  0.56383545  1  0  -0.649775  0  2.099092  0  0  -0.577716  0  2.371787  0  0  -0.606442  0  2.357634  0  0  -0.311803  -0.557879  0  2.381053  0
O  O84  1  0.72671862  0.22490345  0.38430766  1  0  -0.635052  0  2.038769  0  0  -0.562568  0  2.309544  0  0  -0.590016  0  2.291866  0  0  -0.319645  -0.543369  0  2.320465  0
O  O85  1  0.27327933  0.77509817  0.61569225  1  0  -0.635063  0  2.038781  0  0  -0.562587  0  2.309547  0  0  -0.590038  0  2.291877  0  0  -0.319662  -0.543388  0  2.320467  0
O  O86  1  0.26243407  0.49986701  0.82498728  1  0  -0.732008  0  2.142132  0  0  -0.64541  0  2.434293  0  0  -0.675701  0  2.415961  0  0  -0.346387  -0.623746  0  2.445886  0
O  O87  1  0.73756611  0.50013128  0.17501355  1  0  -0.732018  0  2.14213  0  0  -0.64543  0  2.434289  0  0  -0.675723  0  2.415958  0  0  -0.346378  -0.623769  0  2.445887  0
O  O88  1  0.05971054  0.70144245  0.86273483  1  0  -0.592197  0  1.903162  0  0  -0.546745  0  2.127133  0  0  -0.568383  0  2.118352  0  0  -0.305959  -0.531562  0  2.133005  0
O  O89  1  0.94029135  0.29855695  0.13726736  1  0  -0.59214  0  1.90324  0  0  -0.546702  0  2.127184  0  0  -0.568338  0  2.1184  0  0  -0.305927  -0.531519  0  2.133056  0
O  O90  1  0.25225467  0.20084810  0.77232786  1  0  -0.494818  0  1.791466  0  0  -0.47822  0  2.032794  0  0  -0.496768  0  2.025458  0  0  -0.195299  -0.468213  0  2.033409  0
O  O91  1  0.74774473  0.79915241  0.22767198  1  0  -0.494881  0  1.791436  0  0  -0.47827  0  2.03278  0  0  -0.496812  0  2.025439  0  0  -0.195317  -0.468278  0  2.033378  0
O  O92  1  0.05724377  0.39132760  0.72630667  1  0  -0.482815  0  1.791552  0  0  -0.454488  0  2.020946  0  0  -0.47465  0  2.014798  0  0  -0.187099  -0.443333  0  2.020159  0
O  O93  1  0.94275562  0.60867291  0.27369316  1  0  -0.482882  0  1.791564  0  0  -0.454537  0  2.020968  0  0  -0.474708  0  2.014827  0  0  -0.187116  -0.443399  0  2.020165  0
O  O94  1  0.02417345  0.20123713  0.83692556  1  0  -0.386923  0  1.742281  0  0  -0.380473  0  1.938547  0  0  -0.392179  0  1.934563  0  0  -0.146093  -0.375697  0  1.937148  0
O  O95  1  0.97582527  0.79876227  0.16307363  1  0  -0.386924  0  1.742145  0  0  -0.380445  0  1.938425  0  0  -0.392149  0  1.934442  0  0  -0.14612  -0.375686  0  1.937009  0
