# generated using pymatgen
data_CuH13C20(N3O2)2
_symmetry_space_group_name_H-M   'P 1'
_cell_length_a   10.20088326
_cell_length_b   9.89525937
_cell_length_c   10.76550595
_cell_angle_alpha   79.88390556
_cell_angle_beta   66.50715037
_cell_angle_gamma   60.58282202
_symmetry_Int_Tables_number   1
_chemical_formula_structural   CuH13C20(N3O2)2
_chemical_formula_sum   'Cu2 H26 C40 N12 O8'
_cell_volume   867.82845592
_cell_formula_units_Z   2
loop_
 _symmetry_equiv_pos_site_id
 _symmetry_equiv_pos_as_xyz
  1  'x, y, z'
loop_
 _atom_site_type_symbol
 _atom_site_label
 _atom_site_symmetry_multiplicity
 _atom_site_fract_x
 _atom_site_fract_y
 _atom_site_fract_z
 _atom_site_occupancy
 _atom_site_pbe_cm5_charge
 _atom_site_pbe_ddec_charge
 _atom_site_pbe_ddec_spin_density
 _atom_site_pbe_ddec_sum_bond_order
 _atom_site_pbe_magmom
Cu  Cu0  1  0.95653322  0.90867350  0.71883582  1  0.742118  0.766911  0.753534  2.246931  0.576
Cu  Cu1  1  0.04316640  0.09152890  0.28103158  1  0.741995  0.766391  -0.753503  2.247963  -0.576
H  H2  1  0.88481823  0.22545555  0.84556160  1  0.135161  0.10913  0.000428  1.067436  0.0
H  H3  1  0.11498826  0.77456679  0.15441177  1  0.135103  0.109072  -0.000428  1.067144  0.0
H  H4  1  0.60370644  0.00399047  0.90835545  1  0.12171  0.11847  0.000424  1.011143  0.001
H  H5  1  0.39588838  0.99622836  0.09172973  1  0.121501  0.118412  -0.000425  1.010888  -0.001
H  H6  1  0.44265277  0.22648659  0.11410896  1  0.121205  0.125846  0.000454  1.082339  0.001
H  H7  1  0.55715720  0.77359244  0.88603057  1  0.121469  0.126268  -0.000454  1.082279  -0.001
H  H8  1  0.83483084  0.63205861  0.86099948  1  0.13082  0.102732  6.5e-05  1.05613  0.0
H  H9  1  0.16474846  0.36814028  0.13893917  1  0.130966  0.103076  -6.5e-05  1.05515  0.0
H  H10  1  0.93200653  0.87668481  0.06469517  1  0.115706  0.111203  2.7e-05  1.010754  0.0
H  H11  1  0.06821537  0.12327276  0.93481343  1  0.115726  0.111239  -2.7e-05  1.011014  0.0
H  H12  1  0.76825015  0.73202799  0.25610643  1  0.121489  0.124164  4.2e-05  1.039307  0.0
H  H13  1  0.23240921  0.26770429  0.74362955  1  0.121689  0.124629  -4.2e-05  1.038944  0.0
H  H14  1  0.25999417  0.82758167  0.44394964  1  0.133757  0.109303  3.8e-05  1.056181  0.001
H  H15  1  0.73877961  0.17305403  0.55504403  1  0.134169  0.109684  -3.6e-05  1.055768  -0.001
H  H16  1  0.04016043  0.55426039  0.68124349  1  0.119973  0.113997  0.000412  1.027119  0.001
H  H17  1  0.96115676  0.44513906  0.31983516  1  0.120403  0.114478  -0.000412  1.027086  -0.001
H  H18  1  0.29895279  0.37623614  0.46156141  1  0.122595  0.126588  0.000509  1.046638  0.001
H  H19  1  0.70276366  0.62294699  0.53970086  1  0.122818  0.12718  -0.000508  1.046262  -0.001
H  H20  1  0.82146967  0.41930046  0.95197193  1  0.114144  0.126977  1.9e-05  1.032858  0.0
H  H21  1  0.17840149  0.58070257  0.04804613  1  0.114348  0.12752  -1.9e-05  1.032355  0.0
H  H22  1  0.53076478  0.70825944  0.31403477  1  0.116077  0.135329  9e-06  1.005724  0.0
H  H23  1  0.46950560  0.29153529  0.68607286  1  0.11599  0.135119  -9e-06  1.006327  0.0
H  H24  1  0.40917958  0.37327067  0.24691068  1  0.114074  0.138179  7.2e-05  1.058852  0.0
H  H25  1  0.59080037  0.62677431  0.75328202  1  0.114008  0.138107  -7.2e-05  1.058965  0.0
H  H26  1  0.41653730  0.91566988  0.73681815  1  0.097297  0.10099  6.7e-05  1.047065  0.0
H  H27  1  0.58328109  0.08442185  0.26307950  1  0.097415  0.10116  -6.7e-05  1.047056  0.0
C  C28  1  0.78851302  0.19361133  0.89498681  1  0.146411  0.104042  0.000394  3.860263  0.0
C  C29  1  0.21129176  0.80641606  0.10501899  1  0.14618  0.1038  -0.000402  3.859939  0.0
C  C30  1  0.63764233  0.08327795  0.92848279  1  -0.004965  -0.028858  0.001102  3.996484  0.001
C  C31  1  0.36207439  0.91683072  0.07161190  1  -0.004463  -0.027613  -0.0011  3.995822  -0.001
C  C32  1  0.55714871  0.19291806  0.02975933  1  -0.004344  -0.112215  0.002166  3.911146  0.002
C  C33  1  0.44265651  0.80715811  0.97035171  1  -0.004667  -0.113668  -0.002166  3.912558  -0.002
C  C34  1  0.84901852  0.67150884  0.94036126  1  0.131715  0.086447  -9.3e-05  3.931925  0.0
C  C35  1  0.15082863  0.32855164  0.05948560  1  0.131681  0.086416  9.7e-05  3.9306  0.0
C  C36  1  0.89127346  0.80015084  0.04996187  1  -0.007273  -0.028534  0.000161  4.02006  0.0
C  C37  1  0.10887516  0.19980162  0.94969735  1  -0.006864  -0.027988  -0.000165  4.02013  0.0
C  C38  1  0.80658330  0.73226747  0.14681730  1  -0.003094  -0.108743  0.000152  3.906889  0.0
C  C39  1  0.19376403  0.26756038  0.85293923  1  -0.003598  -0.110094  -0.000153  3.907719  0.0
C  C40  1  0.23867868  0.72819546  0.48270045  1  0.149762  0.113764  -0.001323  3.841112  -0.001
C  C41  1  0.76078494  0.27215873  0.51684456  1  0.149206  0.113078  0.001315  3.842382  0.001
C  C42  1  0.12697064  0.58347933  0.60126322  1  0.00586  -0.009992  0.001792  3.970055  0.002
C  C43  1  0.87372079  0.41627580  0.39929559  1  0.005419  -0.010636  -0.001796  3.971788  -0.002
C  C44  1  0.25472657  0.49384174  0.49268997  1  0.00401  -0.088319  0.002664  3.878953  0.003
C  C45  1  0.74619123  0.50576632  0.50803712  1  0.004095  -0.088626  -0.002664  3.877628  -0.003
C  C46  1  0.62011900  0.38210132  0.09026091  1  0.10592  0.22076  0.00084  4.0072  0.001
C  C47  1  0.37986075  0.61783466  0.90981186  1  0.10604  0.220931  -0.000843  4.006298  -0.001
C  C48  1  0.71847711  0.45400799  0.04684001  1  -0.093001  -0.262054  -0.000286  3.935601  0.0
C  C49  1  0.28145332  0.54597625  0.95319865  1  -0.093124  -0.262886  0.000294  3.935128  0.0
C  C50  1  0.68491002  0.57126951  0.12753246  1  0.103558  0.209961  0.000129  4.037052  0.0
C  C51  1  0.31518994  0.42865953  0.87246782  1  0.103551  0.210447  -0.00013  4.036863  0.0
C  C52  1  0.55662309  0.61594258  0.25225371  1  -0.089425  -0.259391  -0.000258  3.924302  0.0
C  C53  1  0.44357481  0.38393422  0.74781335  1  -0.089402  -0.259853  0.000264  3.924715  0.0
C  C54  1  0.45942618  0.54238710  0.29335660  1  0.108727  0.224244  0.000814  3.995943  0.001
C  C55  1  0.54069990  0.45756996  0.70669684  1  0.108634  0.224066  -0.000814  3.995329  -0.001
C  C56  1  0.48897702  0.42643626  0.21310898  1  -0.092766  -0.262916  0.000196  3.894101  0.0
C  C57  1  0.51107426  0.57352048  0.78698997  1  -0.092871  -0.263022  -0.000191  3.893492  0.0
C  C58  1  0.72521695  0.86276203  0.64157895  1  0.210095  0.589  0.000961  4.209232  -0.002
C  C59  1  0.27459032  0.13740958  0.35833646  1  0.210209  0.588864  -0.000969  4.209461  0.002
C  C60  1  0.61176923  0.93024061  0.56512405  1  -0.016947  -0.056792  0.004092  3.966102  0.005
C  C61  1  0.38804027  0.06984934  0.43479761  1  -0.01679  -0.056466  -0.004087  3.966273  -0.005
C  C62  1  0.65954477  0.97837796  0.43068924  1  -0.014138  -0.03535  -0.006086  3.940286  -0.007
C  C63  1  0.34027529  0.02167194  0.56920451  1  -0.013789  -0.034736  0.00608  3.94077  0.007
C  C64  1  0.83417469  0.94243134  0.35293696  1  0.197224  0.568563  -0.002956  4.236926  -0.001
C  C65  1  0.16564092  0.05755519  0.64692667  1  0.197364  0.568147  0.002946  4.236887  0.001
C  C66  1  0.45363584  0.95134072  0.63225137  1  -0.09315  -0.143314  0.001196  3.989248  0.001
C  C67  1  0.54616217  0.04874268  0.36764856  1  -0.093352  -0.143993  -0.001192  3.988443  -0.001
N  N68  1  0.78152973  0.08417631  0.84623229  1  -0.373879  -0.276005  0.05059  3.655112  0.063
N  N69  1  0.21817317  0.91591427  0.15378559  1  -0.373828  -0.275838  -0.050604  3.65555  -0.063
N  N70  1  0.65389296  0.26281963  0.00815472  1  -0.21959  0.014477  0.001529  3.74812  0.002
N  N71  1  0.34598650  0.73717872  0.99191573  1  -0.219656  0.01457  -0.001529  3.748355  -0.002
N  N72  1  0.91734266  0.76116069  0.92172707  1  -0.346057  -0.321569  0.005183  3.457242  0.007
N  N73  1  0.08251698  0.23891109  0.07798809  1  -0.346359  -0.321636  -0.005212  3.456608  -0.007
N  N74  1  0.77943759  0.65008601  0.07587285  1  -0.228325  0.002044  0.000338  3.77559  0.0
N  N75  1  0.22069966  0.34981941  0.92400174  1  -0.22839  0.001822  -0.000339  3.77554  0.0
N  N76  1  0.11882901  0.72822718  0.59395533  1  -0.366079  -0.259587  0.054371  3.619043  0.068
N  N77  1  0.88098001  0.27200033  0.40586128  1  -0.366219  -0.259698  -0.05433  3.621466  -0.068
N  N78  1  0.32555020  0.58636248  0.41781168  1  -0.220559  0.009001  0.001681  3.759577  0.002
N  N79  1  0.67456973  0.41364308  0.58225845  1  -0.220717  0.009753  -0.001683  3.758316  -0.002
O  O80  1  0.78980446  0.94704429  0.64000729  1  -0.314943  -0.548716  0.065977  2.386923  0.092
O  O81  1  0.20991941  0.05321637  0.35986503  1  -0.314951  -0.54895  -0.065988  2.387404  -0.092
O  O82  1  0.74114085  0.73950770  0.70460433  1  -0.313333  -0.54707  0.000421  2.195403  0.001
O  O83  1  0.25874261  0.26064579  0.29530765  1  -0.313634  -0.547092  -0.000413  2.195641  -0.001
O  O84  1  0.93998901  0.80470392  0.34915254  1  -0.324485  -0.533853  -0.003797  2.097244  -0.005
O  O85  1  0.05975584  0.19522847  0.65066805  1  -0.324739  -0.533814  0.003783  2.098061  0.005
O  O86  1  0.85491043  0.06046743  0.29516768  1  -0.342667  -0.568031  -0.061007  2.290443  -0.084
O  O87  1  0.14494640  0.93951479  0.70474070  1  -0.342956  -0.568437  0.061017  2.289662  0.084
