# generated using pymatgen
data_CdH11C17N3O4
_symmetry_space_group_name_H-M   'P 1'
_cell_length_a   7.10039923
_cell_length_b   12.18562792
_cell_length_c   17.73300000
_cell_angle_alpha   90.00000000
_cell_angle_beta   90.00000000
_cell_angle_gamma   97.61978469
_symmetry_Int_Tables_number   1
_chemical_formula_structural   CdH11C17N3O4
_chemical_formula_sum   'Cd4 H44 C68 N12 O16'
_cell_volume   1520.76098283
_cell_formula_units_Z   4
loop_
 _symmetry_equiv_pos_site_id
 _symmetry_equiv_pos_as_xyz
  1  'x, y, z'
loop_
 _atom_site_type_symbol
 _atom_site_label
 _atom_site_symmetry_multiplicity
 _atom_site_fract_x
 _atom_site_fract_y
 _atom_site_fract_z
 _atom_site_occupancy
 _atom_site_hle17_bader_spin_density
 _atom_site_hle17_ddec_charge
 _atom_site_hle17_ddec_spin_density
 _atom_site_hle17_ddec_sum_bond_order
 _atom_site_hle17_magmom
 _atom_site_hse06_10hf_bader_spin_density
 _atom_site_hse06_10hf_ddec_charge
 _atom_site_hse06_10hf_ddec_spin_density
 _atom_site_hse06_10hf_ddec_sum_bond_order
 _atom_site_hse06_10hf_magmom
 _atom_site_hse06_bader_spin_density
 _atom_site_hse06_ddec_charge
 _atom_site_hse06_ddec_spin_density
 _atom_site_hse06_ddec_sum_bond_order
 _atom_site_hse06_magmom
 _atom_site_pbe_bader_charge
 _atom_site_pbe_bader_spin_density
 _atom_site_pbe_cm5_charge
 _atom_site_pbe_ddec_charge
 _atom_site_pbe_ddec_spin_density
 _atom_site_pbe_ddec_sum_bond_order
 _atom_site_pbe_magmom
Cd  Cd0  1  0.72458348  0.84050238  0.89778943  1  0  1.05892  0  1.721677  0  0  0.848888  0  2.170671  0  0  0.907311  0  2.12089  0  1.226445  0  0.781066  0.807507  0  2.204632  0
Cd  Cd1  1  0.77541221  0.65949847  0.39778492  1  0  1.058895  0  1.721747  0  0  0.848839  0  2.170743  0  0  0.907271  0  2.120949  0  1.226457  0  0.781012  0.807454  0  2.204711  0
Cd  Cd2  1  0.27540673  0.15949874  0.10221170  1  0  1.058942  0  1.721755  0  0  0.848922  0  2.17072  0  0  0.907349  0  2.120929  0  1.226426  0  0.781033  0.807539  0  2.204688  0
Cd  Cd3  1  0.22459490  0.34050265  0.60221170  1  0  1.058863  0  1.721843  0  0  0.848829  0  2.170785  0  0  0.907259  0  2.120991  0  1.22638  0  0.781002  0.807442  0  2.204756  0
H  H4  1  0.49269199  0.64137961  0.79968308  1  0  0.085262  0  0.94847  0  0  0.090855  0  1.020746  0  0  0.094171  0  1.017008  0  0.117677  0  0.117093  0.088399  0  1.023493  0
H  H5  1  0.00731063  0.85862123  0.29968082  1  0  0.085215  0  0.948422  0  0  0.09085  0  1.020665  0  0  0.094155  0  1.016953  0  0.117092  0  0.117086  0.088395  0  1.023412  0
H  H6  1  0.50730751  0.35861902  0.20031523  1  0  0.085269  0  0.948455  0  0  0.090891  0  1.0207  0  0  0.094204  0  1.016967  0  0.117412  0  0.117104  0.088436  0  1.023447  0
H  H7  1  0.99268624  0.14137823  0.70031523  1  0  0.085274  0  0.948534  0  0  0.0909  0  1.020763  0  0  0.094216  0  1.017044  0  0.117939  0  0.117125  0.088444  0  1.023512  0
H  H8  1  0.06971712  0.74746317  0.82202504  1  0  0.089801  0  0.976423  0  0  0.094888  0  1.045219  0  0  0.09817  0  1.042068  0  0.151092  0  0.113109  0.092484  0  1.047503  0
H  H9  1  0.43028427  0.75253850  0.32202109  1  0  0.089825  0  0.976464  0  0  0.094918  0  1.045224  0  0  0.098202  0  1.042077  0  0.15105  0  0.113129  0.092512  0  1.047513  0
H  H10  1  0.93028153  0.25253794  0.17797778  1  0  0.089815  0  0.976454  0  0  0.094902  0  1.045228  0  0  0.098186  0  1.042078  0  0.151073  0  0.113129  0.092498  0  1.047514  0
H  H11  1  0.56971297  0.24746261  0.67798173  1  0  0.089804  0  0.97635  0  0  0.094862  0  1.045168  0  0  0.098146  0  1.042016  0  0.150963  0  0.113087  0.092453  0  1.047461  0
H  H12  1  0.29910814  0.70676364  0.89875261  1  0  0.081034  0  0.970107  0  0  0.087176  0  1.03833  0  0  0.089868  0  1.035823  0  0.133465  0  0.114667  0.085121  0  1.040255  0
H  H13  1  0.20088894  0.79323141  0.39874979  1  0  0.081031  0  0.97023  0  0  0.087225  0  1.038386  0  0  0.089939  0  1.035855  0  0.133447  0  0.114687  0.085168  0  1.040314  0
H  H14  1  0.70087925  0.29323747  0.10124908  1  0  0.081046  0  0.970128  0  0  0.087218  0  1.038316  0  0  0.089884  0  1.035836  0  0.133592  0  0.11468  0.085178  0  1.040228  0
H  H15  1  0.79912080  0.20676888  0.60124796  1  0  0.081028  0  0.970146  0  0  0.087221  0  1.038313  0  0  0.089886  0  1.035833  0  0.133588  0  0.114684  0.085174  0  1.040232  0
H  H16  1  0.12522356  0.90723430  0.98206000  1  0  0.096522  0  0.936413  0  0  0.104219  0  0.998011  0  0  0.107274  0  0.995191  0  0.144464  0  0.120323  0.101923  0  1.000171  0
H  H17  1  0.37477070  0.59276074  0.48205605  1  0  0.096479  0  0.936375  0  0  0.104196  0  0.997952  0  0  0.107254  0  0.995126  0  0.144366  0  0.120293  0.101901  0  1.000112  0
H  H18  1  0.87477735  0.09276433  0.01794225  1  0  0.096529  0  0.936366  0  0  0.104242  0  0.997963  0  0  0.107299  0  0.995137  0  0.144453  0  0.120305  0.101945  0  1.000124  0
H  H19  1  0.62522317  0.40723789  0.51794564  1  0  0.096503  0  0.936271  0  0  0.10416  0  0.997936  0  0  0.107217  0  0.995113  0  0.144382  0  0.120276  0.101864  0  1.000096  0
H  H20  1  0.80362804  0.64461027  0.16619861  1  0  0.127687  0  0.9734  0  0  0.136911  0  1.033049  0  0  0.1406  0  1.031387  0  0.147584  0  0.109168  0.134234  0  1.034374  0
H  H21  1  0.69637872  0.85538974  0.66619410  1  0  0.127663  0  0.973404  0  0  0.136892  0  1.033036  0  0  0.140585  0  1.031366  0  0.147776  0  0.109159  0.134208  0  1.034386  0
H  H22  1  0.19637202  0.35539084  0.83379970  1  0  0.127651  0  0.973372  0  0  0.136875  0  1.033023  0  0  0.140565  0  1.03136  0  0.147547  0  0.109175  0.134195  0  1.03436  0
H  H23  1  0.30363477  0.14461468  0.33380139  1  0  0.127685  0  0.973445  0  0  0.136913  0  1.033082  0  0  0.140602  0  1.031421  0  0.147644  0  0.109172  0.134237  0  1.034407  0
H  H24  1  0.54073397  0.57721764  0.13829132  1  0  0.115223  0  0.987894  0  0  0.120733  0  1.054117  0  0  0.124503  0  1.052642  0  0.13709  0  0.106487  0.11797  0  1.055372  0
H  H25  1  0.95927326  0.92277823  0.63828681  1  0  0.115136  0  0.987981  0  0  0.120674  0  1.054186  0  0  0.124446  0  1.052707  0  0.137099  0  0.106489  0.11791  0  1.055442  0
H  H26  1  0.45927718  0.42278264  0.86170811  1  0  0.115242  0  0.987818  0  0  0.120755  0  1.054059  0  0  0.124527  0  1.052578  0  0.137198  0  0.106505  0.11799  0  1.055317  0
H  H27  1  0.04072464  0.07721957  0.36170981  1  0  0.115226  0  0.987822  0  0  0.120728  0  1.05406  0  0  0.124496  0  1.052588  0  0.137165  0  0.106507  0.117964  0  1.055316  0
H  H28  1  0.21843276  0.49702987  0.09621215  1  0  0.088453  0  0.951156  0  0  0.09892  0  1.013117  0  0  0.100568  0  1.013168  0  0.083761  0  0.104302  0.097755  0  1.013061  0
H  H29  1  0.28156914  0.00296654  0.59620482  1  0  0.088451  0  0.951245  0  0  0.09895  0  1.013151  0  0  0.100598  0  1.013202  0  0.083863  0  0.104334  0.097783  0  1.013098  0
H  H30  1  0.78157416  0.50297041  0.90379236  1  0  0.088417  0  0.951316  0  0  0.098943  0  1.013186  0  0  0.100591  0  1.013237  0  0.083786  0  0.10433  0.097778  0  1.013129  0
H  H31  1  0.71842773  0.99703291  0.40379293  1  0  0.088445  0  0.951295  0  0  0.098976  0  1.013154  0  0  0.100624  0  1.013204  0  0.083812  0  0.104327  0.09781  0  1.0131  0
H  H32  1  0.15027905  0.59208597  0.74048215  1  0  0.123619  0  0.962572  0  0  0.132666  0  1.022813  0  0  0.136242  0  1.021902  0  0.116293  0  0.110934  0.13008  0  1.023645  0
H  H33  1  0.34972554  0.90791736  0.24047708  1  0  0.12368  0  0.962554  0  0  0.132715  0  1.022809  0  0  0.13629  0  1.021897  0  0.116526  0  0.110999  0.13013  0  1.02364  0
H  H34  1  0.84972947  0.40791515  0.25952292  1  0  0.123657  0  0.962618  0  0  0.132704  0  1.02286  0  0  0.136274  0  1.021947  0  0.116342  0  0.111009  0.130119  0  1.023696  0
H  H35  1  0.65026626  0.09208458  0.75952518  1  0  0.12374  0  0.962659  0  0  0.132757  0  1.022923  0  0  0.136332  0  1.022003  0  0.116411  0  0.111017  0.130163  0  1.023777  0
H  H36  1  0.13117326  0.72801960  0.19287825  1  0  0.107013  0  0.971413  0  0  0.115699  0  1.032869  0  0  0.11893  0  1.030598  0  0.127641  0  0.105343  0.113328  0  1.0345  0
H  H37  1  0.36883377  0.77198208  0.69287825  1  0  0.106999  0  0.9713  0  0  0.115696  0  1.032761  0  0  0.118928  0  1.030492  0  0.127777  0  0.105309  0.11333  0  1.034378  0
H  H38  1  0.86882296  0.27198317  0.80711893  1  0  0.107008  0  0.971417  0  0  0.115729  0  1.032837  0  0  0.118958  0  1.030563  0  0.127612  0  0.105373  0.11335  0  1.034489  0
H  H39  1  0.63117869  0.22802401  0.30712231  1  0  0.107128  0  0.971293  0  0  0.115811  0  1.032737  0  0  0.119046  0  1.030468  0  0.127921  0  0.105369  0.113433  0  1.034389  0
H  H40  1  0.09281897  0.56078284  0.97213218  1  0  0.095301  0  0.96416  0  0  0.107568  0  1.023038  0  0  0.110085  0  1.023016  0  0.065444  0  0.104579  0.105765  0  1.02321  0
H  H41  1  0.40718731  0.93921552  0.47212485  1  0  0.095302  0  0.964026  0  0  0.107575  0  1.022922  0  0  0.110092  0  1.022899  0  0.065412  0  0.104557  0.105775  0  1.023093  0
H  H42  1  0.90717866  0.43921993  0.02787458  1  0  0.095268  0  0.964092  0  0  0.107538  0  1.022982  0  0  0.110054  0  1.022962  0  0.065677  0  0.104555  0.105738  0  1.023154  0
H  H43  1  0.59281736  0.06078725  0.52787289  1  0  0.095281  0  0.964078  0  0  0.107555  0  1.022965  0  0  0.110073  0  1.022942  0  0.065481  0  0.104586  0.105755  0  1.023136  0
H  H44  1  0.29952992  0.86757882  0.09961879  1  0  0.11762  0  0.967633  0  0  0.125044  0  1.029382  0  0  0.128795  0  1.027827  0  0.115621  0  0.106361  0.122296  0  1.030687  0
H  H45  1  0.20047617  0.63241871  0.59961879  1  0  0.117645  0  0.967645  0  0  0.125069  0  1.02939  0  0  0.128819  0  1.027828  0  0.115705  0  0.106366  0.122322  0  1.030698  0
H  H46  1  0.70046995  0.13242147  0.90038121  1  0  0.117597  0  0.967641  0  0  0.125013  0  1.029396  0  0  0.128765  0  1.02784  0  0.11564  0  0.106346  0.122266  0  1.030699  0
H  H47  1  0.79953291  0.36758489  0.40038347  1  0  0.117606  0  0.96764  0  0  0.125035  0  1.029378  0  0  0.128784  0  1.02782  0  0.115635  0  0.106354  0.122289  0  1.030682  0
C  C48  1  0.63728083  0.62836342  0.78541702  1  0  0.113497  0  3.703314  0  0  0.072171  0  3.960738  0  0  0.080911  0  3.977137  0  0.49748  0  0.049084  0.066534  0  3.94972  0
C  C49  1  0.86271852  0.87163495  0.28541251  1  0  0.113642  0  3.703605  0  0  0.072266  0  3.96105  0  0  0.081012  0  3.977443  0  0.500766  0  0.049145  0.066632  0  3.950038  0
C  C50  1  0.36271689  0.37163356  0.21458467  1  0  0.113637  0  3.703519  0  0  0.072292  0  3.960925  0  0  0.081037  0  3.977325  0  0.498459  0  0.049175  0.066652  0  3.949906  0
C  C51  1  0.13727394  0.12836369  0.71458411  1  0  0.113493  0  3.703541  0  0  0.072128  0  3.960982  0  0  0.080863  0  3.977371  0  0.499636  0  0.049075  0.066469  0  3.949961  0
C  C52  1  0.59250455  0.68173058  0.03905318  1  0  0.183094  0  3.750357  0  0  0.180031  0  3.988043  0  0  0.187352  0  4.008238  0  0.512701  0  0.123033  0.175141  0  3.974234  0
C  C53  1  0.90749987  0.81826530  0.53905092  1  0  0.183265  0  3.750391  0  0  0.180156  0  3.988146  0  0  0.187476  0  4.008341  0  0.512874  0  0.123043  0.175267  0  3.974341  0
C  C54  1  0.40749430  0.31827137  0.96094457  1  0  0.183046  0  3.75038  0  0  0.179972  0  3.988115  0  0  0.187292  0  4.008313  0  0.512668  0  0.123015  0.175084  0  3.974306  0
C  C55  1  0.09250527  0.18173333  0.46094457  1  0  0.183184  0  3.750474  0  0  0.180145  0  3.988173  0  0  0.187466  0  4.008368  0  0.512599  0  0.123058  0.175254  0  3.974364  0
C  C56  1  0.85660640  0.52896307  0.71907743  1  0  0.017472  0  3.652545  0  0  0.024615  0  3.887568  0  0  0.027288  0  3.902517  0  0.023614  0  0.018037  0.022687  0  3.877984  0
C  C57  1  0.64340055  0.97103777  0.21907122  1  0  0.017449  0  3.652547  0  0  0.024621  0  3.887536  0  0  0.027269  0  3.902517  0  0.024049  0  0.017967  0.022721  0  3.877922  0
C  C58  1  0.14339714  0.47103473  0.28092652  1  0  0.017568  0  3.652427  0  0  0.024755  0  3.887407  0  0  0.027402  0  3.90239  0  0.02384  0  0.01803  0.022874  0  3.877755  0
C  C59  1  0.35658928  0.02896169  0.78092878  1  0  0.01735  0  3.652473  0  0  0.024554  0  3.887449  0  0  0.027202  0  3.902433  0  0.023882  0  0.017913  0.022696  0  3.877738  0
C  C60  1  0.66825291  0.54275506  0.73633959  1  0  -0.114703  0  3.703759  0  0  -0.095887  0  3.937724  0  0  -0.106012  0  3.958025  0  -0.031327  0  -0.006693  -0.089754  0  3.924697  0
C  C61  1  0.83175131  0.95723999  0.23633395  1  0  -0.114924  0  3.704159  0  0  -0.096093  0  3.938105  0  0  -0.10621  0  3.958407  0  -0.0339  0  -0.006779  -0.08998  0  3.925093  0
C  C62  1  0.33174987  0.45723943  0.26366323  1  0  -0.114978  0  3.704238  0  0  -0.096164  0  3.938185  0  0  -0.106284  0  3.958492  0  -0.031949  0  -0.006808  -0.090034  0  3.925136  0
C  C63  1  0.16824077  0.04275699  0.76366266  1  0  -0.114747  0  3.703771  0  0  -0.095914  0  3.937704  0  0  -0.106032  0  3.958014  0  -0.033718  0  -0.006738  -0.089747  0  3.924585  0
C  C64  1  0.95876774  0.68659809  0.79851463  1  0  0.116846  0  3.706237  0  0  0.084884  0  3.959841  0  0  0.093386  0  3.975335  0  0.421557  0  0.038244  0.079017  0  3.949949  0
C  C65  1  0.54123357  0.81340275  0.29850843  1  0  0.116901  0  3.706393  0  0  0.084964  0  3.959992  0  0  0.093462  0  3.97549  0  0.421806  0  0.038242  0.079106  0  3.950081  0
C  C66  1  0.04123335  0.31340136  0.20148875  1  0  0.116966  0  3.706308  0  0  0.085027  0  3.959912  0  0  0.093527  0  3.975407  0  0.421719  0  0.038274  0.079166  0  3.950007  0
C  C67  1  0.45875945  0.18659836  0.70149383  1  0  0.116948  0  3.706255  0  0  0.085033  0  3.95984  0  0  0.093532  0  3.975336  0  0.42202  0  0.038287  0.079189  0  3.949907  0
C  C68  1  0.78923136  0.73072120  0.05926690  1  0  0.168462  0  3.765642  0  0  0.163927  0  4.006209  0  0  0.170011  0  4.027747  0  0.461277  0  0.114457  0.159915  0  3.991433  0
C  C69  1  0.71077446  0.76927468  0.55926239  1  0  0.168226  0  3.765802  0  0  0.163739  0  4.006326  0  0  0.169822  0  4.027871  0  0.461131  0  0.114419  0.159731  0  3.991548  0
C  C70  1  0.21076588  0.26927992  0.94073140  1  0  0.168545  0  3.765668  0  0  0.164013  0  4.006231  0  0  0.170098  0  4.027772  0  0.461341  0  0.114546  0.160004  0  3.991454  0
C  C71  1  0.28923331  0.23072312  0.44073253  1  0  0.168423  0  3.76558  0  0  0.163827  0  4.006225  0  0  0.169913  0  4.027762  0  0.461251  0  0.11445  0.159818  0  3.991449  0
C  C72  1  0.34670379  0.67304538  0.95139458  1  0  0.12839  0  3.728629  0  0  0.098312  0  3.982242  0  0  0.104435  0  4.001444  0  0.503261  0  0.047278  0.094393  0  3.969136  0
C  C73  1  0.15329573  0.82694801  0.45139063  1  0  0.128504  0  3.728663  0  0  0.098407  0  3.982256  0  0  0.104515  0  4.001446  0  0.503267  0  0.047329  0.094487  0  3.969154  0
C  C74  1  0.65328942  0.32695656  0.04860712  1  0  0.128442  0  3.728453  0  0  0.098361  0  3.982055  0  0  0.104504  0  4.001264  0  0.503045  0  0.047328  0.094429  0  3.968945  0
C  C75  1  0.84671044  0.17304897  0.54860712  1  0  0.128427  0  3.728349  0  0  0.098329  0  3.981974  0  0  0.104473  0  4.001178  0  0.503178  0  0.047309  0.094399  0  3.968869  0
C  C76  1  0.05956498  0.84998571  0.02470028  1  0  0.143358  0  3.683983  0  0  0.112098  0  3.939266  0  0  0.119443  0  3.956476  0  0.453941  0  0.051655  0.107338  0  3.927511  0
C  C77  1  0.44043163  0.65001348  0.52469802  1  0  0.143457  0  3.683897  0  0  0.112172  0  3.939178  0  0  0.119517  0  3.956387  0  0.453869  0  0.051655  0.107413  0  3.927424  0
C  C78  1  0.94043105  0.15001623  0.97529860  1  0  0.143307  0  3.684083  0  0  0.112005  0  3.939406  0  0  0.119348  0  3.956622  0  0.453884  0  0.051582  0.107246  0  3.927649  0
C  C79  1  0.55956909  0.34998433  0.47530142  1  0  0.143464  0  3.683864  0  0  0.112183  0  3.939186  0  0  0.119528  0  3.956397  0  0.453898  0  0.051661  0.107424  0  3.92743  0
C  C80  1  0.87753554  0.70258332  0.12583658  1  0  -0.141629  0  3.669262  0  0  -0.159755  0  3.913869  0  0  -0.167049  0  3.935671  0  -0.033929  0  -0.080361  -0.154906  0  3.899121  0
C  C81  1  0.62247188  0.79741338  0.62583376  1  0  -0.141367  0  3.669074  0  0  -0.15949  0  3.913676  0  0  -0.166783  0  3.935481  0  -0.034127  0  -0.080253  -0.154648  0  3.898927  0
C  C82  1  0.12246472  0.29741862  0.87416230  1  0  -0.141581  0  3.669071  0  0  -0.159703  0  3.913701  0  0  -0.166998  0  3.935504  0  -0.033921  0  -0.080413  -0.154857  0  3.898955  0
C  C83  1  0.37753767  0.20258608  0.37416342  1  0  -0.141596  0  3.669125  0  0  -0.15971  0  3.913761  0  0  -0.167006  0  3.935564  0  -0.034393  0  -0.080387  -0.154863  0  3.899015  0
C  C84  1  0.48457955  0.60290230  0.08479050  1  0  -0.138835  0  3.669992  0  0  -0.154746  0  3.913359  0  0  -0.162468  0  3.934774  0  -0.029626  0  -0.07667  -0.149673  0  3.899023  0
C  C85  1  0.01542259  0.89709026  0.58478543  1  0  -0.138745  0  3.67008  0  0  -0.154723  0  3.913561  0  0  -0.162444  0  3.934972  0  -0.029532  0  -0.076685  -0.149651  0  3.899229  0
C  C86  1  0.51542615  0.39709881  0.91521175  1  0  -0.138795  0  3.669987  0  0  -0.154723  0  3.91341  0  0  -0.162446  0  3.934828  0  -0.029739  0  -0.076703  -0.149651  0  3.899074  0
C  C87  1  0.98457512  0.10290671  0.41521175  1  0  -0.138887  0  3.670174  0  0  -0.154825  0  3.913608  0  0  -0.162548  0  3.935023  0  -0.029672  0  -0.07675  -0.14975  0  3.899271  0
C  C88  1  0.30384034  0.55793966  0.06095585  1  0  -0.000817  0  3.730549  0  0  -0.020162  0  3.983876  0  0  -0.016821  0  4.003325  0  -0.055589  0  -0.067915  -0.0221  0  3.97044  0
C  C89  1  0.19615833  0.94205622  0.56095190  1  0  -0.000811  0  3.73071  0  0  -0.020152  0  3.984052  0  0  -0.016811  0  4.003503  0  -0.055615  0  -0.067912  -0.022091  0  3.970619  0
C  C90  1  0.69616536  0.44206146  0.93904697  1  0  -0.000823  0  3.730645  0  0  -0.020198  0  3.983987  0  0  -0.016854  0  4.003432  0  -0.055549  0  -0.067904  -0.022136  0  3.970551  0
C  C91  1  0.80383610  0.05794490  0.43904641  1  0  -0.00083  0  3.730776  0  0  -0.020182  0  3.984077  0  0  -0.016842  0  4.00353  0  -0.055583  0  -0.067904  -0.02212  0  3.970641  0
C  C92  1  0.00285125  0.60267130  0.75145491  1  0  -0.131147  0  3.687196  0  0  -0.14833  0  3.931178  0  0  -0.154849  0  3.949609  0  -0.037701  0  -0.080555  -0.144235  0  3.919205  0
C  C93  1  0.49715700  0.89732954  0.25144871  1  0  -0.131226  0  3.68716  0  0  -0.148426  0  3.931169  0  0  -0.154936  0  3.949606  0  -0.038213  0  -0.080557  -0.14434  0  3.91919  0
C  C94  1  0.99715670  0.39732733  0.24855016  1  0  -0.131331  0  3.687232  0  0  -0.14855  0  3.931249  0  0  -0.155051  0  3.94968  0  -0.038034  0  -0.080633  -0.144472  0  3.919263  0
C  C95  1  0.50283321  0.10267157  0.74855354  1  0  -0.131344  0  3.687444  0  0  -0.148532  0  3.931435  0  0  -0.155036  0  3.949869  0  -0.037972  0  -0.080591  -0.144474  0  3.919446  0
C  C96  1  0.06303958  0.75081554  0.14101280  1  0  -0.011113  0  3.715143  0  0  -0.028548  0  3.966268  0  0  -0.026633  0  3.986392  0  -0.038228  0  -0.069831  -0.0295  0  3.952493  0
C  C97  1  0.43696435  0.74917868  0.64100942  1  0  -0.011169  0  3.715031  0  0  -0.028635  0  3.966181  0  0  -0.026725  0  3.986313  0  -0.038034  0  -0.069821  -0.029581  0  3.952404  0
C  C98  1  0.93695467  0.24918475  0.85898664  1  0  -0.011117  0  3.714907  0  0  -0.028586  0  3.966041  0  0  -0.026663  0  3.986158  0  -0.038071  0  -0.069834  -0.029541  0  3.952265  0
C  C99  1  0.56304557  0.25082243  0.35898945  1  0  -0.011331  0  3.714962  0  0  -0.028775  0  3.966089  0  0  -0.026866  0  3.986218  0  -0.03791  0  -0.069884  -0.029729  0  3.952309  0
C  C100  1  0.23365937  0.59274419  0.99280212  1  0  -0.123311  0  3.753072  0  0  -0.13796  0  4.007205  0  0  -0.144648  0  4.029396  0  -0.033025  0  -0.085935  -0.133677  0  3.992216  0
C  C101  1  0.26634250  0.90725335  0.49279817  1  0  -0.12335  0  3.7529  0  0  -0.138032  0  4.007093  0  0  -0.144722  0  4.029287  0  -0.03304  0  -0.085956  -0.133751  0  3.992107  0
C  C102  1  0.76633704  0.40725941  0.00720126  1  0  -0.123257  0  3.752928  0  0  -0.137934  0  4.007106  0  0  -0.144621  0  4.029292  0  -0.033433  0  -0.085964  -0.133653  0  3.99212  0
C  C103  1  0.73365982  0.09274528  0.50720070  1  0  -0.12322  0  3.75286  0  0  -0.137911  0  4.007058  0  0  -0.144598  0  4.029238  0  -0.033099  0  -0.085943  -0.13363  0  3.992074  0
C  C104  1  0.15603338  0.82603726  0.08987819  1  0  -0.107525  0  3.703637  0  0  -0.122522  0  3.957856  0  0  -0.129466  0  3.979429  0  -0.018938  0  -0.081802  -0.118066  0  3.9434  0
C  C105  1  0.34396905  0.67396275  0.58987425  1  0  -0.107583  0  3.703671  0  0  -0.12257  0  3.957897  0  0  -0.129509  0  3.979468  0  -0.01914  0  -0.081801  -0.118117  0  3.943443  0
C  C106  1  0.84396707  0.17396551  0.91012406  1  0  -0.107469  0  3.703665  0  0  -0.122427  0  3.957874  0  0  -0.129375  0  3.979451  0  -0.01913  0  -0.081751  -0.11797  0  3.943415  0
C  C107  1  0.65603524  0.32603836  0.41012688  1  0  -0.107493  0  3.703539  0  0  -0.122442  0  3.957696  0  0  -0.129382  0  3.979269  0  -0.019056  0  -0.081764  -0.117986  0  3.943236  0
C  C108  1  0.49670222  0.47322383  0.70342469  1  0  0.640392  0  3.957256  0  0  0.588503  0  4.255932  0  0  0.622956  0  4.249864  0  1.611214  0  0.196083  0.565243  0  4.259136  0
C  C109  1  0.00330006  0.02677424  0.20342187  1  0  0.640396  0  3.957288  0  0  0.588504  0  4.255969  0  0  0.622957  0  4.249901  0  1.611261  0  0.196058  0.565248  0  4.259172  0
C  C110  1  0.50329211  0.52677066  0.29657870  1  0  0.640495  0  3.957337  0  0  0.588613  0  4.255978  0  0  0.623067  0  4.249907  0  1.61122  0  0.196079  0.565348  0  4.259181  0
C  C111  1  0.99668996  0.97322605  0.79657418  1  0  0.640468  0  3.957095  0  0  0.588571  0  4.255777  0  0  0.623022  0  4.249709  0  1.611761  0  0.196169  0.565296  0  4.258977  0
C  C112  1  0.91577298  0.43622027  0.67183218  1  0  0.659112  0  3.918157  0  0  0.603415  0  4.22652  0  0  0.639213  0  4.214984  0  1.628125  0  0.204189  0.578894  0  4.233771  0
C  C113  1  0.58423918  0.06378360  0.17182936  1  0  0.659316  0  3.917986  0  0  0.603604  0  4.226368  0  0  0.639411  0  4.214833  0  1.627961  0  0.204353  0.579075  0  4.233618  0
C  C114  1  0.08423619  0.56377753  0.32817121  1  0  0.659084  0  3.918174  0  0  0.603351  0  4.226587  0  0  0.639159  0  4.215055  0  1.628014  0  0.20412  0.578815  0  4.233835  0
C  C115  1  0.41575967  0.93621834  0.82817290  1  0  0.658946  0  3.918272  0  0  0.603166  0  4.226775  0  0  0.638973  0  4.215247  0  1.627806  0  0.204179  0.578619  0  4.234019  0
N  N116  1  0.77776492  0.69902397  0.81568037  1  0  -0.337495  0  3.293872  0  0  -0.259774  0  3.569918  0  0  -0.279145  0  3.586182  0  -1.23728  0  -0.337056  -0.246652  0  3.558572  0
N  N117  1  0.72223940  0.80097771  0.31567642  1  0  -0.337572  0  3.294298  0  0  -0.259856  0  3.570369  0  0  -0.279226  0  3.586631  0  -1.237594  0  -0.337088  -0.246734  0  3.559025  0
N  N118  1  0.22223599  0.30097467  0.18432076  1  0  -0.337581  0  3.294036  0  0  -0.25987  0  3.570091  0  0  -0.279241  0  3.586355  0  -1.237606  0  -0.337111  -0.246748  0  3.558749  0
N  N119  1  0.27775926  0.19902341  0.68432189  1  0  -0.337463  0  3.294107  0  0  -0.259739  0  3.570154  0  0  -0.27911  0  3.586421  0  -1.237588  0  -0.337029  -0.246623  0  3.558821  0
N  N120  1  0.88154889  0.80350958  0.00982237  1  0  -0.365717  0  3.243704  0  0  -0.291347  0  3.504446  0  0  -0.311184  0  3.522284  0  -1.231805  0  -0.328245  -0.277737  0  3.491953  0
N  N121  1  0.61844604  0.69648796  0.50982011  1  0  -0.365721  0  3.243813  0  0  -0.291345  0  3.504539  0  0  -0.311182  0  3.52238  0  -1.231888  0  -0.328209  -0.277736  0  3.492045  0
N  N122  1  0.11844939  0.19648988  0.99017538  1  0  -0.36577  0  3.243775  0  0  -0.291395  0  3.504539  0  0  -0.311233  0  3.522382  0  -1.23169  0  -0.328228  -0.277786  0  3.492046  0
N  N123  1  0.38155205  0.30351068  0.49017876  1  0  -0.365703  0  3.243667  0  0  -0.291285  0  3.504416  0  0  -0.311122  0  3.522257  0  -1.231725  0  -0.328182  -0.277675  0  3.491923  0
N  N124  1  0.52123158  0.71549934  0.97382958  1  0  -0.358414  0  3.248452  0  0  -0.287509  0  3.508059  0  0  -0.307079  0  3.526441  0  -1.247277  0  -0.324025  -0.274083  0  3.495221  0
N  N125  1  0.97877142  0.78449654  0.47382733  1  0  -0.358601  0  3.248459  0  0  -0.287705  0  3.508132  0  0  -0.307273  0  3.526517  0  -1.247368  0  -0.324119  -0.27427  0  3.495278  0
N  N126  1  0.47876125  0.28450095  0.02616985  1  0  -0.358492  0  3.248316  0  0  -0.287609  0  3.507987  0  0  -0.307177  0  3.526358  0  -1.247023  0  -0.324059  -0.274183  0  3.495152  0
N  N127  1  0.02123371  0.21550209  0.52616985  1  0  -0.358502  0  3.248336  0  0  -0.287622  0  3.507991  0  0  -0.307187  0  3.526357  0  -1.247209  0  -0.324055  -0.274194  0  3.495158  0
O  O128  1  0.51252608  0.43955360  0.63555687  1  0  -0.639686  0  2.006087  0  0  -0.572064  0  2.255714  0  0  -0.603114  0  2.247576  0  -1.16131  0  -0.32783  -0.550133  0  2.260446  0
O  O129  1  0.98748092  0.06044613  0.13555405  1  0  -0.639694  0  2.006091  0  0  -0.572077  0  2.255711  0  0  -0.603129  0  2.247574  0  -1.161123  0  -0.327874  -0.550143  0  2.260439  0
O  O130  1  0.48746901  0.56044421  0.36444538  1  0  -0.639677  0  2.006144  0  0  -0.572074  0  2.255788  0  0  -0.603126  0  2.247651  0  -1.161101  0  -0.32782  -0.550141  0  2.260519  0
O  O131  1  0.01250525  0.93955581  0.86444200  1  0  -0.639626  0  2.006088  0  0  -0.572052  0  2.255802  0  0  -0.603104  0  2.247666  0  -1.161618  0  -0.32784  -0.55012  0  2.260535  0
O  O132  1  0.34927334  0.45544692  0.74351322  1  0  -0.633948  0  1.939919  0  0  -0.583176  0  2.167818  0  0  -0.607801  0  2.159751  0  -1.185613  0  -0.323489  -0.565554  0  2.172544  0
O  O133  1  0.15072453  0.04455032  0.24351040  1  0  -0.633887  0  1.939924  0  0  -0.583127  0  2.16782  0  0  -0.607745  0  2.159752  0  -1.18577  0  -0.323423  -0.565513  0  2.172569  0
O  O134  1  0.65072437  0.54455005  0.25649016  1  0  -0.633962  0  1.939809  0  0  -0.583202  0  2.167708  0  0  -0.607822  0  2.159635  0  -1.185686  0  -0.323469  -0.565591  0  2.172471  0
O  O135  1  0.84926671  0.95544913  0.75648396  1  0  -0.633993  0  1.939707  0  0  -0.583238  0  2.167646  0  0  -0.607869  0  2.159599  0  -1.185742  0  -0.323552  -0.565604  0  2.172362  0
O  O136  1  0.02521059  0.46788356  0.61614617  1  0  -0.631043  0  1.975005  0  0  -0.560667  0  2.220581  0  0  -0.589888  0  2.206823  0  -1.159168  0  -0.331562  -0.539855  0  2.22931  0
O  O137  1  0.47480625  0.03212280  0.11614109  1  0  -0.631166  0  1.974876  0  0  -0.560814  0  2.2205  0  0  -0.590029  0  2.206721  0  -1.159203  0  -0.331721  -0.540001  0  2.229234  0
O  O138  1  0.97479877  0.53211508  0.38385665  1  0  -0.630957  0  1.974987  0  0  -0.560596  0  2.220601  0  0  -0.589813  0  2.206833  0  -1.15914  0  -0.331521  -0.539783  0  2.229335  0
O  O139  1  0.52519053  0.96788246  0.88386060  1  0  -0.63089  0  1.975085  0  0  -0.560525  0  2.22074  0  0  -0.589732  0  2.206949  0  -1.159114  0  -0.33155  -0.539713  0  2.229476  0
O  O140  1  0.87062338  0.33805192  0.69339480  1  0  -0.621675  0  1.92905  0  0  -0.569043  0  2.156348  0  0  -0.595337  0  2.146835  0  -1.178933  0  -0.313476  -0.550054  0  2.162053  0
O  O141  1  0.62938136  0.16195030  0.19339198  1  0  -0.621731  0  1.929167  0  0  -0.569067  0  2.156466  0  0  -0.595359  0  2.146937  0  -1.179016  0  -0.313465  -0.550096  0  2.16221  0
O  O142  1  0.12937913  0.66194754  0.30660746  1  0  -0.621716  0  1.929122  0  0  -0.569037  0  2.15641  0  0  -0.595341  0  2.146907  0  -1.178861  0  -0.313453  -0.550061  0  2.162146  0
O  O143  1  0.37061833  0.83804916  0.80660971  1  0  -0.62164  0  1.929063  0  0  -0.56893  0  2.15638  0  0  -0.595221  0  2.146848  0  -1.178965  0  -0.313478  -0.54997  0  2.162145  0
