# generated using pymatgen
data_CoH11C18(NO2)2
_symmetry_space_group_name_H-M   'P 1'
_cell_length_a   7.23821413
_cell_length_b   13.04320726
_cell_length_c   17.46559995
_cell_angle_alpha   101.68789599
_cell_angle_beta   89.99475000
_cell_angle_gamma   90.00228150
_symmetry_Int_Tables_number   1
_chemical_formula_structural   CoH11C18(NO2)2
_chemical_formula_sum   'Co4 H44 C72 N8 O16'
_cell_volume   1614.72972493
_cell_formula_units_Z   4
loop_
 _symmetry_equiv_pos_site_id
 _symmetry_equiv_pos_as_xyz
  1  'x, y, z'
loop_
 _atom_site_type_symbol
 _atom_site_label
 _atom_site_symmetry_multiplicity
 _atom_site_fract_x
 _atom_site_fract_y
 _atom_site_fract_z
 _atom_site_occupancy
 _atom_site_hle17_ddec_charge
 _atom_site_hle17_ddec_spin_density
 _atom_site_hle17_ddec_sum_bond_order
 _atom_site_hle17_magmom
 _atom_site_hse06_10hf_ddec_charge
 _atom_site_hse06_10hf_ddec_spin_density
 _atom_site_hse06_10hf_ddec_sum_bond_order
 _atom_site_hse06_10hf_magmom
 _atom_site_hse06_ddec_charge
 _atom_site_hse06_ddec_spin_density
 _atom_site_hse06_ddec_sum_bond_order
 _atom_site_hse06_magmom
 _atom_site_pbe_cm5_charge
 _atom_site_pbe_ddec_charge
 _atom_site_pbe_ddec_spin_density
 _atom_site_pbe_ddec_sum_bond_order
 _atom_site_pbe_magmom
Co  Co0  1  0.55960145  0.78651638  0.59930080  1  0.931556  -2.875519  2.033096  -2.521  0.865101  -2.823028  2.49424  -2.568  0.956389  -2.870532  2.407647  -2.663  0.688279  0.797964  -2.780618  2.556423  -2.481
Co  Co1  1  0.55965598  0.21347426  0.90072218  1  0.931765  -2.876541  2.032949  -2.521  0.865304  -2.823326  2.493974  -2.569  0.956553  -2.870704  2.40738  -2.663  0.688207  0.79818  -2.781296  2.556064  -2.482
Co  Co2  1  0.44039500  0.21348436  0.40071368  1  0.931599  -2.875564  2.032958  -2.521  0.865063  -2.82319  2.49416  -2.568  0.956357  -2.870653  2.407539  -2.663  0.688184  0.797923  -2.780907  2.55634  -2.481
Co  Co3  1  0.44031007  0.78654067  0.09929003  1  0.931839  3.042123  2.031768  2.521  0.865137  2.850864  2.493456  2.568  0.956404  2.898047  2.40688  2.663  0.688047  0.797953  2.815918  2.555536  2.481
H  H4  1  0.83855857  0.62947519  0.38482864  1  0.100381  -2.6e-05  0.940732  0.0  0.111762  -2.7e-05  0.998355  0.0  0.114978  1.1e-05  0.996627  0.0  0.1051  0.109693  -6.6e-05  0.999321  0.0
H  H5  1  0.83852249  0.37051961  0.11521580  1  0.100323  -0.000187  0.940691  0.0  0.111737  -9.3e-05  0.99827  0.0  0.114947  -2.7e-05  0.996553  0.0  0.105137  0.109659  -0.000175  0.999235  0.0
H  H6  1  0.16148761  0.37051186  0.61520136  1  0.100355  -0.00014  0.940604  0.0  0.111725  -0.0001  0.998231  0.0  0.114938  -3.4e-05  0.996506  0.0  0.105071  0.109651  -0.000176  0.999196  0.0
H  H7  1  0.16141040  0.62947877  0.88479887  1  0.10039  8.4e-05  0.940764  0.0  0.111751  2.1e-05  0.99843  0.0  0.114961  -1.8e-05  0.996715  0.0  0.105121  0.109675  6.7e-05  0.999397  0.0
H  H8  1  0.03989570  0.59477874  0.26544808  1  0.096962  -3.4e-05  0.955148  0.0  0.108105  -2.5e-05  1.014813  0.0  0.1112  -2.2e-05  1.013303  0.0  0.104357  0.106031  -2.9e-05  1.015792  0.0
H  H9  1  0.03990877  0.40522973  0.23457093  1  0.097132  7.9e-05  0.954959  0.0  0.108207  3.3e-05  1.014699  0.0  0.111299  2.7e-05  1.013194  0.0  0.104366  0.106137  4.2e-05  1.015671  0.0
H  H10  1  0.96010351  0.40522518  0.73456463  1  0.09704  2e-05  0.955285  0.0  0.108158  2.5e-05  1.014959  0.0  0.111252  2.4e-05  1.013452  0.0  0.10435  0.106081  2.4e-05  1.01594  0.0
H  H11  1  0.96005866  0.59478138  0.76543608  1  0.09706  -4e-06  0.955124  0.0  0.108133  2.4e-05  1.014871  0.0  0.111227  2.3e-05  1.013362  0.0  0.104361  0.106062  3e-05  1.015843  0.0
H  H12  1  0.18045155  0.89177226  0.48292122  1  0.099985  0.000155  0.968386  0.0  0.105821  4.2e-05  1.039451  0.0  0.108861  4.3e-05  1.038384  0.0  0.103799  0.103624  5e-05  1.040284  0.0
H  H13  1  0.18041397  0.10823353  0.01707602  1  0.100052  4e-05  0.968319  0.0  0.105946  -1e-06  1.039327  0.0  0.108986  6e-06  1.038261  0.0  0.103851  0.103741  -8e-06  1.040161  0.0
H  H14  1  0.81958082  0.10823100  0.51708566  1  0.100151  0.000157  0.96829  0.0  0.105999  5.5e-05  1.039331  0.0  0.109041  5.1e-05  1.038265  0.0  0.103891  0.103793  6.6e-05  1.04017  0.0
H  H15  1  0.81954932  0.89178352  0.98291077  1  0.100041  -4.1e-05  0.968218  0.0  0.105882  3e-06  1.039311  0.0  0.108931  -6e-06  1.038228  0.0  0.103765  0.103674  1.1e-05  1.040139  0.0
H  H16  1  0.24411077  0.02217816  0.39642343  1  0.09821  -0.000904  0.98504  -0.002  0.104918  -0.000832  1.050334  -0.002  0.107659  -0.000608  1.047643  -0.001  0.11786  0.102899  -0.00108  1.05254  -0.002
H  H17  1  0.24410385  0.97784804  0.10357071  1  0.098298  0.000971  0.984978  0.002  0.104901  0.000849  1.050379  0.002  0.107639  0.00062  1.047685  0.001  0.117952  0.102878  0.001105  1.05259  0.002
H  H18  1  0.75587878  0.97782792  0.60356214  1  0.09835  -0.000881  0.984891  -0.002  0.104897  -0.000828  1.050328  -0.002  0.107639  -0.000606  1.047637  -0.001  0.117855  0.102877  -0.001074  1.052531  -0.002
H  H19  1  0.75586083  0.02217741  0.89642718  1  0.098336  -0.000889  0.984974  -0.002  0.104975  -0.00084  1.050326  -0.002  0.107716  -0.000612  1.047635  -0.001  0.117865  0.102952  -0.001091  1.052534  -0.002
H  H20  1  0.80002908  0.09063584  0.37456184  1  0.090815  -0.000604  0.975774  -0.002  0.095097  -0.000541  1.046449  -0.001  0.097994  -0.000366  1.042812  -0.001  0.116988  0.093139  -0.00074  1.049048  -0.002
H  H21  1  0.80003438  0.90938919  0.12540881  1  0.091044  0.00066  0.975379  0.002  0.095303  0.000544  1.046113  0.001  0.098202  0.000369  1.042471  0.001  0.117081  0.093348  0.000745  1.048707  0.002
H  H22  1  0.19997013  0.90935934  0.62545517  1  0.090793  -0.000601  0.975685  -0.002  0.095089  -0.000546  1.046374  -0.001  0.097986  -0.000369  1.042738  -0.001  0.117019  0.093132  -0.00075  1.048971  -0.002
H  H23  1  0.19994412  0.09062562  0.87457246  1  0.090863  -0.000598  0.975658  -0.002  0.095125  -0.000543  1.046379  -0.001  0.098022  -0.000366  1.042742  -0.001  0.116996  0.09317  -0.000743  1.048972  -0.002
H  H24  1  0.88076519  0.90191454  0.33741071  1  0.107998  -0.00022  0.948723  0.0  0.119774  -0.00028  1.002262  0.0  0.121918  -0.000193  1.003618  0.0  0.109916  0.118247  -0.000383  1.00154  0.0
H  H25  1  0.88072621  0.09811539  0.16255655  1  0.108036  0.000228  0.948751  0.0  0.119811  0.000288  1.002318  0.0  0.12195  0.000196  1.003676  0.0  0.109901  0.118297  0.000396  1.001589  0.0
H  H26  1  0.11924507  0.09808055  0.66261087  1  0.108029  -0.000229  0.948762  0.0  0.119836  -0.000277  1.002261  0.0  0.121979  -0.00019  1.003612  0.0  0.109943  0.118312  -0.000379  1.001535  0.0
H  H27  1  0.11922742  0.90189863  0.83742517  1  0.10802  -0.000223  0.948727  0.0  0.119723  -0.000282  1.002361  0.0  0.121863  -0.000192  1.003723  0.0  0.109872  0.118205  -0.000388  1.001633  0.0
H  H28  1  0.63171723  0.76713334  0.33330672  1  0.096773  -0.000319  0.9366  -0.001  0.109362  -4.6e-05  0.995539  0.0  0.111704  -2e-05  0.993476  0.0  0.109465  0.107548  -8.2e-05  0.997431  0.0
H  H29  1  0.63171761  0.23290387  0.16666827  1  0.096884  0.000386  0.936111  0.001  0.109391  7.4e-05  0.995153  0.0  0.111733  5.7e-05  0.993092  0.0  0.10954  0.107573  9.5e-05  0.997044  0.0
H  H30  1  0.36828197  0.23287183  0.66672108  1  0.096676  -0.000237  0.936428  -0.001  0.109171  -9e-06  0.995513  0.0  0.111513  2.1e-05  0.993452  0.0  0.109368  0.107365  -4.7e-05  0.997405  0.0
H  H31  1  0.36825674  0.76712025  0.83331852  1  0.096899  -0.00028  0.936542  -0.001  0.109328  -3.7e-05  0.995646  0.0  0.111669  -1.7e-05  0.993586  0.0  0.109474  0.107518  -6e-05  0.997537  0.0
H  H32  1  0.49222117  0.62543086  0.46315373  1  0.093336  -0.000606  0.940311  -0.002  0.10249  -0.000427  0.999571  -0.001  0.10572  -0.000255  0.996895  -0.001  0.121578  0.099859  -0.000626  1.001949  -0.002
H  H33  1  0.49214207  0.37456182  0.03684677  1  0.093314  -0.000653  0.940405  -0.002  0.102396  -0.000442  0.99976  -0.001  0.105632  -0.000271  0.99707  -0.001  0.121516  0.099756  -0.000639  1.002145  -0.002
H  H34  1  0.50786508  0.37453344  0.53683821  1  0.093412  -0.000606  0.940438  -0.002  0.102477  -0.00043  0.999824  -0.001  0.105707  -0.000258  0.997147  -0.001  0.12156  0.099849  -0.000631  1.002195  -0.002
H  H35  1  0.50781017  0.62543279  0.96316042  1  0.093316  0.00071  0.940367  0.002  0.102456  0.000444  0.999635  0.001  0.105683  0.000273  0.996967  0.001  0.121565  0.099818  0.000644  1.002016  0.002
H  H36  1  0.25822352  0.49178818  0.41312532  1  0.133777  -0.000189  0.987213  0.0  0.142314  -0.000225  1.047712  0.0  0.146562  -0.000139  1.045062  0.0  0.11228  0.139026  -0.000329  1.049977  0.0
H  H37  1  0.25811681  0.50819052  0.08685655  1  0.134027  -3e-06  0.986981  0.0  0.14242  -0.000176  1.047627  0.0  0.146759  -0.000124  1.044848  0.0  0.112332  0.139115  -0.000245  1.049918  0.0
H  H38  1  0.74189589  0.50815588  0.58685817  1  0.133942  -0.000189  0.98717  0.0  0.142345  -0.000229  1.047788  0.0  0.146662  -0.000142  1.045041  0.0  0.112356  0.139041  -0.000335  1.050077  0.0
H  H39  1  0.74182852  0.49180649  0.91314874  1  0.133811  2.1e-05  0.987084  0.0  0.142313  0.000174  1.047638  0.0  0.146633  0.000122  1.044884  0.0  0.112305  0.139008  0.000243  1.049932  0.0
H  H40  1  0.94658232  0.60527114  0.62593776  1  0.116724  -0.000169  0.990232  0.0  0.125105  -0.000206  1.052873  0.0  0.128556  -0.000124  1.05181  0.0  0.109638  0.122274  -0.000305  1.054338  0.0
H  H41  1  0.94656766  0.39466871  0.87405316  1  0.11667  1.9e-05  0.990163  0.0  0.125153  -0.000176  1.052702  0.0  0.128573  -0.000102  1.051668  0.0  0.109614  0.12232  -0.000267  1.054181  0.0
H  H42  1  0.05350117  0.39465177  0.37404286  1  0.116593  -0.000169  0.990048  0.0  0.125076  -0.000206  1.052557  0.0  0.128514  -0.000123  1.051502  0.0  0.109609  0.122244  -0.000304  1.054028  0.0
H  H43  1  0.05339287  0.60532693  0.12594274  1  0.116739  -2e-06  0.990314  0.0  0.12519  0.000177  1.052885  0.0  0.128622  0.000102  1.051842  0.0  0.109621  0.122352  0.000269  1.054366  0.0
H  H44  1  0.19837427  0.73184443  0.66761860  1  0.079279  -0.000938  0.921584  -0.002  0.090017  -0.00088  0.980878  -0.001  0.092017  -0.000635  0.979045  -0.001  0.120839  0.088147  -0.001147  0.983024  -0.002
H  H45  1  0.19839279  0.26811769  0.83237502  1  0.079046  -0.001012  0.921772  -0.002  0.089805  -0.000875  0.981021  -0.001  0.091801  -0.000635  0.979192  -0.001  0.120778  0.087944  -0.001134  0.983166  -0.002
H  H46  1  0.80164152  0.26811233  0.33235895  1  0.078995  -0.000957  0.921734  -0.002  0.089748  -0.000882  0.981028  -0.001  0.091748  -0.000635  0.979199  -0.001  0.120757  0.087878  -0.001153  0.983177  -0.002
H  H47  1  0.80159399  0.73189204  0.16762374  1  0.079039  0.001092  0.921614  0.002  0.089741  0.000881  0.980938  0.001  0.091737  0.000636  0.979106  0.001  0.12073  0.087875  0.001151  0.983085  0.002
C  C48  1  0.87978273  0.79013396  0.51291860  1  0.625977  0.00273  3.92621  0.006  0.582226  -0.001616  4.224065  0.0  0.618056  -0.000889  4.220754  0.0  0.20416  0.557052  -0.002387  4.224293  0.0
C  C49  1  0.87974451  0.20986134  0.98712568  1  0.626155  0.002793  3.927079  0.006  0.58276  -0.001652  4.224351  0.0  0.618593  -0.000898  4.221032  0.0  0.204214  0.557596  -0.002469  4.224583  0.0
C  C50  1  0.12026622  0.20986430  0.48710178  1  0.625354  0.002785  3.92698  0.006  0.582111  -0.001649  4.224076  0.0  0.61791  -0.000897  4.220815  0.0  0.203985  0.556943  -0.002448  4.224306  0.0
C  C51  1  0.12020911  0.79014711  0.01289521  1  0.626054  -0.002424  3.926449  -0.006  0.582499  0.001649  4.223862  0.0  0.618328  0.000905  4.220554  0.0  0.204177  0.557347  0.002455  4.224072  0.0
C  C52  1  0.99649817  0.76420075  0.44077422  1  -0.055839  -0.002548  3.776791  -0.004  -0.033789  -0.000535  4.009958  -0.001  -0.040357  -0.000206  4.03268  0.0  -0.017836  -0.029458  -0.000824  3.994448  -0.001
C  C53  1  0.99645363  0.23580798  0.05925220  1  -0.056059  -0.004356  3.777512  -0.006  -0.034057  -0.002097  4.010574  -0.003  -0.04062  -0.001365  4.03328  -0.002  -0.017864  -0.029752  -0.002944  3.995089  -0.004
C  C54  1  0.00356321  0.23579587  0.55924932  1  -0.055942  -0.003161  3.777219  -0.004  -0.034009  -0.002029  4.010248  -0.003  -0.040556  -0.001307  4.032968  -0.002  -0.017823  -0.029697  -0.002862  3.99475  -0.004
C  C55  1  0.00349032  0.76420868  0.94075285  1  -0.056509  0.003967  3.77783  0.005  -0.034137  0.00061  4.010468  0.001  -0.040693  0.000269  4.033185  0.001  -0.017731  -0.029831  0.000921  3.994966  0.001
C  C56  1  0.95631932  0.67966214  0.37968730  1  -0.07743  -6.8e-05  3.753585  0.0  -0.102134  -0.000499  4.008581  -0.001  -0.102553  -0.000407  4.028754  -0.001  -0.084387  -0.101401  -0.000639  3.994122  -0.001
C  C57  1  0.95631019  0.32035474  0.12034083  1  -0.077057  0.001692  3.752922  0.002  -0.101818  -6e-06  4.007923  0.0  -0.10224  0.000136  4.028088  0.0  -0.084347  -0.101092  -0.000141  3.993485  0.0
C  C58  1  0.04370614  0.32034163  0.62033225  1  -0.077094  -0.000289  3.753435  0.0  -0.101779  -0.000237  4.00839  0.0  -0.102196  -2e-05  4.028553  0.0  -0.084263  -0.101043  -0.000513  3.993939  -0.001
C  C59  1  0.04365587  0.67965943  0.87967012  1  -0.076891  -0.001801  3.753257  -0.002  -0.10174  0.000272  4.008179  0.0  -0.102171  0.000253  4.028353  0.0  -0.084406  -0.101013  0.000276  3.993738  0.0
C  C60  1  0.06780572  0.66048320  0.31349749  1  -0.075814  0.00064  3.744291  0.001  -0.097766  0.001112  3.995244  0.001  -0.100324  0.000807  4.016867  0.001  -0.08329  -0.095609  0.001513  3.979912  0.002
C  C61  1  0.06783712  0.33952406  0.18651913  1  -0.076124  -0.00186  3.743658  -0.003  -0.098057  -0.001079  3.994731  -0.001  -0.10062  -0.000782  4.016356  -0.001  -0.083208  -0.095895  -0.00144  3.979407  -0.002
C  C62  1  0.93219488  0.33952143  0.68651877  1  -0.075923  -0.000583  3.744138  -0.001  -0.097899  -0.001012  3.995105  -0.001  -0.100461  -0.000723  4.016721  -0.001  -0.083183  -0.095743  -0.001363  3.97978  -0.002
C  C63  1  0.93216348  0.66048160  0.81348585  1  -0.075989  0.000736  3.743778  0.001  -0.097936  -0.001032  3.994844  -0.001  -0.100492  -0.000737  4.016469  -0.001  -0.083181  -0.095773  -0.001411  3.979516  -0.002
C  C64  1  0.21691486  0.72624820  0.30545780  1  -0.073619  0.003238  3.686875  0.004  -0.058116  0.001005  3.917142  0.001  -0.063067  0.000447  3.93674  0.001  -0.006856  -0.055027  0.001651  3.904047  0.002
C  C65  1  0.21696314  0.27377533  0.19453693  1  -0.073364  -0.001206  3.687414  -0.002  -0.057923  -0.00112  3.917624  -0.002  -0.062883  -0.000512  3.93723  -0.001  -0.006806  -0.05485  -0.001785  3.904543  -0.002
C  C66  1  0.78308297  0.27376125  0.69455352  1  -0.073633  -0.003461  3.687364  -0.005  -0.058172  -0.001445  3.917466  -0.002  -0.063117  -0.000724  3.93706  -0.001  -0.006949  -0.055086  -0.002301  3.90437  -0.003
C  C67  1  0.78304989  0.72623447  0.80545841  1  -0.073429  -0.005285  3.687092  -0.007  -0.05801  -0.001326  3.917239  -0.002  -0.062976  -0.000655  3.936855  -0.001  -0.006985  -0.054931  -0.002158  3.904148  -0.003
C  C68  1  0.26032233  0.81069218  0.36728798  1  0.04332  3.5e-05  3.751893  0.0  0.05023  0.000289  3.985397  0.0  0.051076  0.00027  4.008845  0.0  0.00201  0.049738  0.000329  3.969696  0.0
C  C69  1  0.26033813  0.18932152  0.13271095  1  0.043349  -0.001708  3.751846  -0.003  0.050272  -0.00065  3.985368  -0.001  0.051117  -0.000482  4.008808  -0.001  0.001975  0.049771  -0.000868  3.969681  -0.001
C  C70  1  0.73967688  0.18931563  0.63272650  1  0.043265  -0.000338  3.752031  0.0  0.050376  -0.001001  3.98522  -0.001  0.051227  -0.000701  4.00866  -0.001  0.001901  0.049873  -0.001383  3.969536  -0.002
C  C71  1  0.73965003  0.81068914  0.86728052  1  0.0432  0.001454  3.751657  0.002  0.050225  -0.000638  3.985062  -0.001  0.051069  -0.000489  4.008499  -0.001  0.001992  0.049729  -0.000838  3.969365  -0.001
C  C72  1  0.14936268  0.82739198  0.43434020  1  -0.115929  -0.000601  3.709447  -0.001  -0.148886  -0.000775  3.964262  -0.001  -0.15122  -0.000574  3.98519  -0.001  -0.080546  -0.146902  -0.001  3.949736  -0.001
C  C73  1  0.14934938  0.17262735  0.06566900  1  -0.116094  0.00211  3.70895  0.002  -0.14913  -0.000115  3.963784  0.0  -0.151459  2.8e-05  3.984699  0.0  -0.080518  -0.147125  -0.000305  3.949258  0.0
C  C74  1  0.85066692  0.17261348  0.56567391  1  -0.115983  -0.000271  3.708983  -0.001  -0.149046  -0.000333  3.963751  0.0  -0.151386  -9.2e-05  3.984671  0.0  -0.080589  -0.147058  -0.000589  3.949241  -0.001
C  C75  1  0.85062082  0.82739343  0.93432698  1  -0.115752  -0.00166  3.709326  -0.002  -0.148878  0.00056  3.964007  0.001  -0.151219  0.000459  3.984944  0.001  -0.080492  -0.146856  0.000725  3.949455  0.001
C  C76  1  0.31048609  0.70826157  0.22693342  1  0.626141  -0.001168  3.930729  -0.005  0.583283  0.003242  4.233046  0.002  0.619133  0.002114  4.228067  0.001  0.200941  0.558072  0.004443  4.234537  0.002
C  C77  1  0.31056654  0.29180607  0.27303117  1  0.626844  0.001404  3.930838  0.004  0.584169  -0.00319  4.232903  -0.002  0.620016  -0.002088  4.227915  -0.001  0.201415  0.558958  -0.004336  4.234407  -0.002
C  C78  1  0.68947858  0.29176628  0.77306257  1  0.626104  0.001526  3.930968  0.005  0.583332  -0.003205  4.233175  -0.002  0.619176  -0.0021  4.2282  -0.001  0.201095  0.558122  -0.004353  4.234677  -0.002
C  C79  1  0.68946445  0.70821829  0.72694478  1  0.625952  0.001524  3.930983  0.005  0.583358  -0.003236  4.232883  -0.002  0.619206  -0.002114  4.227921  -0.001  0.201084  0.558147  -0.004429  4.234375  -0.003
C  C80  1  0.41663867  0.88333467  0.36499650  1  0.02807  -0.008299  3.764069  -0.012  0.049781  -0.002114  3.992254  -0.004  0.045517  -0.001501  4.014076  -0.003  0.005732  0.052186  -0.00274  3.978565  -0.005
C  C81  1  0.41663068  0.11667429  0.13497572  1  0.028195  0.008998  3.764258  0.013  0.049845  0.002094  3.992369  0.004  0.045597  0.001521  4.014162  0.003  0.005619  0.052247  0.002678  3.978685  0.005
C  C82  1  0.58335778  0.11666320  0.63500549  1  0.027848  -0.008376  3.764573  -0.012  0.049521  -0.001969  3.992574  -0.003  0.045247  -0.001173  4.014418  -0.002  0.005727  0.051936  -0.002841  3.978871  -0.005
C  C83  1  0.58333814  0.88333500  0.86500694  1  0.028331  -0.008579  3.76388  -0.012  0.049949  -0.001933  3.992002  -0.003  0.045718  -0.001181  4.013755  -0.002  0.005597  0.052345  -0.002746  3.978335  -0.004
C  C84  1  0.38329110  0.99092614  0.38402545  1  0.083875  0.008426  3.62531  0.011  0.048611  -0.00085  3.869753  0.0  0.057529  -0.000539  3.886005  0.0  0.047471  0.041722  -0.00098  3.859645  -0.001
C  C85  1  0.38326565  0.00910023  0.11596003  1  0.084076  -0.008087  3.625413  -0.011  0.048968  0.00087  3.869728  0.0  0.057884  0.000555  3.885982  0.0  0.047504  0.042088  0.000996  3.859613  0.001
C  C86  1  0.61670949  0.00908064  0.61596425  1  0.08387  0.007702  3.625549  0.01  0.048797  -0.001438  3.869862  -0.001  0.057713  -0.000988  3.886134  -0.001  0.04755  0.041911  -0.001747  3.859736  -0.002
C  C87  1  0.61668521  0.99092128  0.88403837  1  0.083657  0.007965  3.625212  0.01  0.048497  -0.001443  3.869644  -0.001  0.057401  -0.000994  3.885901  -0.001  0.047473  0.041616  -0.001733  3.859537  -0.002
C  C88  1  0.69299551  0.03082657  0.36964135  1  0.111044  0.008557  3.693379  0.011  0.081663  -0.001021  3.949027  -0.001  0.090553  -0.000911  3.967503  -0.001  0.042368  0.074978  -0.000765  3.936859  -0.001
C  C89  1  0.69299857  0.96920874  0.13034418  1  0.111188  -0.008249  3.693319  -0.011  0.081758  0.000974  3.949042  0.001  0.090656  0.000873  3.967525  0.001  0.042357  0.075036  0.000711  3.936946  0.001
C  C90  1  0.30700923  0.96917590  0.63036597  1  0.111155  0.007883  3.69339  0.01  0.081686  -0.001438  3.949133  -0.002  0.090582  -0.001235  3.967614  -0.001  0.04227  0.074993  -0.001343  3.936964  -0.001
C  C91  1  0.30698545  0.03081514  0.86965402  1  0.111035  0.008171  3.693656  0.01  0.081605  -0.001376  3.949364  -0.001  0.090502  -0.001192  3.967847  -0.001  0.042385  0.074899  -0.001253  3.937234  -0.001
C  C92  1  0.73737986  0.92489095  0.34961331  1  -0.111358  -0.00866  3.734387  -0.012  -0.119808  -0.001716  3.980948  -0.003  -0.127891  -0.001083  4.002447  -0.002  -0.082  -0.114587  -0.002437  3.967381  -0.004
C  C93  1  0.73735848  0.07513862  0.15036961  1  -0.111461  0.009404  3.73483  0.012  -0.11996  0.001794  3.981409  0.003  -0.128038  0.001154  4.0029  0.002  -0.082038  -0.11475  0.002531  3.967856  0.004
C  C94  1  0.26262488  0.07510737  0.65040421  1  -0.111517  -0.008101  3.734446  -0.011  -0.119966  -0.001542  3.98103  -0.003  -0.128041  -0.000883  4.002513  -0.002  -0.081999  -0.114747  -0.00227  3.967474  -0.004
C  C95  1  0.26260895  0.92488229  0.84962010  1  -0.111293  -0.008339  3.734832  -0.012  -0.119694  -0.001608  3.981365  -0.003  -0.127777  -0.000945  4.00286  -0.002  -0.081986  -0.114479  -0.002339  3.967808  -0.004
C  C96  1  0.59876584  0.85037207  0.34735579  1  -0.026962  0.009812  3.679953  0.012  -0.058329  0.000454  3.931558  0.001  -0.052106  -5.9e-05  3.9465  0.0  -0.061695  -0.063484  0.001568  3.922729  0.002
C  C97  1  0.59874666  0.14965057  0.15262208  1  -0.027196  -0.009427  3.679405  -0.012  -0.058423  -0.000356  3.930897  -0.001  -0.0522  0.000188  3.945829  0.0  -0.061785  -0.063569  -0.001504  3.922066  -0.002
C  C98  1  0.40123337  0.14962726  0.65265101  1  -0.026616  0.009188  3.679683  0.011  -0.057971  0.000254  3.93133  0.0  -0.051744  -0.000119  3.946273  0.0  -0.061596  -0.063143  0.001152  3.922516  0.001
C  C99  1  0.40121801  0.85036478  0.84737073  1  -0.027308  0.009367  3.680152  0.011  -0.058529  0.000165  3.931705  0.0  -0.052304  -0.000246  3.946632  0.0  -0.061699  -0.063692  0.001112  3.922893  0.001
C  C100  1  0.36858993  0.61775422  0.49706075  1  0.130738  0.008652  3.682272  0.011  0.103418  -0.000767  3.936348  -0.001  0.112056  -0.00087  3.953951  -0.001  0.046989  0.096298  -0.000266  3.926773  0.0
C  C101  1  0.36852586  0.38222613  0.00293783  1  0.130981  0.012222  3.682376  0.016  0.103835  -0.000776  3.936308  0.0  0.112466  -0.000932  3.953938  -0.001  0.047302  0.096734  -0.000411  3.926703  0.0
C  C102  1  0.63148112  0.38220466  0.50292745  1  0.130754  0.008652  3.682487  0.011  0.103362  -0.000767  3.936545  -0.001  0.111994  -0.000866  3.954166  -0.001  0.046989  0.096252  -0.000272  3.926952  0.0
C  C103  1  0.63143053  0.61776859  0.99706422  1  0.130729  -0.01145  3.682334  -0.016  0.103549  0.000793  3.936346  0.0  0.112175  0.000943  3.953968  0.001  0.047093  0.096444  0.000443  3.926745  0.0
C  C104  1  0.23498962  0.54334692  0.46964812  1  -0.148397  -0.006914  3.671298  -0.01  -0.167394  -0.001507  3.915306  -0.003  -0.174434  -0.000966  3.933615  -0.002  -0.075937  -0.163548  -0.001749  3.90551  -0.003
C  C105  1  0.23490693  0.45662030  0.03034421  1  -0.148939  -0.013711  3.671963  -0.018  -0.167608  -0.001926  3.915731  -0.003  -0.174737  -0.000962  3.93399  -0.002  -0.076167  -0.163735  -0.003031  3.905906  -0.005
C  C106  1  0.76511182  0.45659084  0.53033606  1  -0.1486  -0.006919  3.671785  -0.01  -0.167286  -0.001519  3.91555  -0.003  -0.174394  -0.000976  3.933818  -0.002  -0.075967  -0.163424  -0.001764  3.905744  -0.003
C  C107  1  0.76505083  0.54337593  0.96966095  1  -0.148521  0.014514  3.671676  0.018  -0.167408  0.001934  3.915493  0.003  -0.17451  0.000963  3.933773  0.002  -0.07603  -0.163536  0.003056  3.905672  0.005
C  C108  1  0.07545333  0.53696314  0.51440856  1  0.096486  0.009007  3.726744  0.01  0.107539  0.001091  3.959105  0.001  0.113642  0.000253  3.976491  0.0  0.013447  0.102015  0.002866  3.949916  0.003
C  C109  1  0.07540224  0.46299844  0.98558274  1  0.096743  0.014365  3.726819  0.019  0.107689  0.001151  3.959185  0.002  0.113839  0.000205  3.976526  0.0  0.01363  0.10218  0.002572  3.949971  0.003
C  C110  1  0.92463430  0.46297559  0.48556719  1  0.096759  0.009012  3.727266  0.01  0.107659  0.001099  3.959624  0.001  0.113817  0.000261  3.976962  0.0  0.013505  0.102144  0.002871  3.950429  0.003
C  C111  1  0.92456243  0.53699475  0.01441734  1  0.096506  -0.013562  3.726653  -0.019  0.107705  -0.001135  3.958871  -0.002  0.113823  -0.000197  3.976236  0.0  0.013669  0.102189  -0.00254  3.949662  -0.003
C  C112  1  0.06539271  0.60542247  0.58771967  1  -0.151426  -0.007065  3.680031  -0.01  -0.168396  -0.001721  3.922006  -0.003  -0.175319  -0.001296  3.939813  -0.002  -0.078669  -0.165003  -0.001807  3.913146  -0.004
C  C113  1  0.06535017  0.39453737  0.91227460  1  -0.151687  -0.013773  3.679782  -0.019  -0.168567  -0.002213  3.921637  -0.004  -0.175473  -0.0013  3.939441  -0.002  -0.07866  -0.165211  -0.00314  3.912807  -0.005
C  C114  1  0.93469216  0.39451372  0.41226483  1  -0.151754  -0.007067  3.679714  -0.01  -0.168739  -0.001738  3.921763  -0.003  -0.175663  -0.001309  3.939566  -0.002  -0.078741  -0.165347  -0.001825  3.912908  -0.004
C  C115  1  0.93461312  0.60545820  0.08772473  1  -0.151919  0.014591  3.680201  0.019  -0.168844  0.002222  3.921992  0.004  -0.175752  0.001305  3.939791  0.002  -0.078888  -0.165484  0.003161  3.913167  0.005
C  C116  1  0.20552672  0.67735792  0.61137870  1  0.135448  0.009129  3.700987  0.011  0.106323  -0.000541  3.95896  0.0  0.116275  -0.000433  3.97532  0.0  0.047659  0.098176  -0.000387  3.950401  0.0
C  C117  1  0.20548833  0.32260741  0.88861575  1  0.135544  0.01303  3.7009  0.017  0.1066  -0.000515  3.958743  0.0  0.116554  -0.000491  3.975086  0.0  0.047638  0.098455  -0.000453  3.950189  0.0
C  C118  1  0.79452637  0.32259722  0.38860144  1  0.136023  0.009133  3.700528  0.011  0.106819  -0.000539  3.958475  0.0  0.116773  -0.000429  3.974819  0.0  0.047721  0.098663  -0.000391  3.949925  0.0
C  C119  1  0.79448601  0.67739599  0.11138485  1  0.135677  -0.012217  3.701132  -0.017  0.106766  0.000536  3.958904  0.0  0.116721  0.000504  3.975247  0.0  0.047768  0.098621  0.000491  3.95035  0.0
N  N120  1  0.35484508  0.68550047  0.56662194  1  -0.329274  -0.046789  3.357706  -0.071  -0.278614  -0.032025  3.664924  -0.041  -0.30631  -0.025559  3.677559  -0.031  -0.343496  -0.259625  -0.037862  3.657792  -0.049
N  N121  1  0.35479336  0.31449005  0.93337383  1  -0.329522  -0.052712  3.357587  -0.081  -0.279008  -0.032667  3.664862  -0.042  -0.306679  -0.025626  3.677463  -0.032  -0.34361  -0.260009  -0.039701  3.657661  -0.052
N  N122  1  0.64520111  0.31446954  0.43336063  1  -0.329523  -0.046804  3.35802  -0.071  -0.278684  -0.032041  3.665138  -0.041  -0.306384  -0.025571  3.677774  -0.032  -0.343448  -0.259696  -0.037885  3.658011  -0.049
N  N123  1  0.64518513  0.68550945  0.06662499  1  -0.329448  0.055928  3.357465  0.081  -0.278825  0.032991  3.664765  0.042  -0.306499  0.025882  3.677389  0.032  -0.34346  -0.25982  0.040192  3.657563  0.052
N  N124  1  0.51785217  0.06324559  0.38651944  1  -0.316186  -0.049751  3.35927  -0.076  -0.262187  -0.03297  3.660963  -0.043  -0.292253  -0.026085  3.677311  -0.033  -0.339475  -0.240262  -0.039538  3.649683  -0.052
N  N125  1  0.51785661  0.93681065  0.11346123  1  -0.316629  0.052988  3.358942  0.076  -0.2626  0.033339  3.66069  0.043  -0.292686  0.026377  3.677075  0.033  -0.339425  -0.240665  0.040085  3.649388  0.052
N  N126  1  0.48214704  0.93676728  0.61347927  1  -0.316346  -0.049419  3.359307  -0.076  -0.26232  -0.032827  3.660915  -0.043  -0.292404  -0.025916  3.677297  -0.033  -0.339526  -0.240385  -0.039418  3.649628  -0.052
N  N127  1  0.48211774  0.06323137  0.88653306  1  -0.316189  -0.049636  3.359131  -0.076  -0.262197  -0.032877  3.660777  -0.043  -0.292271  -0.025962  3.67715  -0.033  -0.339457  -0.240278  -0.039479  3.649491  -0.052
O  O128  1  0.72066614  0.74260286  0.50963635  1  -0.629209  -0.06131  2.079725  -0.097  -0.593722  -0.043852  2.373713  -0.064  -0.639952  -0.0323  2.363806  -0.046  -0.327054  -0.556009  -0.05626  2.376842  -0.083
O  O129  1  0.72064173  0.25738647  0.99038434  1  -0.629327  -0.061587  2.080314  -0.098  -0.594102  -0.044008  2.374306  -0.064  -0.640336  -0.032393  2.364385  -0.046  -0.327182  -0.556322  -0.056527  2.377265  -0.083
O  O130  1  0.27939248  0.25738543  0.49037266  1  -0.628957  -0.061394  2.080335  -0.097  -0.593635  -0.044006  2.374146  -0.064  -0.639865  -0.032401  2.364242  -0.046  -0.327024  -0.555918  -0.056493  2.377274  -0.083
O  O131  1  0.27932571  0.74261861  0.00961081  1  -0.62907  0.065161  2.079673  0.097  -0.593738  0.044274  2.373766  0.064  -0.639955  0.032613  2.363849  0.046  -0.326987  -0.555981  0.056971  2.376747  0.082
O  O132  1  0.93466504  0.85474526  0.57144892  1  -0.600146  -0.005345  1.953337  -0.009  -0.558642  -0.007102  2.177508  -0.012  -0.584463  -0.005028  2.16992  -0.008  -0.30911  -0.539338  -0.009579  2.181752  -0.015
O  O133  1  0.93456467  0.14524365  0.92859224  1  -0.600214  -0.005552  1.953307  -0.009  -0.558916  -0.007298  2.177348  -0.012  -0.584744  -0.005165  2.169763  -0.009  -0.309181  -0.539593  -0.009867  2.18157  -0.016
O  O134  1  0.06538805  0.14525526  0.42857583  1  -0.599885  -0.0054  1.953379  -0.009  -0.558583  -0.007288  2.177306  -0.012  -0.584394  -0.005157  2.169741  -0.009  -0.309017  -0.539257  -0.009838  2.181486  -0.016
O  O135  1  0.06533921  0.85477520  0.07142004  1  -0.600193  0.005825  1.953097  0.009  -0.558903  0.007172  2.177257  0.012  -0.58473  0.005072  2.16967  0.008  -0.309225  -0.53956  0.009711  2.181411  0.015
O  O136  1  0.32194045  0.61824116  0.18608055  1  -0.596036  0.005004  1.932073  0.008  -0.561004  0.006574  2.152521  0.01  -0.586005  0.00467  2.144509  0.008  -0.315517  -0.541711  0.008824  2.156691  0.014
O  O137  1  0.32209576  0.38182449  0.31387298  1  -0.596449  -0.004534  1.931426  -0.007  -0.561495  -0.006535  2.151793  -0.01  -0.586472  -0.004635  2.14375  -0.008  -0.315797  -0.542221  -0.008752  2.15599  -0.014
O  O138  1  0.67795791  0.38178694  0.81390403  1  -0.595956  -0.004664  1.931815  -0.008  -0.561001  -0.006513  2.15223  -0.01  -0.585987  -0.004624  2.144213  -0.008  -0.315622  -0.54173  -0.008745  2.156415  -0.014
O  O139  1  0.67803195  0.61819120  0.68610385  1  -0.596104  -0.004843  1.931755  -0.008  -0.561098  -0.006581  2.152032  -0.01  -0.586098  -0.004662  2.144024  -0.008  -0.31562  -0.54181  -0.008835  2.156211  -0.014
O  O140  1  0.36418719  0.79331022  0.20528892  1  -0.619157  0.068446  2.110185  0.103  -0.584063  0.045335  2.397509  0.066  -0.631064  0.033843  2.388134  0.047  -0.324967  -0.54665  0.057257  2.400948  0.083
O  O141  1  0.36420269  0.20675636  0.29467977  1  -0.619607  -0.064454  2.110082  -0.102  -0.584572  -0.044917  2.397106  -0.066  -0.631583  -0.033509  2.387751  -0.047  -0.325185  -0.547139  -0.056627  2.400534  -0.083
O  O142  1  0.63586176  0.20671185  0.79471987  1  -0.619133  -0.064584  2.110255  -0.103  -0.584112  -0.044953  2.397299  -0.066  -0.631105  -0.033547  2.387941  -0.048  -0.325005  -0.546713  -0.056659  2.400745  -0.083
O  O143  1  0.63577718  0.79326177  0.70529345  1  -0.61913  -0.064614  2.110672  -0.103  -0.58414  -0.044946  2.39772  -0.066  -0.631143  -0.033546  2.388347  -0.048  -0.324964  -0.546713  -0.056623  2.40117  -0.083
