# generated using pymatgen
data_Cu5H52C62(NO12)2
_symmetry_space_group_name_H-M   'P 1'
_cell_length_a   11.88276198
_cell_length_b   11.76229302
_cell_length_c   12.46518112
_cell_angle_alpha   96.61693470
_cell_angle_beta   98.56587373
_cell_angle_gamma   87.95239976
_symmetry_Int_Tables_number   1
_chemical_formula_structural   Cu5H52C62(NO12)2
_chemical_formula_sum   'Cu5 H52 C62 N2 O24'
_cell_volume   1711.02402512
_cell_formula_units_Z   1
loop_
 _symmetry_equiv_pos_site_id
 _symmetry_equiv_pos_as_xyz
  1  'x, y, z'
loop_
 _atom_site_type_symbol
 _atom_site_label
 _atom_site_symmetry_multiplicity
 _atom_site_fract_x
 _atom_site_fract_y
 _atom_site_fract_z
 _atom_site_occupancy
 _atom_site_pbe_bader_charge
 _atom_site_pbe_bader_spin_density
 _atom_site_pbe_cm5_charge
 _atom_site_pbe_ddec_charge
 _atom_site_pbe_ddec_spin_density
 _atom_site_pbe_ddec_sum_bond_order
 _atom_site_pbe_magmom
Cu  Cu0  1  0.46578601  0.90062991  0.41838583  1  1.124996  0.599554  0.691676  0.978494  0.748347  2.180123  0.598
Cu  Cu1  1  0.53421295  0.09937120  0.58161480  1  1.125036  0.599551  0.691659  0.978479  0.748343  2.180145  0.598
Cu  Cu2  1  0.67970754  0.03821314  0.36062857  1  1.148256  0.605727  0.709538  0.981794  0.753241  2.115894  0.604
Cu  Cu3  1  0.32029138  0.96178804  0.63937127  1  1.148284  0.605728  0.709549  0.9818  0.753239  2.115893  0.604
Cu  Cu4  1  0.49999980  0.00000027  0.99999957  1  1.102658  0.574169  0.711835  0.874151  0.726681  2.225716  0.577
H  H5  1  0.88403879  0.54260221  0.41464053  1  0.085691  0.000284  0.105808  0.120965  0.000128  1.011  0.0
H  H6  1  0.11596185  0.45739724  0.58535918  1  0.085696  0.000284  0.105806  0.120971  0.000128  1.010978  0.0
H  H7  1  0.93457807  0.62909128  0.60682479  1  0.072964  2.2e-05  0.09801  0.090379  -1.8e-05  1.041551  0.0
H  H8  1  0.06542086  0.37090904  0.39317490  1  0.072938  2.2e-05  0.098013  0.090388  -1.8e-05  1.041544  0.0
H  H9  1  0.75063806  0.36557144  0.71406686  1  0.082172  0.00034  0.106574  0.108854  0.000242  1.035977  0.0
H  H10  1  0.24936171  0.63442887  0.28593291  1  0.082187  0.00034  0.106558  0.108813  0.000242  1.035953  0.0
H  H11  1  0.71976117  0.51208792  0.83873709  1  0.099185  1.9e-05  0.100042  0.107055  -7e-05  1.034417  0.0
H  H12  1  0.28023778  0.48791405  0.16126369  1  0.099175  1.9e-05  0.100058  0.107076  -7e-05  1.034456  0.0
H  H13  1  0.95172924  0.69820723  0.08979272  1  0.044628  4.1e-05  0.095247  0.092805  -3e-05  1.038019  0.0
H  H14  1  0.04827232  0.30179125  0.91020853  1  0.044632  4.1e-05  0.09523  0.092807  -3e-05  1.038025  0.0
H  H15  1  0.04595223  0.60956373  0.77001765  1  0.061827  4.2e-05  0.097839  0.103683  -4.8e-05  1.036651  0.0
H  H16  1  0.95404675  0.39043483  0.22998254  1  0.061808  4.2e-05  0.097829  0.103674  -4.8e-05  1.036657  0.0
H  H17  1  0.69165527  0.42581554  0.99056448  1  0.08839  8e-05  0.098691  0.096228  2.1e-05  1.045409  0.0
H  H18  1  0.30834717  0.57418373  0.00943780  1  0.088378  8e-05  0.098683  0.096235  2.1e-05  1.045376  0.0
H  H19  1  0.54553503  0.42132650  0.11179636  1  0.087341  0.000405  0.1103  0.129823  0.000194  0.975011  0.0
H  H20  1  0.45446564  0.57867290  0.88820415  1  0.08708  0.000405  0.110295  0.129825  0.000194  0.975071  0.0
H  H21  1  0.77363191  0.77079620  0.13049234  1  0.104311  0.000333  0.103981  0.109997  0.000191  1.009072  0.0
H  H22  1  0.22636701  0.22920498  0.86950750  1  0.104312  0.000333  0.103987  0.110011  0.000191  1.009068  0.0
H  H23  1  0.13756541  0.68359314  0.13479145  1  0.03541  0.001021  0.097032  0.08571  0.000454  1.052394  0.001
H  H24  1  0.86243695  0.31640710  0.86520938  1  0.035349  0.001021  0.097027  0.085732  0.000454  1.05237  0.001
H  H25  1  0.31152716  0.79548080  0.19791792  1  0.10256  2.8e-05  0.103289  0.125189  -8e-05  1.024511  0.0
H  H26  1  0.68847341  0.20452042  0.80208129  1  0.102547  2.8e-05  0.103294  0.125204  -8e-05  1.02448  0.0
H  H27  1  0.13131470  0.77897476  0.81185910  1  0.095845  0.000737  0.103862  0.106071  0.000532  1.041187  0.0
H  H28  1  0.86868598  0.22102379  0.18814126  1  0.095842  0.000737  0.103864  0.106097  0.000532  1.041148  0.0
H  H29  1  0.93806848  0.08748115  0.32164799  1  0.111852  0.000157  0.104702  0.166201  0.000141  1.008088  0.0
H  H30  1  0.06193131  0.91251746  0.67835149  1  0.11188  0.000157  0.104709  0.166237  0.000141  1.008054  0.0
H  H31  1  0.06441358  0.13453189  0.41083371  1  0.046659  0.000121  0.100874  0.15565  6.5e-05  0.998464  0.0
H  H32  1  0.93558621  0.86546672  0.58916577  1  0.046657  0.000121  0.100875  0.155661  6.5e-05  0.998444  0.0
H  H33  1  0.94552725  0.22968274  0.38529259  1  0.055418  -1.5e-05  0.098432  0.14389  -2.1e-05  1.034451  0.0
H  H34  1  0.05447254  0.77031501  0.61470674  1  0.05539  -1.5e-05  0.098454  0.143925  -2.1e-05  1.034472  0.0
H  H35  1  0.86854611  0.18860861  0.72284398  1  0.069907  0.000171  0.098754  0.107695  9.1e-05  1.053263  0.0
H  H36  1  0.13145362  0.81139177  0.27715499  1  0.069899  0.000171  0.09874  0.10768  9.1e-05  1.053229  0.0
H  H37  1  0.98638137  0.09160064  0.74667172  1  0.0729  0.000191  0.108221  0.12557  8.7e-05  0.970387  0.0
H  H38  1  0.01361840  0.90839968  0.25332805  1  0.072928  0.000191  0.108216  0.125562  8.7e-05  0.9704  0.0
H  H39  1  0.85783152  0.04504742  0.66056760  1  0.095418  1.4e-05  0.110051  0.133756  3e-05  1.00535  0.0
H  H40  1  0.14216822  0.95495296  0.33943138  1  0.095416  1.4e-05  0.110049  0.133749  3e-05  1.005358  0.0
H  H41  1  0.13479116  0.18482792  0.63276235  1  0.116714  0.000161  0.102483  0.128758  5.3e-05  1.01856  0.0
H  H42  1  0.86520935  0.81517172  0.36723496  1  0.116723  0.000161  0.102465  0.128756  5.3e-05  1.018538  0.0
H  H43  1  0.03932769  0.28930999  0.68745252  1  0.068494  0.000171  0.106199  0.120387  8.2e-05  0.992348  0.0
H  H44  1  0.96067380  0.71068860  0.31254713  1  0.068469  0.000171  0.106192  0.120361  8.2e-05  0.992349  0.0
H  H45  1  0.05407929  0.28036941  0.54736469  1  0.058642  3.7e-05  0.104889  0.114823  1.6e-05  1.03785  0.0
H  H46  1  0.94591960  0.71963098  0.45263420  1  0.058657  3.7e-05  0.10489  0.114825  1.6e-05  1.037864  0.0
H  H47  1  0.49020513  0.66018440  0.29562146  1  0.655948  -3.1e-05  0.305099  0.356663  0.000103  0.973752  0.0
H  H48  1  0.50979379  0.33981593  0.70437822  1  0.655951  -3.1e-05  0.305105  0.35668  0.000103  0.973726  0.0
H  H49  1  0.72222910  0.29166951  0.34953055  1  0.651218  -3.1e-05  0.306655  0.360406  2.4e-05  0.955928  0.0
H  H50  1  0.27777153  0.70832995  0.65046916  1  0.651219  -3.1e-05  0.306647  0.360402  2.4e-05  0.955952  0.0
H  H51  1  0.66658940  0.94738104  0.52252130  1  0.615699  0.000813  0.320541  0.419218  0.001608  0.863266  0.001
H  H52  1  0.33341037  0.05262014  0.47747862  1  0.615691  0.000813  0.320529  0.419236  0.001607  0.863259  0.001
H  H53  1  0.45184203  0.08509575  0.28733287  1  0.594317  -0.000367  0.305913  0.388279  -0.000572  0.916667  0.0
H  H54  1  0.54815272  0.91490449  0.71266798  1  0.594257  -0.000367  0.305878  0.388222  -0.000572  0.916864  0.0
H  H55  1  0.40871136  0.97701821  0.21127699  1  0.653834  0.000454  0.285118  0.393138  0.000603  0.946293  0.0
H  H56  1  0.59128672  0.02298212  0.78872261  1  0.653837  0.000454  0.285078  0.393043  0.000603  0.946416  0.0
C  C57  1  0.68534255  0.25036686  0.52018173  1  1.492471  0.002887  0.211904  0.597527  0.00309  4.155724  0.001
C  C58  1  0.31465727  0.74963254  0.47981869  1  1.492465  0.002887  0.211904  0.597489  0.00309  4.155708  0.001
C  C59  1  0.75361322  0.35505528  0.54225322  1  -0.041316  0.012816  -0.040485  -0.182195  0.008914  3.991476  0.01
C  C60  1  0.24638741  0.64494417  0.45774649  1  -0.041414  0.012816  -0.040493  -0.182207  0.008914  3.991381  0.01
C  C61  1  0.79163567  0.40513502  0.45614185  1  0.538676  0.004255  0.093071  0.31344  0.002718  4.049982  0.003
C  C62  1  0.20836496  0.59486444  0.54385786  1  0.53868  0.004255  0.093048  0.313422  0.002718  4.050054  0.003
C  C63  1  0.85626401  0.50459673  0.48163206  1  0.010888  0.000614  -0.108284  -0.210977  0.000408  4.000741  0.0
C  C64  1  0.14373751  0.49540266  0.51836854  1  0.010909  0.000613  -0.108293  -0.210985  0.000408  4.000717  0.0
C  C65  1  0.88446631  0.55157110  0.58909603  1  -0.135781  0.002489  -0.082092  -0.091454  0.001563  3.99274  0.001
C  C66  1  0.11553436  0.44842830  0.41090448  1  -0.135749  0.002489  -0.082134  -0.091523  0.001563  3.992669  0.001
C  C67  1  0.84892905  0.50303437  0.67661936  1  0.049492  0.002089  -0.019463  0.037064  0.001247  4.019361  0.001
C  C68  1  0.15107072  0.49696595  0.32338042  1  0.049489  0.002089  -0.01943  0.037071  0.001246  4.019414  0.001
C  C69  1  0.78225830  0.40562292  0.65020958  1  -0.021203  8.5e-05  -0.08137  -0.110707  -0.000284  3.941227  0.0
C  C70  1  0.21774063  0.59437655  0.34978996  1  -0.021113  8.5e-05  -0.081342  -0.110611  -0.000284  3.94111  0.0
C  C71  1  0.87923958  0.55477950  0.79096106  1  -0.07775  -0.000661  -0.013815  0.075771  -0.001032  4.040616  -0.001
C  C72  1  0.12075938  0.44522076  0.20903942  1  -0.077702  -0.000661  -0.013831  0.075714  -0.001033  4.040674  -0.001
C  C73  1  0.80265784  0.55088606  0.86606898  1  -0.070455  0.008984  -0.09297  -0.18874  0.00574  3.92549  0.005
C  C74  1  0.19734107  0.44911597  0.13393100  1  -0.070469  0.008984  -0.092978  -0.188724  0.00574  3.925519  0.005
C  C75  1  0.82811693  0.60162673  0.97424660  1  -0.026945  -0.000167  -0.008047  0.086855  -0.000499  4.030103  0.0
C  C76  1  0.17188284  0.39837359  0.02575317  1  -0.026964  -0.000166  -0.008014  0.086842  -0.000499  4.030129  0.0
C  C77  1  0.93192449  0.65751575  0.00622579  1  -0.021774  0.005189  -0.092093  -0.181077  0.003307  3.932816  0.003
C  C78  1  0.06807619  0.34248280  0.99377457  1  -0.021594  0.005187  -0.092098  -0.181103  0.003306  3.932881  0.003
C  C79  1  0.01021135  0.66330873  0.93314932  1  -0.020619  0.000496  -0.008823  0.088864  -1e-06  4.022447  0.0
C  C80  1  0.98978933  0.33668981  0.06685104  1  -0.020805  0.000496  -0.00884  0.088838  -1e-06  4.022478  0.0
C  C81  1  0.98326865  0.61014964  0.82581773  1  0.017105  0.006743  -0.096113  -0.191974  0.00431  3.923222  0.004
C  C82  1  0.01673031  0.38984977  0.17418261  1  0.017106  0.006744  -0.096072  -0.19189  0.004311  3.923099  0.004
C  C83  1  0.74450821  0.59879092  0.05076588  1  -0.001332  0.003257  -0.020876  0.033322  0.002035  4.019176  0.002
C  C84  1  0.25549249  0.40120927  0.94923558  1  -0.001332  0.003257  -0.020884  0.033357  0.002036  4.01915  0.002
C  C85  1  0.67802925  0.50085158  0.04734442  1  -0.015922  -0.000453  -0.077166  -0.077394  -0.00058  3.969646  0.0
C  C86  1  0.32197234  0.49914855  0.95265791  1  -0.015926  -0.000453  -0.077175  -0.077399  -0.00058  3.969617  0.0
C  C87  1  0.59639832  0.49721762  0.11507892  1  0.003372  0.00158  -0.101711  -0.198276  0.001071  3.987995  0.001
C  C88  1  0.40360234  0.50278263  0.88492173  1  0.003611  0.00158  -0.101702  -0.198296  0.001071  3.988065  0.001
C  C89  1  0.57580672  0.59235124  0.18884441  1  0.531779  0.00282  0.094967  0.320604  0.001715  4.028035  0.002
C  C90  1  0.42419309  0.40764902  0.81115616  1  0.531775  0.002821  0.094986  0.320633  0.001716  4.028037  0.002
C  C91  1  0.64289086  0.69168532  0.19556430  1  -0.017168  0.017449  -0.042497  -0.190673  0.012231  3.981495  0.014
C  C92  1  0.35710892  0.30831500  0.80443547  1  -0.017158  0.017449  -0.042534  -0.190694  0.012231  3.981436  0.014
C  C93  1  0.72605331  0.69241801  0.12619038  1  -0.098077  0.00027  -0.085011  -0.120839  -0.00032  3.967275  0.0
C  C94  1  0.27394650  0.30758225  0.87381019  1  -0.098065  0.00027  -0.084997  -0.120859  -0.00032  3.96722  0.0
C  C95  1  0.62438405  0.79406810  0.27222605  1  1.494029  0.002278  0.220405  0.615997  0.002349  4.1274  0.0
C  C96  1  0.37561484  0.20593228  0.72777284  1  1.494032  0.002278  0.220377  0.615961  0.002349  4.127457  0.0
C  C97  1  0.11752358  0.72547283  0.96888481  1  0.06826  0.01103  -0.021009  0.034076  0.006997  4.022597  0.007
C  C98  1  0.88247706  0.27452578  0.03111475  1  0.068248  0.011027  -0.021003  0.034101  0.006996  4.022732  0.007
C  C99  1  0.17224848  0.73173487  0.07796044  1  -0.122797  -0.001021  -0.085276  -0.100042  -0.001822  4.01436  -0.001
C  C100  1  0.82775305  0.26826367  0.92204001  1  -0.122751  -0.001021  -0.085311  -0.100136  -0.001822  4.014464  -0.001
C  C101  1  0.27051911  0.79307954  0.11345640  1  -0.023186  0.017577  -0.109339  -0.205337  0.01201  3.938938  0.012
C  C102  1  0.72948241  0.20691985  0.88654420  1  -0.02317  0.017576  -0.10931  -0.205297  0.012009  3.938896  0.012
C  C103  1  0.32088721  0.85418190  0.04163134  1  0.628017  0.006737  0.088466  0.335037  0.004759  4.086971  0.002
C  C104  1  0.67911341  0.14581841  0.95836852  1  0.627997  0.006736  0.088439  0.334968  0.004758  4.086939  0.002
C  C105  1  0.26914443  0.84461867  0.93029030  1  -0.045082  0.015205  -0.043661  -0.186464  0.00985  3.985441  0.011
C  C106  1  0.73085531  0.15538170  0.06970868  1  -0.045014  0.015203  -0.043622  -0.186381  0.009849  3.985542  0.011
C  C107  1  0.16894514  0.78193006  0.89718954  1  -0.044379  0.001412  -0.079052  -0.100542  0.000747  3.93931  0.0
C  C108  1  0.83105550  0.21806854  0.10281002  1  -0.044375  0.001412  -0.079054  -0.100579  0.000747  3.939332  0.0
C  C109  1  0.31788260  0.89721461  0.84663902  1  1.488999  -0.000938  0.210379  0.59747  -0.001317  4.144469  -0.004
C  C110  1  0.68211628  0.10278662  0.15336001  1  1.48878  -0.000938  0.210348  0.597413  -0.001317  4.144526  -0.004
C  C111  1  0.92040280  0.10225314  0.48993324  1  1.32802  -0.000769  0.23707  0.520013  -0.000898  4.041499  -0.001
C  C112  1  0.07959698  0.89774632  0.51006638  1  1.328039  -0.000769  0.237035  0.519936  -0.000898  4.04157  -0.001
C  C113  1  0.97120370  0.14064940  0.39647790  1  -0.088559  0.000409  -0.244731  -0.519839  0.000245  3.902701  0.0
C  C114  1  0.02879610  0.85934836  0.60352143  1  -0.08855  0.000409  -0.244734  -0.519885  0.000245  3.902707  0.0
C  C115  1  0.91568428  0.11636550  0.68594295  1  0.239062  5.1e-05  -0.137491  -0.271447  3.9e-05  3.907231  0.0
C  C116  1  0.08431549  0.88363482  0.31405682  1  0.239028  5.1e-05  -0.137467  -0.271418  3.9e-05  3.907196  0.0
C  C117  1  0.05260460  0.23012553  0.61551435  1  0.233695  0.000192  -0.135743  -0.269668  0.000148  3.890698  0.0
C  C118  1  0.94739600  0.76987398  0.38448456  1  0.23369  0.000192  -0.135743  -0.269682  0.000148  3.890697  0.0
N  N119  1  0.95981956  0.14941685  0.59167252  1  -1.202225  0.001996  -0.281668  -0.02419  0.001238  3.663951  0.002
N  N120  1  0.04018022  0.85058261  0.40832710  1  -1.202234  0.001997  -0.281654  -0.024132  0.001238  3.663989  0.002
O  O121  1  0.65622761  0.20821915  0.41964668  1  -1.148003  0.061879  -0.327908  -0.597757  0.038155  2.352382  0.055
O  O122  1  0.34377217  0.79178117  0.58035309  1  -1.147998  0.061876  -0.327884  -0.597723  0.038153  2.352465  0.055
O  O123  1  0.65827036  0.20746747  0.60210358  1  -1.113949  0.090454  -0.313115  -0.523179  0.056534  2.385873  0.081
O  O124  1  0.34172857  0.79253285  0.39789611  1  -1.113938  0.090457  -0.313127  -0.523156  0.056536  2.385821  0.081
O  O125  1  0.49166633  0.58467281  0.24932959  1  -1.171447  0.00483  -0.352969  -0.44561  0.002932  2.270771  0.004
O  O126  1  0.50833348  0.41532745  0.75067097  1  -1.171437  0.00483  -0.352982  -0.445634  0.002932  2.27077  0.004
O  O127  1  0.54411958  0.78551767  0.33102022  1  -1.136575  0.083173  -0.331896  -0.583482  0.05182  2.457721  0.076
O  O128  1  0.45588019  0.21448265  0.66897956  1  -1.136585  0.083172  -0.331857  -0.583432  0.05182  2.457807  0.076
O  O129  1  0.68626596  0.88105697  0.27814703  1  -1.125059  0.088164  -0.308593  -0.540032  0.055107  2.367435  0.079
O  O130  1  0.31373296  0.11894421  0.72185280  1  -1.125069  0.088163  -0.308578  -0.540019  0.055106  2.367451  0.079
O  O131  1  0.41047718  0.91758995  0.08246870  1  -1.116396  0.113356  -0.339635  -0.53204  0.07101  2.425458  0.103
O  O132  1  0.58952255  0.08241128  0.91753042  1  -1.116391  0.113355  -0.339628  -0.531996  0.071009  2.42544  0.103
O  O133  1  0.41854138  0.93793615  0.86214611  1  -1.128259  0.089149  -0.33432  -0.577601  0.055665  2.461487  0.082
O  O134  1  0.58145750  0.06206509  0.13785293  1  -1.128124  0.089149  -0.334324  -0.577582  0.055665  2.461411  0.082
O  O135  1  0.25684675  0.89761435  0.75256385  1  -1.097547  0.117655  -0.311635  -0.513932  0.073624  2.378487  0.104
O  O136  1  0.74315216  0.10238768  0.24743613  1  -1.097502  0.117656  -0.311647  -0.513937  0.073625  2.378464  0.104
O  O137  1  0.76979783  0.36076311  0.35062698  1  -1.156527  0.002094  -0.345468  -0.43751  0.00115  2.297581  0.001
O  O138  1  0.23020284  0.63923629  0.64937353  1  -1.156534  0.002094  -0.345442  -0.43749  0.00115  2.297575  0.001
O  O139  1  0.84348162  0.02814585  0.47367351  1  -1.163131  0.004674  -0.330964  -0.580395  0.002828  2.288573  0.005
O  O140  1  0.15651816  0.97185362  0.52632611  1  -1.16311  0.004675  -0.330951  -0.580361  0.002828  2.288606  0.005
O  O141  1  0.60707654  0.98796397  0.47803104  1  -1.103144  0.21805  -0.588205  -0.889688  0.140169  2.484719  0.195
O  O142  1  0.39292150  0.01203642  0.52196776  1  -1.103089  0.218051  -0.588198  -0.889725  0.140169  2.484706  0.195
O  O143  1  0.40624977  0.01768612  0.28658517  1  -1.241236  0.004063  -0.59849  -0.801552  0.002279  2.032418  0.005
O  O144  1  0.59374577  0.98231252  0.71341388  1  -1.241201  0.004063  -0.598417  -0.801402  0.002279  2.032695  0.005
