# generated using pymatgen
data_NaH13C14SIN5
_symmetry_space_group_name_H-M   'P 1'
_cell_length_a   10.04151972
_cell_length_b   10.25922258
_cell_length_c   10.30857729
_cell_angle_alpha   108.91727046
_cell_angle_beta   117.12610768
_cell_angle_gamma   102.15508950
_symmetry_Int_Tables_number   1
_chemical_formula_structural   NaH13C14SIN5
_chemical_formula_sum   'Na2 H26 C28 S2 I2 N10'
_cell_volume   809.06381016
_cell_formula_units_Z   2
loop_
 _symmetry_equiv_pos_site_id
 _symmetry_equiv_pos_as_xyz
  1  'x, y, z'
loop_
 _atom_site_type_symbol
 _atom_site_label
 _atom_site_symmetry_multiplicity
 _atom_site_fract_x
 _atom_site_fract_y
 _atom_site_fract_z
 _atom_site_occupancy
 _atom_site_pbe_bader_spin_density
 _atom_site_pbe_cm5_charge
 _atom_site_pbe_ddec_charge
 _atom_site_pbe_ddec_spin_density
 _atom_site_pbe_ddec_sum_bond_order
 _atom_site_pbe_magmom
Na  Na0  1  0.52457847  0.18856994  0.46156038  1  0  0.535265  0.70951  0  0.696478  0
Na  Na1  1  0.47542900  0.81143282  0.53844116  1  0  0.535255  0.709517  0  0.69647  0
H  H2  1  0.83912273  0.80675145  0.75188969  1  0  0.108876  0.116823  0  1.025376  0
H  H3  1  0.16087415  0.19325013  0.24810873  1  0  0.108883  0.116816  0  1.025399  0
H  H4  1  0.98114308  0.87037479  0.05586515  1  0  0.102231  0.108707  0  0.998105  0
H  H5  1  0.01885327  0.12962565  0.94413268  1  0  0.102223  0.108663  0  0.998141  0
H  H6  1  0.96256075  0.65883756  0.12178056  1  0  0.097636  0.11048  0  1.036308  0
H  H7  1  0.03743784  0.34116289  0.87821825  1  0  0.097632  0.110464  0  1.036331  0
H  H8  1  0.79282621  0.38790120  0.88539760  1  0  0.109465  0.071023  0  1.011629  0
H  H9  1  0.20717462  0.61209925  0.11460123  1  0  0.109464  0.071029  0  1.011625  0
H  H10  1  0.38654589  0.18179211  0.87868670  1  0  0.100301  0.102547  0  1.052036  0
H  H11  1  0.61345174  0.81820377  0.12131213  1  0  0.100297  0.102552  0  1.051995  0
H  H12  1  0.21089948  0.90432140  0.68790574  1  0  0.096669  0.106027  0  1.026719  0
H  H13  1  0.78910263  0.09567450  0.31209604  1  0  0.096661  0.105985  0  1.026758  0
H  H14  1  0.14701121  0.73906619  0.80800081  1  0  0.10064  0.100498  0  1.026603  0
H  H15  1  0.85298859  0.26093196  0.19200264  1  0  0.100632  0.10048  0  1.026548  0
H  H16  1  0.27199189  0.86293720  0.11518193  1  0  0.104989  0.061184  0  1.036536  0
H  H17  1  0.72800663  0.13706551  0.88482050  1  0  0.104986  0.061184  0  1.036521  0
H  H18  1  0.75960605  0.64854469  0.16672776  1  0  0.101583  0.119437  0  1.013552  0
H  H19  1  0.24039538  0.35145462  0.83327290  1  0  0.101579  0.119456  0  1.013546  0
H  H20  1  0.85486858  0.79426078  0.37416587  1  0  0.098772  0.132381  0  0.988778  0
H  H21  1  0.14513001  0.20573966  0.62583391  1  0  0.098775  0.132402  0  0.988758  0
H  H22  1  0.01918054  0.63867805  0.37041780  1  0  0.089896  0.131753  0  1.019909  0
H  H23  1  0.98082142  0.36132240  0.62958443  1  0  0.089901  0.13176  0  1.01991  0
H  H24  1  0.93569056  0.61551186  0.48457671  1  0  0.090918  0.127622  0  1.000464  0
H  H25  1  0.06431027  0.38448859  0.51542406  1  0  0.090919  0.127624  0  1.000458  0
H  H26  1  0.84058469  0.46915637  0.27771295  1  0  0.084655  0.11405  0  1.027656  0
H  H27  1  0.15941727  0.53084408  0.72228928  1  0  0.08465  0.114044  0  1.027659  0
C  C28  1  0.66107063  0.52409269  0.48600971  1  0  0.249524  0.367582  0  4.081805  0
C  C29  1  0.33892967  0.47590662  0.51398948  1  0  0.249513  0.367564  0  4.08181  0
C  C30  1  0.51709984  0.33463427  0.21168190  1  0  0.249416  0.370166  0  4.065538  0
C  C31  1  0.48289876  0.66536617  0.78831788  1  0  0.249428  0.37021  0  4.065549  0
C  C32  1  0.74340180  0.56504980  0.66557593  1  0  0.119113  0.150527  0  3.949014  0
C  C33  1  0.25659903  0.43495066  0.33442386  1  0  0.119105  0.150536  0  3.949054  0
C  C34  1  0.83236371  0.71848999  0.78863986  1  0  -0.073686  -0.138186  0  3.912736  0
C  C35  1  0.16763593  0.28151272  0.21136113  1  0  -0.073707  -0.138243  0  3.912724  0
C  C36  1  0.91008021  0.75303477  0.95480819  1  0  -0.070522  -0.027466  0  3.954165  0
C  C37  1  0.08991719  0.24696795  0.04519083  1  0  -0.07055  -0.027435  0  3.954261  0
C  C38  1  0.89843931  0.63401558  0.99228103  1  0  -0.085124  -0.122534  0  3.958769  0
C  C39  1  0.10156032  0.36598715  0.00771898  1  0  -0.085109  -0.122492  0  3.958936  0
C  C40  1  0.80610858  0.48452088  0.86147821  1  0  0.0401  0.083589  0  4.013524  0
C  C41  1  0.19389113  0.51547957  0.13852110  1  0  0.040108  0.083567  0  4.013561  0
C  C42  1  0.41758399  0.16701012  0.09436150  1  0  0.11958  0.145988  0  3.972688  0
C  C43  1  0.58241020  0.83298803  0.90563656  1  0  0.119581  0.145949  0  3.972636  0
C  C44  1  0.35603054  0.10739550  0.92545814  1  0  -0.074684  -0.131005  0  3.912345  0
C  C45  1  0.64396589  0.89260266  0.07453994  1  0  -0.074678  -0.131034  0  3.912257  0
C  C46  1  0.25788630  0.95171651  0.81955818  1  0  -0.06747  -0.014993  0  3.928573  0
C  C47  1  0.74211573  0.04828167  0.18044334  1  0  -0.067481  -0.014964  0  3.928493  0
C  C48  1  0.22465560  0.86107713  0.88629163  1  0  -0.083186  -0.122153  0  3.962388  0
C  C49  1  0.77534308  0.13892102  0.11371035  1  0  -0.08318  -0.122094  0  3.962323  0
C  C50  1  0.29352024  0.92939674  0.05683159  1  0  0.045286  0.095692  0  4.002386  0
C  C51  1  0.70647724  0.07060369  0.94317061  1  0  0.045319  0.095683  0  4.002414  0
C  C52  1  0.79642203  0.67005703  0.29263168  1  0  -0.152453  -0.219294  0  3.857917  0
C  C53  1  0.20357992  0.32994343  0.70736861  1  0  -0.152464  -0.219336  0  3.857854  0
C  C54  1  0.90323099  0.59278823  0.35985471  1  0  -0.246533  -0.330402  0  3.925165  0
C  C55  1  0.09676932  0.40721108  0.64014546  1  0  -0.246536  -0.330403  0  3.925109  0
S  S56  1  0.59873576  0.61012658  0.26746231  1  0  0.417163  0.612562  0  3.905462  0
S  S57  1  0.40126508  0.38987387  0.73253846  1  0  0.417147  0.612523  0  3.905435  0
I  I58  1  0.76496344  0.03863071  0.56304127  1  0  -0.34054  -0.678966  0  0.948654  0
I  I59  1  0.23504963  0.96137206  0.43696274  1  0  -0.340545  -0.678973  0  0.948634  0
N  N60  1  0.59883217  0.37623776  0.37611547  1  0  -0.417061  -0.518739  0  3.352526  0
N  N61  1  0.40116866  0.62376269  0.62388433  1  0  -0.417015  -0.518676  0  3.352456  0
N  N62  1  0.72901225  0.44939664  0.70109992  1  0  -0.373884  -0.328728  0  3.415632  0
N  N63  1  0.27098858  0.55060381  0.29889987  1  0  -0.373849  -0.328699  0  3.415634  0
N  N64  1  0.38818005  0.07883792  0.15949312  1  0  -0.382227  -0.32928  0  3.413124  0
N  N65  1  0.61181794  0.92116365  0.84050774  1  0  -0.382221  -0.329274  0  3.41308  0
N  N66  1  0.50758013  0.42195566  0.13987627  1  0  -0.341782  -0.481497  0  3.141432  0
N  N67  1  0.49241734  0.57804479  0.86012204  1  0  -0.341821  -0.481519  0  3.141465  0
N  N68  1  0.65225985  0.63965450  0.45570449  1  0  -0.352925  -0.494888  0  3.212684  0
N  N69  1  0.34773881  0.36034367  0.54429361  1  0  -0.352902  -0.494885  0  3.212707  0
