# generated using pymatgen
data_LiH5C5N2O5
_symmetry_space_group_name_H-M   'P 1'
_cell_length_a   3.50127920
_cell_length_b   10.30414452
_cell_length_c   17.93679573
_cell_angle_alpha   90.00032120
_cell_angle_beta   89.99943528
_cell_angle_gamma   89.37705052
_symmetry_Int_Tables_number   1
_chemical_formula_structural   LiH5C5N2O5
_chemical_formula_sum   'Li4 H20 C20 N8 O20'
_cell_volume   647.07985210
_cell_formula_units_Z   4
loop_
 _symmetry_equiv_pos_site_id
 _symmetry_equiv_pos_as_xyz
  1  'x, y, z'
loop_
 _atom_site_type_symbol
 _atom_site_label
 _atom_site_symmetry_multiplicity
 _atom_site_fract_x
 _atom_site_fract_y
 _atom_site_fract_z
 _atom_site_occupancy
 _atom_site_hle17_bader_spin_density
 _atom_site_hle17_ddec_charge
 _atom_site_hle17_ddec_spin_density
 _atom_site_hle17_ddec_sum_bond_order
 _atom_site_hle17_magmom
 _atom_site_hse06_10hf_bader_spin_density
 _atom_site_hse06_10hf_ddec_charge
 _atom_site_hse06_10hf_ddec_spin_density
 _atom_site_hse06_10hf_ddec_sum_bond_order
 _atom_site_hse06_10hf_magmom
 _atom_site_hse06_bader_spin_density
 _atom_site_hse06_ddec_charge
 _atom_site_hse06_ddec_spin_density
 _atom_site_hse06_ddec_sum_bond_order
 _atom_site_hse06_magmom
 _atom_site_pbe_bader_spin_density
 _atom_site_pbe_cm5_charge
 _atom_site_pbe_ddec_charge
 _atom_site_pbe_ddec_spin_density
 _atom_site_pbe_ddec_sum_bond_order
 _atom_site_pbe_magmom
Li  Li0  1  0.46807212  0.13254155  0.53337988  1  0  0.85978  0  0.379298  0  0  0.821047  0  0.480562  0  0  0.830499  0  0.463838  0  0  0.489975  0.814109  0  0.492805  0
Li  Li1  1  0.03193569  0.36745806  0.03338279  1  0  0.859773  0  0.379309  0  0  0.821037  0  0.480576  0  0  0.830489  0  0.463853  0  0  0.489978  0.814099  0  0.49282  0
Li  Li2  1  0.53193838  0.86745222  0.46661828  1  0  0.859767  0  0.3793  0  0  0.821052  0  0.480544  0  0  0.830497  0  0.463824  0  0  0.489985  0.814116  0  0.492783  0
Li  Li3  1  0.96807201  0.63254639  0.96662039  1  0  0.859775  0  0.379293  0  0  0.821035  0  0.480579  0  0  0.830488  0  0.463853  0  0  0.48997  0.814097  0  0.492822  0
H  H4  1  0.06680565  0.46371382  0.23815974  1  0  0.340823  0  0.900988  0  0  0.313657  0  0.969696  0  0  0.324259  0  0.961073  0  0  0.31661  0.306119  0  0.975872  0
H  H5  1  0.43318582  0.03628489  0.73816438  1  0  0.340748  0  0.901099  0  0  0.313597  0  0.969778  0  0  0.324182  0  0.961169  0  0  0.316596  0.306062  0  0.975949  0
H  H6  1  0.93318775  0.53628681  0.76183786  1  0  0.340796  0  0.901021  0  0  0.313649  0  0.969718  0  0  0.324244  0  0.961097  0  0  0.316601  0.306112  0  0.975894  0
H  H7  1  0.56682187  0.96371762  0.26183880  1  0  0.340788  0  0.901056  0  0  0.313602  0  0.969797  0  0  0.32419  0  0.961184  0  0  0.31661  0.306067  0  0.97597  0
H  H8  1  0.62675419  0.54956897  0.44448439  1  0  0.334152  0  0.892677  0  0  0.310548  0  0.95885  0  0  0.321034  0  0.949738  0  0  0.316919  0.303188  0  0.965348  0
H  H9  1  0.87323167  0.95043535  0.94448717  1  0  0.334214  0  0.892584  0  0  0.310589  0  0.958774  0  0  0.32107  0  0.949669  0  0  0.316948  0.30323  0  0.965274  0
H  H10  1  0.37323921  0.45043263  0.55551266  1  0  0.334169  0  0.892635  0  0  0.31056  0  0.958813  0  0  0.321045  0  0.949706  0  0  0.316945  0.303202  0  0.965309  0
H  H11  1  0.12678176  0.04957102  0.05551712  1  0  0.334166  0  0.892568  0  0  0.310525  0  0.958797  0  0  0.32101  0  0.949688  0  0  0.31691  0.303167  0  0.965297  0
H  H12  1  0.98126346  0.23374943  0.25811468  1  0  0.117831  0  0.941953  0  0  0.120609  0  1.012728  0  0  0.124955  0  1.007249  0  0  0.133386  0.117325  0  1.016916  0
H  H13  1  0.51874587  0.26625070  0.75811529  1  0  0.117721  0  0.942015  0  0  0.120637  0  1.012653  0  0  0.12488  0  1.0073  0  0  0.1334  0.117352  0  1.016839  0
H  H14  1  0.01873565  0.76625118  0.74188515  1  0  0.117717  0  0.941972  0  0  0.12057  0  1.012683  0  0  0.124859  0  1.007278  0  0  0.133365  0.117287  0  1.016871  0
H  H15  1  0.48124469  0.73375285  0.24188733  1  0  0.117762  0  0.942077  0  0  0.120671  0  1.012712  0  0  0.124919  0  1.00735  0  0  0.133414  0.117394  0  1.016888  0
H  H16  1  0.00936260  0.08789992  0.62360148  1  0  0.417627  0  0.89464  0  0  0.38668  0  0.959593  0  0  0.397567  0  0.94357  0  0  0.29887  0.378815  0  0.971211  0
H  H17  1  0.49063482  0.41210059  0.12360312  1  0  0.417588  0  0.894684  0  0  0.386638  0  0.959647  0  0  0.397532  0  0.943612  0  0  0.298843  0.378771  0  0.971268  0
H  H18  1  0.99065077  0.91209771  0.37639501  1  0  0.417665  0  0.894562  0  0  0.386694  0  0.959547  0  0  0.397581  0  0.943524  0  0  0.298869  0.37883  0  0.971163  0
H  H19  1  0.50936714  0.58789904  0.87639727  1  0  0.417591  0  0.894678  0  0  0.386641  0  0.959635  0  0  0.397532  0  0.943605  0  0  0.298849  0.378776  0  0.971251  0
H  H20  1  0.99980339  0.24044857  0.61613459  1  0  0.427741  0  0.878156  0  0  0.398342  0  0.939477  0  0  0.408266  0  0.924783  0  0  0.29947  0.39095  0  0.950479  0
H  H21  1  0.50020472  0.25954829  0.11613776  1  0  0.427646  0  0.878265  0  0  0.398266  0  0.939571  0  0  0.408211  0  0.924847  0  0  0.299427  0.39088  0  0.950564  0
H  H22  1  0.00019569  0.75954622  0.38386246  1  0  0.427606  0  0.878317  0  0  0.398273  0  0.939546  0  0  0.408209  0  0.924837  0  0  0.299434  0.390884  0  0.950544  0
H  H23  1  0.49979439  0.74045135  0.88386375  1  0  0.427642  0  0.878285  0  0  0.398251  0  0.939595  0  0  0.40818  0  0.924895  0  0  0.299429  0.390862  0  0.950594  0
C  C24  1  0.84643273  0.52361587  0.33867372  1  0  0.738504  0  3.833163  0  0  0.662206  0  4.14373  0  0  0.697623  0  4.139116  0  0  0.348976  0.637922  0  4.146443  0
C  C25  1  0.65354149  0.97638944  0.83867755  1  0  0.738603  0  3.8331  0  0  0.662169  0  4.143856  0  0  0.697566  0  4.139257  0  0  0.348926  0.637879  0  4.146576  0
C  C26  1  0.15354922  0.47638092  0.66132110  1  0  0.738456  0  3.833238  0  0  0.662071  0  4.143915  0  0  0.697463  0  4.13932  0  0  0.34886  0.637782  0  4.146636  0
C  C27  1  0.34646622  0.02361501  0.16132563  1  0  0.738517  0  3.833234  0  0  0.662196  0  4.143862  0  0  0.697626  0  4.139226  0  0  0.348958  0.637911  0  4.146581  0
C  C28  1  0.63417035  0.34979439  0.42397036  1  0  0.604882  0  3.801776  0  0  0.549798  0  4.097259  0  0  0.581876  0  4.096717  0  0  0.245928  0.528455  0  4.096722  0
C  C29  1  0.86580752  0.15020745  0.92397439  1  0  0.604997  0  3.801513  0  0  0.549832  0  4.097121  0  0  0.581906  0  4.096587  0  0  0.245948  0.52849  0  4.09659  0
C  C30  1  0.36581447  0.65020434  0.57602781  1  0  0.604756  0  3.801828  0  0  0.549668  0  4.097313  0  0  0.581741  0  4.096773  0  0  0.245873  0.528328  0  4.096768  0
C  C31  1  0.13420875  0.84979697  0.07602712  1  0  0.604768  0  3.801747  0  0  0.549699  0  4.097203  0  0  0.58178  0  4.096668  0  0  0.245868  0.528358  0  4.096669  0
C  C32  1  0.74086008  0.25574455  0.36733178  1  0  -0.333172  0  3.709597  0  0  -0.317425  0  3.976591  0  0  -0.341056  0  3.997597  0  0  -0.034361  -0.301619  0  3.962374  0
C  C33  1  0.75913787  0.24425569  0.86733353  1  0  -0.333015  0  3.709392  0  0  -0.317298  0  3.976667  0  0  -0.340932  0  3.99764  0  0  -0.034279  -0.301486  0  3.962467  0
C  C34  1  0.25913617  0.74425510  0.63266694  1  0  -0.333158  0  3.709587  0  0  -0.317354  0  3.97654  0  0  -0.340985  0  3.99754  0  0  -0.034333  -0.301549  0  3.962348  0
C  C35  1  0.24087269  0.75574874  0.13266798  1  0  -0.333016  0  3.70941  0  0  -0.317205  0  3.976479  0  0  -0.340832  0  3.997457  0  0  -0.034268  -0.301392  0  3.962263  0
C  C36  1  0.89241841  0.30129744  0.30172133  1  0  0.219758  0  3.642697  0  0  0.160286  0  3.911249  0  0  0.179444  0  3.921543  0  0  0.074753  0.147593  0  3.904133  0
C  C37  1  0.60758008  0.19870122  0.80172211  1  0  0.219778  0  3.642534  0  0  0.160217  0  3.91112  0  0  0.179439  0  3.921469  0  0  0.074764  0.147524  0  3.904  0
C  C38  1  0.10758069  0.69869929  0.69827795  1  0  0.219893  0  3.642608  0  0  0.160331  0  3.911202  0  0  0.179519  0  3.921528  0  0  0.074796  0.147637  0  3.904079  0
C  C39  1  0.39242475  0.80129937  0.19827885  1  0  0.219814  0  3.642677  0  0  0.160231  0  3.9112  0  0  0.179461  0  3.921551  0  0  0.074804  0.147537  0  3.904074  0
C  C40  1  0.70062513  0.11216506  0.37676303  1  0  0.728146  0  3.881643  0  0  0.673296  0  4.181747  0  0  0.708647  0  4.173222  0  0  0.233753  0.648749  0  4.187786  0
C  C41  1  0.79938085  0.38782651  0.87676463  1  0  0.728509  0  3.881047  0  0  0.673444  0  4.181584  0  0  0.708818  0  4.173017  0  0  0.233815  0.64887  0  4.187645  0
C  C42  1  0.29937970  0.88783552  0.62323514  1  0  0.728151  0  3.881314  0  0  0.67325  0  4.181486  0  0  0.708595  0  4.172971  0  0  0.233783  0.648693  0  4.187527  0
C  C43  1  0.20062395  0.61217019  0.12323577  1  0  0.728261  0  3.881245  0  0  0.673193  0  4.181699  0  0  0.708556  0  4.173157  0  0  0.23369  0.648621  0  4.187756  0
N  N44  1  0.94080500  0.42890715  0.28759746  1  0  -0.414685  0  3.335011  0  0  -0.346528  0  3.58164  0  0  -0.371621  0  3.588718  0  0  -0.370681  -0.329315  0  3.576564  0
N  N45  1  0.55917993  0.07108851  0.78760069  1  0  -0.414622  0  3.334961  0  0  -0.346409  0  3.581649  0  0  -0.371501  0  3.588718  0  0  -0.370682  -0.329196  0  3.576569  0
N  N46  1  0.05918267  0.57108865  0.71239959  1  0  -0.414567  0  3.334792  0  0  -0.346388  0  3.581447  0  0  -0.371482  0  3.588528  0  0  -0.370611  -0.329175  0  3.576378  0
N  N47  1  0.44082775  0.92891109  0.21240194  1  0  -0.41473  0  3.33506  0  0  -0.346515  0  3.581746  0  0  -0.371593  0  3.588784  0  0  -0.370755  -0.329304  0  3.57667  0
N  N48  1  0.69738056  0.47929628  0.40471512  1  0  -0.53179  0  3.235138  0  0  -0.469363  0  3.482527  0  0  -0.494945  0  3.483683  0  0  -0.382561  -0.452043  0  3.481434  0
N  N49  1  0.80258975  0.02070638  0.90471884  1  0  -0.531892  0  3.234842  0  0  -0.469401  0  3.482328  0  0  -0.494987  0  3.483497  0  0  -0.382535  -0.452077  0  3.48124  0
N  N50  1  0.30259855  0.52070344  0.59528137  1  0  -0.531753  0  3.235084  0  0  -0.469307  0  3.482506  0  0  -0.494899  0  3.483685  0  0  -0.382529  -0.451985  0  3.481415  0
N  N51  1  0.19742366  0.97929805  0.09528378  1  0  -0.531727  0  3.234982  0  0  -0.469345  0  3.482483  0  0  -0.494928  0  3.483632  0  0  -0.3825  -0.452021  0  3.481392  0
O  O52  1  0.89677238  0.64034575  0.32521382  1  0  -0.586242  0  1.959218  0  0  -0.531047  0  2.180958  0  0  -0.552945  0  2.170423  0  0  -0.278053  -0.515762  0  2.188557  0
O  O53  1  0.60319963  0.85965168  0.82521792  1  0  -0.586352  0  1.959195  0  0  -0.531042  0  2.180944  0  0  -0.552906  0  2.170415  0  0  -0.278045  -0.515755  0  2.188548  0
O  O54  1  0.10321243  0.35965104  0.67478267  1  0  -0.58634  0  1.959341  0  0  -0.531041  0  2.181057  0  0  -0.552871  0  2.170502  0  0  -0.278042  -0.515739  0  2.188644  0
O  O55  1  0.39679376  0.14034798  0.17478693  1  0  -0.586222  0  1.959267  0  0  -0.530954  0  2.18096  0  0  -0.552917  0  2.170502  0  0  -0.278006  -0.515681  0  2.188576  0
O  O56  1  0.49158704  0.32736609  0.48670128  1  0  -0.583757  0  1.96253  0  0  -0.535283  0  2.19068  0  0  -0.555429  0  2.181348  0  0  -0.295321  -0.521339  0  2.196683  0
O  O57  1  0.00839727  0.17263693  0.98670438  1  0  -0.583949  0  1.96255  0  0  -0.535349  0  2.190721  0  0  -0.555483  0  2.181392  0  0  -0.295367  -0.521399  0  2.196732  0
O  O58  1  0.50840351  0.67263552  0.51329912  1  0  -0.583707  0  1.962551  0  0  -0.535256  0  2.19074  0  0  -0.555395  0  2.181403  0  0  -0.295327  -0.521306  0  2.196739  0
O  O59  1  0.99161899  0.82736457  0.01329601  1  0  -0.583762  0  1.962444  0  0  -0.535293  0  2.190653  0  0  -0.555432  0  2.181326  0  0  -0.295345  -0.521344  0  2.19666  0
O  O60  1  0.54639546  0.06850646  0.43501319  1  0  -0.721269  0  1.991974  0  0  -0.674644  0  2.233862  0  0  -0.696012  0  2.221756  0  0  -0.396441  -0.659818  0  2.242594  0
O  O61  1  0.95360749  0.43148275  0.93501688  1  0  -0.72148  0  1.991736  0  0  -0.674764  0  2.233743  0  0  -0.696141  0  2.221629  0  0  -0.396516  -0.659926  0  2.242484  0
O  O62  1  0.45360081  0.93149512  0.56498386  1  0  -0.721231  0  1.991934  0  0  -0.674623  0  2.233878  0  0  -0.695998  0  2.221779  0  0  -0.39646  -0.659795  0  2.242606  0
O  O63  1  0.04638587  0.56851011  0.06498352  1  0  -0.721318  0  1.991764  0  0  -0.674658  0  2.233803  0  0  -0.696029  0  2.221693  0  0  -0.396455  -0.659826  0  2.242541  0
O  O64  1  0.83406071  0.04002341  0.32428463  1  0  -0.666233  0  1.988701  0  0  -0.608468  0  2.216275  0  0  -0.63411  0  2.206704  0  0  -0.320212  -0.590111  0  2.222557  0
O  O65  1  0.66596800  0.45997047  0.82428448  1  0  -0.666373  0  1.988335  0  0  -0.608545  0  2.215993  0  0  -0.63422  0  2.206463  0  0  -0.320238  -0.590198  0  2.222344  0
O  O66  1  0.16594984  0.95997909  0.67571856  1  0  -0.666244  0  1.988357  0  0  -0.608457  0  2.215955  0  0  -0.634069  0  2.206336  0  0  -0.320208  -0.590106  0  2.222252  0
O  O67  1  0.33404826  0.54003103  0.17571926  1  0  -0.666342  0  1.988597  0  0  -0.608423  0  2.216174  0  0  -0.634097  0  2.206638  0  0  -0.320189  -0.59007  0  2.222504  0
O  O68  1  0.95803752  0.15974356  0.58723914  1  0  -0.952076  0  1.827336  0  0  -0.913757  0  2.009236  0  0  -0.928082  0  1.97537  0  0  -0.681038  -0.903267  0  2.033809  0
O  O69  1  0.54195209  0.34025311  0.08724139  1  0  -0.951944  0  1.82744  0  0  -0.913649  0  2.009312  0  0  -0.927962  0  1.975406  0  0  -0.680971  -0.903154  0  2.033881  0
O  O70  1  0.04196441  0.84025024  0.41275846  1  0  -0.951964  0  1.827331  0  0  -0.913658  0  2.009178  0  0  -0.92797  0  1.975287  0  0  -0.680987  -0.903172  0  2.033747  0
O  O71  1  0.45803846  0.65974850  0.91275901  1  0  -0.95195  0  1.827396  0  0  -0.913608  0  2.009293  0  0  -0.927925  0  1.975419  0  0  -0.680979  -0.903112  0  2.033865  0
