# generated using pymatgen
data_LaH11(C5O3)3
_symmetry_space_group_name_H-M   'P 1'
_cell_length_a   9.31393730
_cell_length_b   10.01803502
_cell_length_c   11.24051230
_cell_angle_alpha   92.00813765
_cell_angle_beta   98.18134220
_cell_angle_gamma   110.08043773
_symmetry_Int_Tables_number   1
_chemical_formula_structural   LaH11(C5O3)3
_chemical_formula_sum   'La2 H22 C30 O18'
_cell_volume   971.06174755
_cell_formula_units_Z   2
loop_
 _symmetry_equiv_pos_site_id
 _symmetry_equiv_pos_as_xyz
  1  'x, y, z'
loop_
 _atom_site_type_symbol
 _atom_site_label
 _atom_site_symmetry_multiplicity
 _atom_site_fract_x
 _atom_site_fract_y
 _atom_site_fract_z
 _atom_site_occupancy
 _atom_site_hle17_bader_spin_density
 _atom_site_hle17_ddec_charge
 _atom_site_hle17_ddec_spin_density
 _atom_site_hle17_ddec_sum_bond_order
 _atom_site_hle17_magmom
 _atom_site_hse06_10hf_bader_spin_density
 _atom_site_hse06_10hf_ddec_charge
 _atom_site_hse06_10hf_ddec_spin_density
 _atom_site_hse06_10hf_ddec_sum_bond_order
 _atom_site_hse06_10hf_magmom
 _atom_site_hse06_bader_spin_density
 _atom_site_hse06_ddec_charge
 _atom_site_hse06_ddec_spin_density
 _atom_site_hse06_ddec_sum_bond_order
 _atom_site_hse06_magmom
 _atom_site_pbe_bader_spin_density
 _atom_site_pbe_cm5_charge
 _atom_site_pbe_ddec_charge
 _atom_site_pbe_ddec_spin_density
 _atom_site_pbe_ddec_sum_bond_order
 _atom_site_pbe_magmom
La  La0  1  0.28627721  0.04565525  0.98481140  1  0  2.107104  0  1.802186  0  0  1.978974  0  2.3354  0  0  2.081624  0  2.234268  0  0  1.410441  1.90144  0  2.407012  0
La  La1  1  0.71372347  0.95434436  0.01518907  1  0  2.107109  0  1.802195  0  0  1.978966  0  2.335415  0  0  2.08162  0  2.234279  0  0  1.410443  1.901425  0  2.407033  0
H  H2  1  0.32663757  0.48668140  0.03219337  1  0  0.116553  0  0.937457  0  0  0.123429  0  1.002266  0  0  0.128316  0  0.997594  0  0  0.111619  0.119667  0  1.006106  0
H  H3  1  0.67336636  0.51331818  0.96781013  1  0  0.116558  0  0.937459  0  0  0.123421  0  1.002282  0  0  0.128309  0  0.997608  0  0  0.111626  0.119659  0  1.006122  0
H  H4  1  0.19138290  0.79564844  0.22143352  1  0  0.131891  0  0.945882  0  0  0.14031  0  1.007813  0  0  0.144222  0  1.004881  0  0  0.117426  0.137508  0  1.009934  0
H  H5  1  0.80861778  0.20435117  0.77856695  1  0  0.131902  0  0.945904  0  0  0.140326  0  1.007822  0  0  0.144243  0  1.004892  0  0  0.117437  0.137522  0  1.009945  0
H  H6  1  0.89339599  0.35332795  0.16657642  1  0  0.123398  0  0.953559  0  0  0.128563  0  1.023608  0  0  0.132522  0  1.020727  0  0  0.112438  0.125668  0  1.02578  0
H  H7  1  0.10660645  0.64667058  0.83342598  1  0  0.123446  0  0.953559  0  0  0.128612  0  1.023599  0  0  0.132575  0  1.02071  0  0  0.112466  0.125717  0  1.025772  0
H  H8  1  0.17657117  0.59081160  0.42116903  1  0  0.11306  0  0.945242  0  0  0.12641  0  0.996501  0  0  0.129119  0  0.997074  0  0  0.107977  0.124712  0  0.995899  0
H  H9  1  0.82342218  0.40918589  0.57882963  1  0  0.113045  0  0.945228  0  0  0.126392  0  0.996488  0  0  0.1291  0  0.997062  0  0  0.107967  0.124693  0  0.995887  0
H  H10  1  0.27729436  0.72417156  0.62316567  1  0  0.093888  0  0.950847  0  0  0.104559  0  1.010497  0  0  0.10854  0  1.006537  0  0  0.103903  0.101584  0  1.013543  0
H  H11  1  0.72269966  0.27582486  0.37683213  1  0  0.093874  0  0.950776  0  0  0.10455  0  1.010433  0  0  0.108532  0  1.006474  0  0  0.103903  0.101571  0  1.013485  0
H  H12  1  0.91627439  0.90356679  0.57524012  1  0  0.09346  0  0.955686  0  0  0.104022  0  1.015333  0  0  0.107095  0  1.013382  0  0  0.104165  0.101619  0  1.017175  0
H  H13  1  0.08372384  0.09643496  0.42476015  1  0  0.093471  0  0.955675  0  0  0.104033  0  1.015328  0  0  0.107106  0  1.013377  0  0  0.104165  0.101629  0  1.017172  0
H  H14  1  0.81521103  0.77007466  0.37009284  1  0  0.131932  0  0.922648  0  0  0.142395  0  0.97688  0  0  0.14662  0  0.97462  0  0  0.115902  0.139288  0  0.978791  0
H  H15  1  0.18478585  0.22992922  0.62990648  1  0  0.131891  0  0.922657  0  0  0.142347  0  0.976896  0  0  0.146572  0  0.974634  0  0  0.115872  0.13924  0  0.978806  0
H  H16  1  0.58091422  0.18227447  0.19378176  1  0  0.443811  0  0.855504  0  0  0.409624  0  0.924542  0  0  0.421994  0  0.906483  0  0  0.300917  0.400779  0  0.937435  0
H  H17  1  0.41908537  0.81772513  0.80621948  1  0  0.443845  0  0.855437  0  0  0.409652  0  0.924491  0  0  0.42202  0  0.906433  0  0  0.300918  0.400806  0  0.937386  0
H  H18  1  0.08299774  0.02633780  0.21337258  1  0  0.442324  0  0.849688  0  0  0.411895  0  0.912385  0  0  0.423738  0  0.89516  0  0  0.304319  0.403362  0  0.924787  0
H  H19  1  0.91700062  0.97365862  0.78662661  1  0  0.442199  0  0.849853  0  0  0.411746  0  0.912597  0  0  0.423591  0  0.895369  0  0  0.304234  0.403213  0  0.924998  0
H  H20  1  0.53273766  0.31446613  0.15588563  1  0  0.431993  0  0.814156  0  0  0.420442  0  0.859503  0  0  0.428476  0  0.849313  0  0  0.334371  0.41442  0  0.865885  0
H  H21  1  0.46725636  0.68553030  0.84411218  1  0  0.431991  0  0.814239  0  0  0.420445  0  0.859578  0  0  0.428479  0  0.849331  0  0  0.334384  0.414423  0  0.865957  0
H  H22  1  0.26354502  0.11664868  0.24677412  1  0  0.42189  0  0.837395  0  0  0.404467  0  0.892022  0  0  0.413626  0  0.878681  0  0  0.319521  0.397917  0  0.901453  0
H  H23  1  0.73645308  0.88334987  0.75322512  1  0  0.421845  0  0.837426  0  0  0.404419  0  0.892084  0  0  0.413578  0  0.878743  0  0  0.319502  0.397867  0  0.901493  0
C  C24  1  0.07006922  0.25831017  0.03519037  1  0  0.708803  0  3.88004  0  0  0.662207  0  4.172746  0  0  0.699713  0  4.163486  0  0  0.238753  0.636388  0  4.178027  0
C  C25  1  0.92993621  0.74169049  0.96481246  1  0  0.708748  0  3.880166  0  0  0.662192  0  4.172802  0  0  0.699698  0  4.163542  0  0  0.238779  0.636374  0  4.17808  0
C  C26  1  0.10555700  0.40589637  0.09161487  1  0  -0.060891  0  3.779289  0  0  -0.035383  0  4.014102  0  0  -0.044197  0  4.037519  0  0  -0.016313  -0.029691  0  3.998224  0
C  C27  1  0.89444733  0.59410431  0.90838606  1  0  -0.060735  0  3.779353  0  0  -0.035243  0  4.014154  0  0  -0.044058  0  4.037572  0  0  -0.016321  -0.029553  0  3.998275  0
C  C28  1  0.24478970  0.51289896  0.08011626  1  0  -0.079484  0  3.697823  0  0  -0.119872  0  3.948248  0  0  -0.117578  0  3.965762  0  0  -0.077646  -0.120927  0  3.936381  0
C  C29  1  0.75521355  0.48710172  0.91988454  1  0  -0.079531  0  3.697867  0  0  -0.119898  0  3.948286  0  0  -0.117604  0  3.965801  0  0  -0.077669  -0.120954  0  3.936421  0
C  C30  1  0.27515905  0.65334538  0.12540200  1  0  -0.041909  0  3.767076  0  0  -0.016242  0  4.002508  0  0  -0.023703  0  4.023791  0  0  -0.010105  -0.011341  0  3.988183  0
C  C31  1  0.72484311  0.34665530  0.87459779  1  0  -0.041957  0  3.767107  0  0  -0.0163  0  4.002529  0  0  -0.023761  0  4.023812  0  0  -0.010109  -0.0114  0  3.988205  0
C  C32  1  0.41965930  0.76603061  0.10248571  1  0  0.668974  0  3.895879  0  0  0.625367  0  4.185973  0  0  0.661156  0  4.179811  0  0  0.219234  0.600773  0  4.188952  0
C  C33  1  0.58034328  0.23397112  0.89751684  1  0  0.668969  0  3.89592  0  0  0.625377  0  4.185987  0  0  0.661166  0  4.179822  0  0  0.219203  0.600782  0  4.188966  0
C  C34  1  0.17018327  0.68593345  0.18793934  1  0  -0.151734  0  3.675771  0  0  -0.188863  0  3.926735  0  0  -0.188991  0  3.943702  0  0  -0.077251  -0.188828  0  3.915724  0
C  C35  1  0.82981849  0.31406617  0.81206124  1  0  -0.151799  0  3.675752  0  0  -0.188891  0  3.926718  0  0  -0.189027  0  3.943691  0  0  -0.077284  -0.188854  0  3.915705  0
C  C36  1  0.03692084  0.57563424  0.20623641  1  0  0.255765  0  3.788426  0  0  0.25097  0  4.055784  0  0  0.257677  0  4.072344  0  0  0.08253  0.245987  0  4.044979  0
C  C37  1  0.96307983  0.42436538  0.79376317  1  0  0.255945  0  3.788186  0  0  0.251038  0  4.055668  0  0  0.257746  0  4.072227  0  0  0.082563  0.246054  0  4.044862  0
C  C38  1  0.00095900  0.43691399  0.15591266  1  0  -0.153849  0  3.69516  0  0  -0.193602  0  3.953784  0  0  -0.194023  0  3.972417  0  0  -0.084192  -0.193256  0  3.941415  0
C  C39  1  0.99904317  0.56308668  0.84408891  1  0  -0.153992  0  3.695127  0  0  -0.193712  0  3.953776  0  0  -0.194132  0  3.972413  0  0  -0.084183  -0.193365  0  3.941407  0
C  C40  1  0.99084999  0.67449934  0.38423950  1  0  0.296393  0  3.777955  0  0  0.28695  0  4.039989  0  0  0.299503  0  4.054926  0  0  0.096148  0.278168  0  4.030081  0
C  C41  1  0.00914784  0.32550133  0.61576158  1  0  0.296203  0  3.778107  0  0  0.286834  0  4.040027  0  0  0.299386  0  4.054966  0  0  0.096131  0.278052  0  4.030117  0
C  C42  1  0.12015260  0.65963099  0.45520345  1  0  -0.19843  0  3.775124  0  0  -0.21827  0  4.026176  0  0  -0.226404  0  4.048618  0  0  -0.102973  -0.212676  0  4.011158  0
C  C43  1  0.87984414  0.34036973  0.54479306  1  0  -0.198454  0  3.775152  0  0  -0.218312  0  4.026177  0  0  -0.226447  0  4.048624  0  0  -0.103025  -0.212718  0  4.011156  0
C  C44  1  0.17583194  0.73423178  0.56836140  1  0  -0.032165  0  3.750148  0  0  -0.057102  0  3.99929  0  0  -0.053737  0  4.018138  0  0  -0.082186  -0.05913  0  3.98667  0
C  C45  1  0.82416723  0.26576678  0.43163708  1  0  -0.032038  0  3.750066  0  0  -0.056986  0  3.999209  0  0  -0.053632  0  4.01805  0  0  -0.082124  -0.059005  0  3.986595  0
C  C46  1  0.10355397  0.82321070  0.61268492  1  0  -0.107057  0  3.798079  0  0  -0.08678  0  4.037557  0  0  -0.097395  0  4.061706  0  0  -0.03415  -0.080035  0  4.021396  0
C  C47  1  0.89644412  0.17678787  0.38731344  1  0  -0.107037  0  3.797957  0  0  -0.086758  0  4.037447  0  0  -0.09734  0  4.061552  0  0  -0.034137  -0.080034  0  4.021311  0
C  C48  1  0.16859737  0.90786160  0.73107850  1  0  0.655129  0  3.898676  0  0  0.605977  0  4.193503  0  0  0.641128  0  4.187806  0  0  0.206778  0.581975  0  4.19641  0
C  C49  1  0.83139964  0.09213696  0.26892062  1  0  0.655108  0  3.898611  0  0  0.605944  0  4.193462  0  0  0.641084  0  4.187766  0  0  0.206733  0.581948  0  4.196369  0
C  C50  1  0.97116765  0.83299169  0.54173039  1  0  -0.045357  0  3.755866  0  0  -0.068928  0  4.006531  0  0  -0.066465  0  4.026821  0  0  -0.082003  -0.070274  0  3.99298  0
C  C51  1  0.02883166  0.16701007  0.45826822  1  0  -0.045387  0  3.75578  0  0  -0.068965  0  4.006454  0  0  -0.066513  0  4.026735  0  0  -0.082007  -0.070304  0  3.992909  0
C  C52  1  0.91414466  0.75919202  0.42793685  1  0  -0.177964  0  3.72035  0  0  -0.201887  0  3.977264  0  0  -0.208045  0  3.994944  0  0  -0.097558  -0.198063  0  3.965573  0
C  C53  1  0.08585248  0.24080975  0.57206152  1  0  -0.177862  0  3.720344  0  0  -0.201798  0  3.97722  0  0  -0.207956  0  3.994905  0  0  -0.097532  -0.197974  0  3.965527  0
O  O54  1  0.93348327  0.16925006  0.02775229  1  0  -0.707762  0  2.087806  0  0  -0.661202  0  2.358502  0  0  -0.697133  0  2.350743  0  0  -0.400689  -0.634855  0  2.362972  0
O  O55  1  0.06652309  0.83074744  0.97224696  1  0  -0.707743  0  2.087788  0  0  -0.661228  0  2.358525  0  0  -0.697159  0  2.350766  0  0  -0.400741  -0.634882  0  2.362994  0
O  O56  1  0.17964986  0.23019495  0.99736976  1  0  -0.692313  0  2.029016  0  0  -0.647738  0  2.289873  0  0  -0.681931  0  2.278257  0  0  -0.402606  -0.622623  0  2.296886  0
O  O57  1  0.82036058  0.76981319  0.00263216  1  0  -0.692298  0  2.029132  0  0  -0.647739  0  2.289993  0  0  -0.681932  0  2.278377  0  0  -0.40258  -0.622622  0  2.297004  0
O  O58  1  0.54022188  0.73485855  0.10151095  1  0  -0.645507  0  1.923659  0  0  -0.607631  0  2.153856  0  0  -0.636729  0  2.143705  0  0  -0.36085  -0.586708  0  2.160308  0
O  O59  1  0.45978070  0.26514318  0.89849159  1  0  -0.645477  0  1.923662  0  0  -0.607604  0  2.153853  0  0  -0.6367  0  2.1437  0  0  -0.360813  -0.58668  0  2.160303  0
O  O60  1  0.41830859  0.89107097  0.07991815  1  0  -0.752057  0  2.037998  0  0  -0.70016  0  2.30077  0  0  -0.739231  0  2.29345  0  0  -0.409623  -0.671464  0  2.304481  0
O  O61  1  0.58168950  0.10892762  0.92007753  1  0  -0.75202  0  2.037938  0  0  -0.700161  0  2.300761  0  0  -0.739231  0  2.293441  0  0  -0.409603  -0.671463  0  2.304471  0
O  O62  1  0.93186993  0.60403686  0.27072988  1  0  -0.286861  0  2.300955  0  0  -0.222615  0  2.519282  0  0  -0.23937  0  2.519823  0  0  -0.151594  -0.210442  0  2.518538  0
O  O63  1  0.06812748  0.39596277  0.72926844  1  0  -0.286856  0  2.301048  0  0  -0.222583  0  2.519365  0  0  -0.239339  0  2.519906  0  0  -0.151602  -0.210411  0  2.51862  0
O  O64  1  0.28889376  0.89557139  0.79506662  1  0  -0.70389  0  2.045793  0  0  -0.647403  0  2.286159  0  0  -0.67948  0  2.276995  0  0  -0.362421  -0.624396  0  2.291602  0
O  O65  1  0.71110298  0.10442929  0.20493344  1  0  -0.703899  0  2.045768  0  0  -0.647396  0  2.286119  0  0  -0.679475  0  2.276963  0  0  -0.362386  -0.624384  0  2.291552  0
O  O66  1  0.10746653  0.99350672  0.77066881  1  0  -0.674075  0  1.981193  0  0  -0.621206  0  2.214232  0  0  -0.652076  0  2.205998  0  0  -0.344047  -0.599005  0  2.21914  0
O  O67  1  0.89253157  0.00649183  0.22933132  1  0  -0.674072  0  1.981152  0  0  -0.621227  0  2.214207  0  0  -0.652096  0  2.205978  0  0  -0.344047  -0.599024  0  2.219111  0
O  O68  1  0.49043788  0.21457573  0.17114973  1  0  -0.869065  0  1.778487  0  0  -0.821421  0  1.948549  0  0  -0.844894  0  1.916865  0  0  -0.593571  -0.804392  0  1.969805  0
O  O69  1  0.50955982  0.78542173  0.82885209  1  0  -0.869084  0  1.778511  0  0  -0.821434  0  1.948579  0  0  -0.844906  0  1.916835  0  0  -0.593579  -0.804405  0  1.969836  0
O  O70  1  0.18799946  0.03336790  0.19776363  1  0  -0.856035  0  1.817993  0  0  -0.810252  0  1.993835  0  0  -0.833683  0  1.961293  0  0  -0.59667  -0.793139  0  2.016585  0
O  O71  1  0.81199932  0.96662959  0.80223565  1  0  -0.855869  0  1.818127  0  0  -0.810065  0  1.993985  0  0  -0.8335  0  1.961448  0  0  -0.596574  -0.79295  0  2.016711  0
