# generated using pymatgen
data_Cd3H22C18(NO2)8
_symmetry_space_group_name_H-M   'P 1'
_cell_length_a   11.38151669
_cell_length_b   11.27326118
_cell_length_c   12.86880000
_cell_angle_alpha   106.73507123
_cell_angle_beta   106.57127893
_cell_angle_gamma   102.17895930
_symmetry_Int_Tables_number   1
_chemical_formula_structural   Cd3H22C18(NO2)8
_chemical_formula_sum   'Cd6 H44 C36 N16 O32'
_cell_volume   1436.20608874
_cell_formula_units_Z   2
loop_
 _symmetry_equiv_pos_site_id
 _symmetry_equiv_pos_as_xyz
  1  'x, y, z'
loop_
 _atom_site_type_symbol
 _atom_site_label
 _atom_site_symmetry_multiplicity
 _atom_site_fract_x
 _atom_site_fract_y
 _atom_site_fract_z
 _atom_site_occupancy
 _atom_site_hle17_bader_spin_density
 _atom_site_hle17_ddec_charge
 _atom_site_hle17_ddec_spin_density
 _atom_site_hle17_ddec_sum_bond_order
 _atom_site_hle17_magmom
 _atom_site_hse06_10hf_bader_spin_density
 _atom_site_hse06_10hf_ddec_charge
 _atom_site_hse06_10hf_ddec_spin_density
 _atom_site_hse06_10hf_ddec_sum_bond_order
 _atom_site_hse06_10hf_magmom
 _atom_site_hse06_bader_spin_density
 _atom_site_hse06_ddec_charge
 _atom_site_hse06_ddec_spin_density
 _atom_site_hse06_ddec_sum_bond_order
 _atom_site_hse06_magmom
 _atom_site_pbe_bader_charge
 _atom_site_pbe_bader_spin_density
 _atom_site_pbe_cm5_charge
 _atom_site_pbe_ddec_charge
 _atom_site_pbe_ddec_spin_density
 _atom_site_pbe_ddec_sum_bond_order
 _atom_site_pbe_magmom
Cd  Cd0  1  0.17204301  0.72500972  0.55373477  1  0  1.220954  0  1.633607  0  0  1.040037  0  2.086851  0  0  1.092746  0  2.030844  0  1.316699  0  0.798243  1.002454  0  2.125314  0
Cd  Cd1  1  0.77528205  0.32753240  0.94655717  1  0  1.220672  0  1.634019  0  0  1.039514  0  2.087061  0  0  1.092286  0  2.031087  0  1.317384  0  0.798934  1.001888  0  2.125505  0
Cd  Cd2  1  0.82795908  0.27499014  0.44626324  1  0  1.220927  0  1.633706  0  0  1.039981  0  2.086974  0  0  1.092689  0  2.03097  0  1.316712  0  0.798215  1.002394  0  2.125448  0
Cd  Cd3  1  0.22472280  0.67247039  0.05344227  1  0  1.220637  0  1.634084  0  0  1.039481  0  2.08712  0  0  1.092258  0  2.031143  0  1.31745  0  0.798914  1.00186  0  2.12556  0
Cd  Cd4  1  0.25300188  0.24713064  0.25060998  1  0  1.214624  0  1.61088  0  0  1.026446  0  2.055883  0  0  1.074814  0  2.003297  0  1.335923  0  0.812473  0.992006  0  2.092089  0
Cd  Cd5  1  0.74699593  0.75286727  0.74938646  1  0  1.214617  0  1.610899  0  0  1.026443  0  2.055877  0  0  1.074811  0  2.003295  0  1.335939  0  0.812455  0.992002  0  2.092082  0
H  H6  1  0.34412064  0.79344056  0.43552206  1  0  0.438256  0  0.858913  0  0  0.400703  0  0.93105  0  0  0.413732  0  0.912329  0  0.660789  0  0.287202  0.391479  0  0.944273  0
H  H7  1  0.70684688  0.15514502  0.06438060  1  0  0.436002  0  0.862813  0  0  0.398097  0  0.935418  0  0  0.411136  0  0.916713  0  0.654926  0  0.286564  0.388882  0  0.948606  0
H  H8  1  0.65588085  0.20656321  0.56448067  1  0  0.438326  0  0.858824  0  0  0.400733  0  0.931017  0  0  0.413762  0  0.912297  0  0.660809  0  0.287211  0.391508  0  0.944241  0
H  H9  1  0.29314848  0.84485093  0.93561550  1  0  0.436008  0  0.862803  0  0  0.39812  0  0.935371  0  0  0.411162  0  0.916664  0  0.654702  0  0.286593  0.388904  0  0.94856  0
H  H10  1  0.37262405  0.90887050  0.55410747  1  0  0.431834  0  0.809431  0  0  0.416405  0  0.858573  0  0  0.424856  0  0.849395  0  0.605823  0  0.324669  0.41028  0  0.865366  0
H  H11  1  0.59230937  0.12602167  0.94607840  1  0  0.432519  0  0.808234  0  0  0.416588  0  0.858179  0  0  0.425123  0  0.848859  0  0.621705  0  0.324745  0.410411  0  0.865044  0
H  H12  1  0.62737805  0.09113229  0.44589517  1  0  0.431887  0  0.809414  0  0  0.416459  0  0.858546  0  0  0.424909  0  0.84937  0  0.605854  0  0.324692  0.410333  0  0.86534  0
H  H13  1  0.40768783  0.87397721  0.05391580  1  0  0.432556  0  0.808095  0  0  0.416644  0  0.858017  0  0  0.425179  0  0.848695  0  0.621747  0  0.32478  0.410467  0  0.864884  0
H  H14  1  0.95443162  0.17126526  0.14815783  1  0  0.42452  0  0.869106  0  0  0.388984  0  0.945948  0  0  0.398881  0  0.931682  0  0.643904  0  0.296499  0.382056  0  0.955903  0
H  H15  1  0.32774413  0.54704008  0.35182194  1  0  0.426066  0  0.867255  0  0  0.390225  0  0.944582  0  0  0.400118  0  0.930316  0  0.641351  0  0.29672  0.383281  0  0.954571  0
H  H16  1  0.04556558  0.82873363  0.85184025  1  0  0.424534  0  0.869116  0  0  0.388991  0  0.945946  0  0  0.398889  0  0.93168  0  0.6413  0  0.296494  0.382063  0  0.955902  0
H  H17  1  0.67225492  0.45296173  0.64818045  1  0  0.426064  0  0.867243  0  0  0.390218  0  0.944588  0  0  0.40011  0  0.930324  0  0.641316  0  0.296723  0.383274  0  0.954577  0
H  H18  1  0.99870503  0.19283873  0.04811630  1  0  0.424196  0  0.875584  0  0  0.393747  0  0.938103  0  0  0.403797  0  0.923578  0  0.628126  0  0.296894  0.386578  0  0.948477  0
H  H19  1  0.30573442  0.50226568  0.45166514  1  0  0.424154  0  0.875358  0  0  0.393611  0  0.938397  0  0  0.403667  0  0.923902  0  0.628217  0  0.296849  0.386465  0  0.948712  0
H  H20  1  0.00129063  0.80715820  0.95188168  1  0  0.424171  0  0.875614  0  0  0.393732  0  0.938139  0  0  0.403777  0  0.923616  0  0.62814  0  0.296876  0.386565  0  0.948513  0
H  H21  1  0.69426676  0.49773712  0.54833571  1  0  0.424251  0  0.875202  0  0  0.393649  0  0.938338  0  0  0.403704  0  0.923843  0  0.628174  0  0.296869  0.386503  0  0.948653  0
H  H22  1  0.21874660  0.03304687  0.60808751  1  0  0.108935  0  0.945415  0  0  0.116437  0  1.013429  0  0  0.120255  0  1.00966  0  0.126867  0  0.109603  0.113597  0  1.016236  0
H  H23  1  0.46804618  0.28096143  0.89237636  1  0  0.107254  0  0.945908  0  0  0.115183  0  1.013555  0  0  0.119088  0  1.009681  0  0.10581  0  0.108844  0.112266  0  1.01646  0
H  H24  1  0.78126099  0.96695299  0.39191111  1  0  0.109001  0  0.945247  0  0  0.116473  0  1.013306  0  0  0.120297  0  1.009532  0  0.12692  0  0.109571  0.113633  0  1.016114  0
H  H25  1  0.53195808  0.71904528  0.10763014  1  0  0.107261  0  0.945884  0  0  0.115223  0  1.013491  0  0  0.119112  0  1.009633  0  0.105831  0  0.108829  0.112307  0  1.016395  0
H  H26  1  0.98148553  0.28006901  0.66293756  1  0  0.108013  0  0.985449  0  0  0.117287  0  1.051495  0  0  0.120633  0  1.048561  0  0.13648  0  0.106263  0.114695  0  1.053902  0
H  H27  1  0.22059523  0.51758049  0.83700201  1  0  0.10884  0  0.984794  0  0  0.116986  0  1.052294  0  0  0.120355  0  1.049295  0  0.141638  0  0.106436  0.114524  0  1.054464  0
H  H28  1  0.01852115  0.71993379  0.33706312  1  0  0.108115  0  0.985475  0  0  0.117374  0  1.051533  0  0  0.120718  0  1.0486  0  0.136336  0  0.106314  0.114746  0  1.053982  0
H  H29  1  0.77939525  0.48242035  0.16299720  1  0  0.108809  0  0.984846  0  0  0.116979  0  1.05235  0  0  0.120349  0  1.049349  0  0.141298  0  0.106456  0.114521  0  1.054511  0
H  H30  1  0.06908756  0.06346242  0.88289121  1  0  0.09556  0  0.960629  0  0  0.101764  0  1.032942  0  0  0.106189  0  1.028157  0  0.085252  0  0.103968  0.098477  0  1.036531  0
H  H31  1  0.43734340  0.43161406  0.61785108  1  0  0.096011  0  0.961184  0  0  0.102079  0  1.033385  0  0  0.106433  0  1.028767  0  0.09336  0  0.104267  0.098817  0  1.036909  0
H  H32  1  0.93090992  0.93652864  0.11710264  1  0  0.095664  0  0.9606  0  0  0.101864  0  1.032902  0  0  0.106281  0  1.028131  0  0.085058  0  0.104018  0.09859  0  1.036446  0
H  H33  1  0.56265840  0.56838776  0.38215590  1  0  0.096005  0  0.961131  0  0  0.102041  0  1.033378  0  0  0.106394  0  1.028766  0  0.093302  0  0.10425  0.09878  0  1.036903  0
H  H34  1  0.98309148  0.49582228  0.35349609  1  0  0.442581  0  0.853102  0  0  0.407971  0  0.922734  0  0  0.418944  0  0.90674  0  0.652495  0  0.295908  0.400175  0  0.934102  0
H  H35  1  0.00355827  0.51700574  0.14639145  1  0  0.441435  0  0.855181  0  0  0.40652  0  0.92534  0  0  0.41754  0  0.909322  0  0.655542  0  0.295232  0.398704  0  0.9367  0
H  H36  1  0.01691030  0.50417661  0.64650237  1  0  0.442568  0  0.853118  0  0  0.407962  0  0.922747  0  0  0.418935  0  0.906753  0  0.652193  0  0.295898  0.400166  0  0.934114  0
H  H37  1  0.99643985  0.48299314  0.85360608  1  0  0.441617  0  0.854934  0  0  0.406593  0  0.925248  0  0  0.417612  0  0.909232  0  0.655541  0  0.295254  0.398779  0  0.936606  0
H  H38  1  0.12774299  0.50339073  0.35634966  1  0  0.428355  0  0.870344  0  0  0.398213  0  0.933128  0  0  0.408963  0  0.917353  0  0.632656  0  0.293691  0.390528  0  0.944406  0
H  H39  1  0.99516130  0.37080934  0.14285216  1  0  0.424871  0  0.873761  0  0  0.395542  0  0.935979  0  0  0.406254  0  0.92029  0  0.651641  0  0.292561  0.387864  0  0.94724  0
H  H40  1  0.87225542  0.49660620  0.64364901  1  0  0.428371  0  0.870327  0  0  0.398225  0  0.933116  0  0  0.408975  0  0.917341  0  0.632662  0  0.293701  0.39054  0  0.944393  0
H  H41  1  0.00483621  0.62919052  0.85714702  1  0  0.424883  0  0.873713  0  0  0.395538  0  0.935993  0  0  0.40625  0  0.920303  0  0.651629  0  0.292554  0.387861  0  0.947254  0
H  H42  1  0.45807560  0.26152370  0.46369907  1  0  0.435091  0  0.850013  0  0  0.401424  0  0.91881  0  0  0.412029  0  0.903132  0  0.661571  0  0.298026  0.393796  0  0.930108  0
H  H43  1  0.23996663  0.04307363  0.03743525  1  0  0.43423  0  0.851217  0  0  0.400668  0  0.920105  0  0  0.411286  0  0.904426  0  0.636289  0  0.298116  0.393074  0  0.931331  0
H  H44  1  0.54191947  0.73847714  0.53629974  1  0  0.43507  0  0.850074  0  0  0.401439  0  0.918779  0  0  0.412044  0  0.903101  0  0.661565  0  0.298027  0.393815  0  0.930072  0
H  H45  1  0.76002904  0.95692330  0.96256195  1  0  0.434274  0  0.851153  0  0  0.400708  0  0.920051  0  0  0.411323  0  0.904375  0  0.635765  0  0.298133  0.393113  0  0.931278  0
H  H46  1  0.52496020  0.30884243  0.38406502  1  0  0.434241  0  0.866727  0  0  0.401948  0  0.931244  0  0  0.412699  0  0.915615  0  0.669765  0  0.290704  0.394364  0  0.942253  0
H  H47  1  0.19223137  0.97444814  0.11599506  1  0  0.431619  0  0.871065  0  0  0.399252  0  0.935839  0  0  0.410008  0  0.92021  0  0.654539  0  0.290223  0.391688  0  0.946808  0
H  H48  1  0.47503976  0.69115938  0.61593605  1  0  0.434259  0  0.866699  0  0  0.401965  0  0.931221  0  0  0.412716  0  0.915591  0  0.669771  0  0.290694  0.394381  0  0.94223  0
H  H49  1  0.80776430  0.02554879  0.88399981  1  0  0.431538  0  0.871184  0  0  0.399239  0  0.935859  0  0  0.409962  0  0.920266  0  0.654573  0  0.29022  0.391676  0  0.946826  0
C  C50  1  0.09822593  0.15676663  0.62069277  1  0  -0.000209  0  3.775419  0  0  0.022084  0  4.01249  0  0  0.017253  0  4.035761  0  0.034725  0  -0.003041  0.024989  0  3.996577  0
C  C51  1  0.34419384  0.40132362  0.87960598  1  0  0.001208  0  3.777871  0  0  0.022498  0  4.015462  0  0  0.017618  0  4.038819  0  0.039041  0  -0.002606  0.02543  0  3.999505  0
C  C52  1  0.90177892  0.84323617  0.37930745  1  0  -0.000348  0  3.77552  0  0  0.022033  0  4.012458  0  0  0.017201  0  4.035731  0  0.035317  0  -0.003061  0.024937  0  3.996537  0
C  C53  1  0.65580275  0.59867624  0.12039841  1  0  0.001052  0  3.777841  0  0  0.022376  0  4.015507  0  0  0.017522  0  4.038871  0  0.038711  0  -0.002604  0.025302  0  3.99955  0
C  C54  1  0.10373255  0.18709518  0.51862610  1  0  0.270957  0  3.795117  0  0  0.247346  0  4.064862  0  0  0.256975  0  4.084496  0  0.910091  0  0.214792  0.240975  0  4.051515  0
C  C55  1  0.31344833  0.39530248  0.98128771  1  0  0.270906  0  3.795245  0  0  0.247739  0  4.064786  0  0  0.257341  0  4.084516  0  0.914832  0  0.215473  0.241366  0  4.051413  0
C  C56  1  0.89626923  0.81290370  0.48137313  1  0  0.270905  0  3.795182  0  0  0.247292  0  4.06488  0  0  0.256922  0  4.084513  0  0.910081  0  0.214702  0.240923  0  4.051531  0
C  C57  1  0.68654674  0.60469836  0.01871421  1  0  0.271148  0  3.794903  0  0  0.247846  0  4.064643  0  0  0.257364  0  4.084487  0  0.914872  0  0.215524  0.24148  0  4.051263  0
C  C58  1  0.15392314  0.04134744  0.75162468  1  0  -0.083008  0  3.758027  0  0  -0.058728  0  4.00317  0  0  -0.069419  0  4.027578  0  -0.051104  0  -0.02216  -0.052177  0  3.986809  0
C  C59  1  0.45968200  0.34627027  0.74902173  1  0  -0.082328  0  3.752914  0  0  -0.058009  0  3.998507  0  0  -0.068711  0  4.022971  0  -0.009483  0  -0.022403  -0.05143  0  3.982086  0
C  C60  1  0.84608079  0.95865242  0.24837224  1  0  -0.082885  0  3.758016  0  0  -0.058695  0  4.003222  0  0  -0.06935  0  4.027586  0  -0.051433  0  -0.022091  -0.05217  0  3.986892  0
C  C61  1  0.54032040  0.65373057  0.25098515  1  0  -0.082224  0  3.752427  0  0  -0.057872  0  3.998025  0  0  -0.068567  0  4.022481  0  -0.010197  0  -0.022338  -0.051294  0  3.981603  0
C  C62  1  0.01644706  0.17586908  0.77761386  1  0  -0.071726  0  3.765824  0  0  -0.04496  0  4.005824  0  0  -0.055665  0  4.029041  0  0.017232  0  -0.019736  -0.038352  0  3.990249  0
C  C63  1  0.32484556  0.48354052  0.72274969  1  0  -0.071505  0  3.762847  0  0  -0.046038  0  4.003823  0  0  -0.056658  0  4.026847  0  -0.035487  0  -0.019695  -0.039511  0  3.988415  0
C  C64  1  0.98355012  0.82412394  0.22237963  1  0  -0.071798  0  3.765887  0  0  -0.045001  0  4.005859  0  0  -0.055716  0  4.029093  0  0.017033  0  -0.019785  -0.038394  0  3.990279  0
C  C65  1  0.67515898  0.51645836  0.27725490  1  0  -0.07161  0  3.762834  0  0  -0.046  0  4.003674  0  0  -0.056617  0  4.026692  0  -0.034831  0  -0.019701  -0.039479  0  3.988267  0
C  C66  1  0.16257919  0.07365046  0.65614314  1  0  -0.060406  0  3.650897  0  0  -0.099096  0  3.901964  0  0  -0.095944  0  3.920125  0  -0.056956  0  -0.066679  -0.100553  0  3.889357  0
C  C67  1  0.42741250  0.33732946  0.84439482  1  0  -0.058551  0  3.650215  0  0  -0.09747  0  3.901702  0  0  -0.094312  0  3.919791  0  0.005371  0  -0.066522  -0.09894  0  3.889163  0
C  C68  1  0.83742993  0.92635135  0.34385480  1  0  -0.060569  0  3.651103  0  0  -0.099227  0  3.902138  0  0  -0.096096  0  3.9203  0  -0.057412  0  -0.066695  -0.100675  0  3.889537  0
C  C69  1  0.57258930  0.66267529  0.15561289  1  0  -0.058613  0  3.650094  0  0  -0.09755  0  3.901573  0  0  -0.094372  0  3.91965  0  0.005859  0  -0.066548  -0.099023  0  3.889044  0
C  C70  1  0.02773121  0.21031274  0.68406178  1  0  -0.060385  0  3.642535  0  0  -0.09825  0  3.887559  0  0  -0.095213  0  3.905654  0  -0.030061  0  -0.068091  -0.099853  0  3.875243  0
C  C71  1  0.29045054  0.47181005  0.81611831  1  0  -0.061442  0  3.645254  0  0  -0.09768  0  3.890454  0  0  -0.094631  0  3.908447  0  -0.042461  0  -0.067164  -0.099294  0  3.878124  0
C  C72  1  0.97227363  0.78968712  0.31593459  1  0  -0.060308  0  3.642436  0  0  -0.098199  0  3.887406  0  0  -0.095156  0  3.905504  0  -0.029753  0  -0.068032  -0.099777  0  3.875113  0
C  C73  1  0.70954360  0.52818786  0.18388419  1  0  -0.061249  0  3.645219  0  0  -0.097555  0  3.890375  0  0  -0.094509  0  3.908372  0  -0.041937  0  -0.067137  -0.099166  0  3.87805  0
C  C74  1  0.93812640  0.22963317  0.84190781  1  0  0.678844  0  3.850753  0  0  0.62208  0  4.136182  0  0  0.656984  0  4.129896  0  1.535513  0  0.218982  0.598713  0  4.13934  0
C  C75  1  0.27066966  0.56169706  0.65812934  1  0  0.681105  0  3.845988  0  0  0.624551  0  4.13171  0  0  0.65946  0  4.125292  0  1.540804  0  0.219638  0.601172  0  4.134957  0
C  C76  1  0.06187293  0.77036376  0.15808643  1  0  0.678927  0  3.850815  0  0  0.622122  0  4.136311  0  0  0.657032  0  4.130019  0  1.534697  0  0.218999  0.598754  0  4.139474  0
C  C77  1  0.72933182  0.43830378  0.34187498  1  0  0.681068  0  3.845682  0  0  0.624441  0  4.131421  0  0  0.659353  0  4.125001  0  1.54079  0  0.219609  0.601065  0  4.134665  0
C  C78  1  0.22099077  0.95035381  0.78867497  1  0  0.676098  0  3.88521  0  0  0.617766  0  4.187482  0  0  0.652638  0  4.179207  0  1.572351  0  0.214514  0.594315  0  4.192239  0
C  C79  1  0.55040211  0.27899576  0.71197063  1  0  0.675546  0  3.885271  0  0  0.616736  0  4.188043  0  0  0.651575  0  4.179824  0  1.566968  0  0.213812  0.593285  0  4.192758  0
C  C80  1  0.77901101  0.04964508  0.21131805  1  0  0.676188  0  3.885261  0  0  0.617909  0  4.187472  0  0  0.65277  0  4.179195  0  1.57262  0  0.214547  0.594468  0  4.192232  0
C  C81  1  0.44959723  0.72100410  0.28803523  1  0  0.675634  0  3.884995  0  0  0.616781  0  4.187841  0  0  0.651619  0  4.179617  0  1.567258  0  0.21377  0.59333  0  4.192558  0
C  C82  1  0.07840959  0.09059469  0.81038750  1  0  -0.045835  0  3.695404  0  0  -0.09257  0  3.958531  0  0  -0.087743  0  3.976029  0  0.012865  0  -0.075092  -0.095319  0  3.946676  0
C  C83  1  0.41020773  0.42196948  0.69021429  1  0  -0.046734  0  3.69443  0  0  -0.092867  0  3.957885  0  0  -0.088086  0  3.975378  0  -0.027922  0  -0.075329  -0.095596  0  3.946033  0
C  C84  1  0.92159219  0.90940419  0.18960863  1  0  -0.046005  0  3.69545  0  0  -0.092696  0  3.958581  0  0  -0.08788  0  3.976068  0  0.013424  0  -0.075172  -0.095428  0  3.946739  0
C  C85  1  0.58980048  0.57803234  0.30979586  1  0  -0.046768  0  3.694169  0  0  -0.092944  0  3.957626  0  0  -0.088167  0  3.97512  0  -0.028551  0  -0.075364  -0.095673  0  3.945778  0
N  N86  1  0.05641880  0.25304719  0.37444884  1  0  -0.079147  0  2.999726  0  0  -0.074172  0  3.28056  0  0  -0.072135  0  3.297078  0  -0.134273  0  -0.107608  -0.075402  0  3.269213  0
N  N87  1  0.24652057  0.44267594  0.12472492  1  0  -0.07923  0  3.001402  0  0  -0.074551  0  3.28226  0  0  -0.072495  0  3.298803  0  -0.119742  0  -0.108291  -0.075795  0  3.270888  0
N  N88  1  0.94358206  0.74695169  0.62554783  1  0  -0.079103  0  2.999624  0  0  -0.074144  0  3.28046  0  0  -0.072109  0  3.296976  0  -0.134249  0  -0.107548  -0.075374  0  3.269113  0
N  N89  1  0.75347908  0.55732489  0.87527815  1  0  -0.079239  0  3.001191  0  0  -0.074552  0  3.282025  0  0  -0.072491  0  3.298556  0  -0.119621  0  -0.108257  -0.075796  0  3.270656  0
N  N90  1  0.15601510  0.20947799  0.37802101  1  0  -0.149992  0  3.219173  0  0  -0.085812  0  3.51408  0  0  -0.097384  0  3.531627  0  -0.20896  0  -0.118903  -0.077495  0  3.501696  0
N  N91  1  0.29079442  0.34295180  0.12190359  1  0  -0.15364  0  3.217986  0  0  -0.089759  0  3.513155  0  0  -0.101287  0  3.530713  0  -0.218363  0  -0.120977  -0.081466  0  3.500748  0
N  N92  1  0.84398761  0.79052383  0.62197765  1  0  -0.149954  0  3.219056  0  0  -0.085749  0  3.513938  0  0  -0.097323  0  3.531486  0  -0.208893  0  -0.118879  -0.077431  0  3.501551  0
N  N93  1  0.70920400  0.65704806  0.87809737  1  0  -0.153578  0  3.217746  0  0  -0.089677  0  3.512884  0  0  -0.101202  0  3.530432  0  -0.218291  0  -0.120932  -0.081384  0  3.500479  0
N  N94  1  0.02164385  0.23966188  0.46221049  1  0  -0.372973  0  3.194932  0  0  -0.306132  0  3.483785  0  0  -0.327139  0  3.502267  0  -0.716841  0  -0.241969  -0.291673  0  3.47087  0
N  N95  1  0.26003106  0.47748126  0.03694735  1  0  -0.372454  0  3.198921  0  0  -0.305276  0  3.487021  0  0  -0.326379  0  3.505613  0  -0.724255  0  -0.242484  -0.290768  0  3.474059  0
N  N96  1  0.97835457  0.76033798  0.53778815  1  0  -0.372976  0  3.195008  0  0  -0.306158  0  3.483887  0  0  -0.327158  0  3.502351  0  -0.716925  0  -0.241978  -0.291699  0  3.47097  0
N  N97  1  0.73996921  0.52252153  0.96305793  1  0  -0.372488  0  3.198836  0  0  -0.305274  0  3.48699  0  0  -0.326353  0  3.505609  0  -0.724257  0  -0.242467  -0.290769  0  3.474028  0
N  N98  1  0.18895672  0.16774152  0.46665251  1  0  -0.269102  0  2.880596  0  0  -0.257077  0  3.149178  0  0  -0.265086  0  3.16445  0  -0.622639  0  -0.21622  -0.251677  0  3.138709  0
N  N99  1  0.33316655  0.30990786  0.03371435  1  0  -0.268158  0  2.878306  0  0  -0.256161  0  3.147004  0  0  -0.264147  0  3.162216  0  -0.622832  0  -0.216127  -0.250781  0  3.136576  0
N  N100  1  0.81104569  0.83226225  0.53334579  1  0  -0.269125  0  2.880601  0  0  -0.257118  0  3.149187  0  0  -0.265128  0  3.164462  0  -0.622617  0  -0.21624  -0.251718  0  3.138716  0
N  N101  1  0.66683066  0.69009396  0.96628758  1  0  -0.268351  0  2.878142  0  0  -0.256332  0  3.14691  0  0  -0.264289  0  3.162142  0  -0.622946  0  -0.216262  -0.250955  0  3.136482  0
O  O102  1  0.28248632  0.89995218  0.72994781  1  0  -0.656137  0  1.976431  0  0  -0.59593  0  2.221575  0  0  -0.621522  0  2.207314  0  -1.183131  0  -0.344181  -0.578122  0  2.230868  0
O  O103  1  0.60067435  0.21736705  0.77074190  1  0  -0.656926  0  1.974952  0  0  -0.596987  0  2.220769  0  0  -0.622585  0  2.206474  0  -1.179411  0  -0.344512  -0.579214  0  2.230098  0
O  O104  1  0.71751547  0.10004671  0.27005142  1  0  -0.656192  0  1.976332  0  0  -0.595992  0  2.22145  0  0  -0.621587  0  2.207197  0  -1.183288  0  -0.344215  -0.578182  0  2.230738  0
O  O105  1  0.39932500  0.78263574  0.22926393  1  0  -0.657039  0  1.974807  0  0  -0.597087  0  2.220646  0  0  -0.622688  0  2.206348  0  -1.179283  0  -0.344531  -0.579314  0  2.229976  0
O  O106  1  0.90196590  0.17348506  0.90699290  1  0  -0.697764  0  2.062388  0  0  -0.614994  0  2.286258  0  0  -0.644089  0  2.273857  0  -1.206385  0  -0.322354  -0.594392  0  2.293878  0
O  O107  1  0.32650886  0.59915813  0.59354693  1  0  -0.69892  0  2.061522  0  0  -0.616098  0  2.284975  0  0  -0.645215  0  2.272588  0  -1.20184  0  -0.322272  -0.595485  0  2.29262  0
O  O108  1  0.09803740  0.82650991  0.09300184  1  0  -0.697709  0  2.06239  0  0  -0.614961  0  2.286357  0  0  -0.644063  0  2.273955  0  -1.205773  0  -0.32233  -0.594361  0  2.293976  0
O  O109  1  0.67349139  0.40084173  0.40645761  1  0  -0.698939  0  2.061232  0  0  -0.616057  0  2.284672  0  0  -0.645176  0  2.272286  0  -1.201934  0  -0.32227  -0.595446  0  2.292318  0
O  O110  1  0.30173867  0.84184525  0.48581504  1  0  -0.823723  0  1.828188  0  0  -0.759553  0  2.021632  0  0  -0.782039  0  1.98961  0  -1.220206  0  -0.575237  -0.743678  0  2.043995  0
O  O111  1  0.65856292  0.19778759  0.01431901  1  0  -0.822221  0  1.831734  0  0  -0.756954  0  2.026332  0  0  -0.779607  0  1.994292  0  -1.230228  0  -0.574437  -0.74096  0  2.048687  0
O  O112  1  0.69826130  0.15815950  0.51418599  1  0  -0.823854  0  1.828139  0  0  -0.759638  0  2.02161  0  0  -0.782124  0  1.989589  0  -1.220274  0  -0.575281  -0.743763  0  2.043977  0
O  O113  1  0.34143183  0.80220934  0.98567718  1  0  -0.822227  0  1.831646  0  0  -0.757  0  2.026241  0  0  -0.779653  0  1.994194  0  -1.230035  0  -0.574465  -0.741007  0  2.048601  0
O  O114  1  0.21118360  0.92810882  0.87902182  1  0  -0.675564  0  2.020389  0  0  -0.599438  0  2.236288  0  0  -0.626961  0  2.224205  0  -1.192265  0  -0.313967  -0.580211  0  2.244082  0
O  O115  1  0.57228204  0.28853770  0.62140185  1  0  -0.677096  0  2.024207  0  0  -0.599887  0  2.239394  0  0  -0.627297  0  2.227195  0  -1.196001  0  -0.313237  -0.580615  0  2.247196  0
O  O116  1  0.78881239  0.07189495  0.12097563  1  0  -0.675567  0  2.020612  0  0  -0.59945  0  2.236503  0  0  -0.626963  0  2.224416  0  -1.192337  0  -0.313937  -0.580236  0  2.244305  0
O  O117  1  0.42771609  0.71146411  0.37860109  1  0  -0.677027  0  2.024235  0  0  -0.599825  0  2.239399  0  0  -0.62724  0  2.227204  0  -1.196068  0  -0.313179  -0.580555  0  2.247202  0
O  O118  1  0.02835120  0.21921933  0.13415769  1  0  -0.847967  0  1.937898  0  0  -0.789241  0  2.142738  0  0  -0.81143  0  2.110542  0  -1.247782  0  -0.573416  -0.773512  0  2.165243  0
O  O119  1  0.27939793  0.47260179  0.36558697  1  0  -0.849712  0  1.939862  0  0  -0.790047  0  2.146168  0  0  -0.812397  0  2.11386  0  -1.24408  0  -0.573556  -0.774216  0  2.168677  0
O  O120  1  0.97164601  0.78078248  0.86584113  1  0  -0.848003  0  1.93795  0  0  -0.789272  0  2.142764  0  0  -0.811453  0  2.110584  0  -1.245198  0  -0.573408  -0.773545  0  2.165264  0
O  O121  1  0.72060202  0.52739709  0.63441336  1  0  -0.849759  0  1.939706  0  0  -0.790035  0  2.146102  0  0  -0.812389  0  2.113797  0  -1.244034  0  -0.573554  -0.774204  0  2.16861  0
O  O122  1  0.07185882  0.55513930  0.37687725  1  0  -0.856892  0  1.918765  0  0  -0.792262  0  2.124048  0  0  -0.814696  0  2.088966  0  -1.249044  0  -0.592159  -0.776369  0  2.148514  0
O  O123  1  0.94409338  0.42767490  0.12326757  1  0  -0.854343  0  1.914691  0  0  -0.789287  0  2.119255  0  0  -0.811756  0  2.084165  0  -1.273193  0  -0.592163  -0.77338  0  2.143678  0
O  O124  1  0.92814144  0.44486056  0.62312185  1  0  -0.856886  0  1.918775  0  0  -0.792275  0  2.124079  0  0  -0.814699  0  2.088976  0  -1.248747  0  -0.592153  -0.776384  0  2.148547  0
O  O125  1  0.05590504  0.57232496  0.87673185  1  0  -0.854548  0  1.914421  0  0  -0.78937  0  2.119109  0  0  -0.811845  0  2.084029  0  -1.273173  0  -0.592183  -0.773464  0  2.143533  0
O  O126  1  0.44293542  0.25483985  0.38269983  1  0  -0.849695  0  1.838486  0  0  -0.785407  0  2.03052  0  0  -0.806011  0  1.994359  0  -1.298612  0  -0.593631  -0.770886  0  2.055872  0
O  O127  1  0.24804127  0.05677856  0.11858412  1  0  -0.846752  0  1.845852  0  0  -0.782447  0  2.038209  0  0  -0.803263  0  2.002149  0  -1.255404  0  -0.592625  -0.767802  0  2.063407  0
O  O128  1  0.55706515  0.74516099  0.61730037  1  0  -0.849702  0  1.838552  0  0  -0.785426  0  2.03056  0  0  -0.806031  0  1.994394  0  -1.298617  0  -0.593617  -0.77091  0  2.055905  0
O  O129  1  0.75195135  0.94322032  0.88141125  1  0  -0.846712  0  1.845949  0  0  -0.782468  0  2.038199  0  0  -0.803251  0  2.002218  0  -1.254907  0  -0.592626  -0.767824  0  2.063395  0
O  O130  1  0.90659825  0.32873370  0.83245678  1  0  -0.621641  0  2.018594  0  0  -0.550762  0  2.256515  0  0  -0.579282  0  2.245129  0  -1.15332  0  -0.300306  -0.530943  0  2.263422  0
O  O131  1  0.17147690  0.59183013  0.66685163  1  0  -0.623319  0  2.013544  0  0  -0.552518  0  2.251665  0  0  -0.581075  0  2.240324  0  -1.156265  0  -0.301715  -0.532713  0  2.258708  0
O  O132  1  0.09340445  0.67126519  0.16754191  1  0  -0.621692  0  2.018594  0  0  -0.55083  0  2.256531  0  0  -0.579354  0  2.245141  0  -1.153413  0  -0.300339  -0.531009  0  2.263433  0
O  O133  1  0.82852365  0.40816778  0.33315016  1  0  -0.623288  0  2.013433  0  0  -0.552454  0  2.251549  0  0  -0.581016  0  2.240215  0  -1.156257  0  -0.301696  -0.532648  0  2.258589  0
