# generated using pymatgen
data_CuH10C16N2(OF3)4
_symmetry_space_group_name_H-M   'P 1'
_cell_length_a   7.77259081
_cell_length_b   8.60695707
_cell_length_c   8.79776248
_cell_angle_alpha   94.87925946
_cell_angle_beta   114.34057378
_cell_angle_gamma   99.65284093
_symmetry_Int_Tables_number   1
_chemical_formula_structural   CuH10C16N2(OF3)4
_chemical_formula_sum   'Cu1 H10 C16 N2 O4 F12'
_cell_volume   520.80289748
_cell_formula_units_Z   1
loop_
 _symmetry_equiv_pos_site_id
 _symmetry_equiv_pos_as_xyz
  1  'x, y, z'
loop_
 _atom_site_type_symbol
 _atom_site_label
 _atom_site_symmetry_multiplicity
 _atom_site_fract_x
 _atom_site_fract_y
 _atom_site_fract_z
 _atom_site_occupancy
 _atom_site_pbe_cm5_charge
 _atom_site_pbe_ddec_charge
 _atom_site_pbe_ddec_spin_density
 _atom_site_pbe_ddec_sum_bond_order
 _atom_site_pbe_magmom
Cu  Cu0  1  0.00000000  0.00000000  0.00000000  1  0.730683  0.845439  -0.752676  2.254023  -0.597
H  H1  1  0.22176992  0.77835261  0.90328083  1  0.110566  0.097326  0.000132  1.019013  0.0
H  H2  1  0.77823001  0.22165016  0.09671760  1  0.11056  0.097314  0.000132  1.019055  0.0
H  H3  1  0.50614174  0.32103501  0.26041068  1  0.089896  0.147665  -7e-06  1.006105  0.0
H  H4  1  0.49385787  0.67896656  0.73958753  1  0.089889  0.147641  -7e-06  1.006128  0.0
H  H5  1  0.31241156  0.31773040  0.06258094  1  0.09196  0.149283  6.8e-05  1.035456  0.0
H  H6  1  0.68758835  0.68227236  0.93741975  1  0.091968  0.149271  6.8e-05  1.035466  0.0
H  H7  1  0.55692852  0.40155473  0.10113938  1  0.092037  0.143795  4e-06  1.005626  0.0
H  H8  1  0.44306965  0.59844684  0.89886057  1  0.092045  0.143784  4e-06  1.005619  0.0
H  H9  1  0.25248673  0.88321982  0.50972894  1  0.100789  0.144137  0.000283  1.038734  0.0
H  H10  1  0.74751644  0.11677936  0.49027379  1  0.100789  0.144152  0.000283  1.038758  0.0
C  C11  1  0.34761379  0.87799874  0.94647614  1  0.038416  -0.007491  0.000276  3.922142  0.0
C  C12  1  0.65238473  0.12200403  0.05352177  1  0.038464  -0.007457  0.000276  3.922162  0.0
C  C13  1  0.48036980  0.14506046  0.05879429  1  0.117687  0.278437  8.9e-05  3.954284  0.0
C  C14  1  0.51962870  0.85494230  0.94120475  1  0.117656  0.278368  8.9e-05  3.954355  0.0
C  C15  1  0.46262890  0.30526447  0.12323831  1  -0.245203  -0.458306  9.8e-05  3.923768  0.0
C  C16  1  0.53736961  0.69473830  0.87676072  1  -0.245177  -0.458214  9.8e-05  3.923799  0.0
C  C17  1  0.10702410  0.61362313  0.27333485  1  0.301625  0.625874  -0.008324  3.999648  -0.01
C  C18  1  0.89297736  0.38637486  0.72666489  1  0.301637  0.625911  -0.008325  3.999612  -0.01
C  C19  1  0.10844910  0.78795526  0.24329224  1  0.118636  0.251613  0.004492  4.070614  0.005
C  C20  1  0.89155608  0.21204630  0.75671599  1  0.118627  0.251523  0.00449  4.070753  0.005
C  C21  1  0.19032108  0.91195604  0.38325249  1  -0.15433  -0.387041  -0.003099  4.044708  -0.006
C  C22  1  0.80967926  0.08804313  0.61674920  1  -0.154321  -0.386997  -0.003101  4.044643  -0.006
C  C23  1  0.18623044  0.07117226  0.36399855  1  0.113328  0.245048  0.004338  4.083243  0.005
C  C24  1  0.81377206  0.92882452  0.63600601  1  0.113355  0.244989  0.004335  4.083408  0.005
C  C25  1  0.27369462  0.20082115  0.52401679  1  0.298681  0.622181  -0.008303  4.011146  -0.01
C  C26  1  0.72630714  0.79917802  0.47598429  1  0.298683  0.622192  -0.008305  4.01113  -0.01
N  N27  1  0.32742781  0.01965821  0.00392717  1  -0.312798  -0.301699  0.002208  3.416541  0.001
N  N28  1  0.67257212  0.98034456  0.99607126  1  -0.312782  -0.301686  0.002208  3.416543  0.001
O  O29  1  0.03009193  0.79775271  0.08754057  1  -0.274375  -0.399043  -0.055543  2.456337  -0.08
O  O30  1  0.96990672  0.20224527  0.91245698  1  -0.27437  -0.398976  -0.055535  2.456546  -0.08
O  O31  1  0.11714628  0.12864728  0.22894555  1  -0.278649  -0.39448  -0.056299  2.428841  -0.081
O  O32  1  0.88285237  0.87135071  0.77105200  1  -0.278685  -0.394477  -0.056296  2.428959  -0.081
F  F33  1  0.92126975  0.52516563  0.20266195  1  -0.094337  -0.200644  -0.000256  1.334011  0.0
F  F34  1  0.07873031  0.47483235  0.79733612  1  -0.094347  -0.200653  -0.000256  1.334015  0.0
F  F35  1  0.18741609  0.60155662  0.43998319  1  -0.094193  -0.196822  -0.00155  1.365514  -0.002
F  F36  1  0.81258613  0.39843897  0.56001776  1  -0.094171  -0.196817  -0.00155  1.365558  -0.002
F  F37  1  0.20489748  0.54592605  0.19886129  1  -0.093033  -0.189235  -0.000318  1.34174  0.0
F  F38  1  0.79510260  0.45407194  0.80113565  1  -0.093061  -0.189248  -0.000318  1.341639  0.0
F  F39  1  0.13651591  0.27727481  0.52995308  1  -0.099998  -0.200636  -0.00023  1.363734  0.0
F  F40  1  0.86348204  0.72272077  0.47004857  1  -0.099984  -0.200603  -0.00023  1.36374  0.0
F  F41  1  0.41889075  0.31223528  0.52237076  1  -0.095552  -0.197303  -0.000216  1.35653  0.0
F  F42  1  0.58110493  0.68776747  0.47762722  1  -0.095575  -0.197345  -0.000216  1.356495  0.0
F  F43  1  0.34789560  0.14109215  0.67055562  1  -0.096509  -0.195384  -0.001506  1.337484  -0.002
F  F44  1  0.65210965  0.85890943  0.32944582  1  -0.096527  -0.195388  -0.001506  1.337448  -0.002
