# generated using pymatgen
data_Dy2Zn3H36(C2O3)12
_symmetry_space_group_name_H-M   'P 1'
_cell_length_a   14.55756899
_cell_length_b   14.55757980
_cell_length_c   16.04338261
_cell_angle_alpha   89.99994239
_cell_angle_beta   90.00004000
_cell_angle_gamma   120.00063443
_symmetry_Int_Tables_number   1
_chemical_formula_structural   Dy2Zn3H36(C2O3)12
_chemical_formula_sum   'Dy4 Zn6 H72 C48 O72'
_cell_volume   2944.43405785
_cell_formula_units_Z   2
loop_
 _symmetry_equiv_pos_site_id
 _symmetry_equiv_pos_as_xyz
  1  'x, y, z'
loop_
 _atom_site_type_symbol
 _atom_site_label
 _atom_site_symmetry_multiplicity
 _atom_site_fract_x
 _atom_site_fract_y
 _atom_site_fract_z
 _atom_site_occupancy
 _atom_site_pbe_bader_charge
 _atom_site_pbe_bader_spin_density
 _atom_site_pbe_cm5_charge
 _atom_site_pbe_ddec_charge
 _atom_site_pbe_ddec_spin_density
 _atom_site_pbe_ddec_sum_bond_order
 _atom_site_pbe_magmom
Dy  Dy0  1  0.33333357  0.66666783  0.25000007  1  2.175515  0  1.493822  1.964846  0  2.199943  0
Dy  Dy1  1  0.66666711  0.33333204  0.25000033  1  2.175475  0  1.493852  1.964912  0  2.199819  0
Dy  Dy2  1  0.66666678  0.33333219  0.74999963  1  2.175498  0  1.493853  1.964926  0  2.199811  0
Dy  Dy3  1  0.33333364  0.66666759  0.74999999  1  2.175543  0  1.493817  1.964884  0  2.199873  0
Zn  Zn4  1  0.49999998  0.50000021  0.49999985  1  1.366819  0  0.666456  0.996649  0  2.210806  0
Zn  Zn5  1  0.49999945  0.99999918  0.50000024  1  1.366148  0  0.666411  0.996562  0  2.210828  0
Zn  Zn6  1  0.00000052  0.50000050  0.50000031  1  1.36511  0  0.66641  0.996554  0  2.210814  0
Zn  Zn7  1  0.50000074  0.50000066  0.99999977  1  1.366779  0  0.666424  0.99659  0  2.210839  0
Zn  Zn8  1  0.00000019  0.50000065  0.99999961  1  1.366134  0  0.666394  0.99652  0  2.210863  0
Zn  Zn9  1  0.50000015  0.00000040  0.00000016  1  1.365104  0  0.666399  0.996527  0  2.210837  0
H  H10  1  0.64191787  0.45857542  0.55000932  1  0.63536  0  0.293251  0.38221  0  0.949795  0
H  H11  1  0.54142495  0.18334293  0.55000941  1  0.648135  0  0.293244  0.3822  0  0.949817  0
H  H12  1  0.81665889  0.35808394  0.55001004  1  0.635138  0  0.293245  0.382195  0  0.949811  0
H  H13  1  0.35808181  0.54142387  0.55000857  1  0.635359  0  0.293249  0.382199  0  0.949814  0
H  H14  1  0.45857541  0.81665705  0.55000909  1  0.64814  0  0.293235  0.382169  0  0.949857  0
H  H15  1  0.18334176  0.64191712  0.55000971  1  0.635188  0  0.293259  0.382217  0  0.949785  0
H  H16  1  0.45857585  0.64191841  0.94999091  1  0.635363  0  0.293261  0.382227  0  0.949775  0
H  H17  1  0.18334245  0.54142476  0.94999087  1  0.64814  0  0.293252  0.382222  0  0.949782  0
H  H18  1  0.35808419  0.81665921  0.94998955  1  0.635185  0  0.293237  0.382187  0  0.949822  0
H  H19  1  0.54142453  0.35808266  0.94999107  1  0.635362  0  0.29325  0.382209  0  0.949798  0
H  H20  1  0.81665724  0.45857562  0.94999048  1  0.648148  0  0.29326  0.38222  0  0.949785  0
H  H21  1  0.64191629  0.18334039  0.94999118  1  0.635153  0  0.293246  0.382207  0  0.949799  0
H  H22  1  0.35808317  0.54142530  0.44999100  1  0.635362  0  0.293252  0.382232  0  0.94977  0
H  H23  1  0.45857432  0.81665681  0.44999091  1  0.648137  0  0.293247  0.382213  0  0.949797  0
H  H24  1  0.18334135  0.64191756  0.44999090  1  0.635204  0  0.293278  0.382235  0  0.949754  0
H  H25  1  0.64191815  0.45857655  0.44999176  1  0.635369  0  0.293264  0.382219  0  0.949786  0
H  H26  1  0.54142465  0.18334189  0.44999123  1  0.648149  0  0.293236  0.382188  0  0.949835  0
H  H27  1  0.81665928  0.35808360  0.44999061  1  0.635153  0  0.293238  0.382202  0  0.949789  0
H  H28  1  0.54142480  0.35808270  0.05000879  1  0.635364  0  0.293257  0.382219  0  0.949783  0
H  H29  1  0.81665682  0.45857497  0.05000883  1  0.648141  0  0.293246  0.382195  0  0.949823  0
H  H30  1  0.64191616  0.18334082  0.05001015  1  0.635141  0  0.293234  0.382196  0  0.949815  0
H  H31  1  0.45857611  0.64191844  0.05000926  1  0.635359  0  0.293251  0.3822  0  0.949812  0
H  H32  1  0.18334232  0.54142520  0.05000921  1  0.648144  0  0.29324  0.382201  0  0.949811  0
H  H33  1  0.35808258  0.81665975  0.05000852  1  0.635206  0  0.293268  0.382222  0  0.949775  0
H  H34  1  0.64033221  0.81087927  0.34515522  1  0.091977  0  0.121673  0.114284  0  0.942821  0
H  H35  1  0.18912110  0.82945199  0.34515570  1  0.096486  0  0.121671  0.114281  0  0.942756  0
H  H36  1  0.17054804  0.35966874  0.34515466  1  0.080366  0  0.12165  0.114271  0  0.942816  0
H  H37  1  0.35966879  0.18912159  0.34515480  1  0.091989  0  0.121668  0.114263  0  0.942814  0
H  H38  1  0.81087852  0.17054750  0.34515557  1  0.096491  0  0.121663  0.11425  0  0.942763  0
H  H39  1  0.82945226  0.64033143  0.34515474  1  0.080469  0  0.121652  0.114258  0  0.942825  0
H  H40  1  0.81087886  0.64033156  0.15484574  1  0.091987  0  0.121682  0.114309  0  0.942803  0
H  H41  1  0.82945114  0.18912022  0.15484470  1  0.096225  0  0.121665  0.114244  0  0.942805  0
H  H42  1  0.35966761  0.17054951  0.15484394  1  0.080332  0  0.121655  0.114241  0  0.942811  0
H  H43  1  0.18912316  0.35966977  0.15484567  1  0.091998  0  0.121674  0.114265  0  0.942832  0
H  H44  1  0.17054774  0.81087876  0.15484483  1  0.096246  0  0.121664  0.114269  0  0.942797  0
H  H45  1  0.64033076  0.82945135  0.15484560  1  0.080375  0  0.121661  0.114238  0  0.942798  0
H  H46  1  0.35966775  0.18912115  0.65484510  1  0.091976  0  0.121683  0.114293  0  0.942829  0
H  H47  1  0.81087856  0.17054735  0.65484400  1  0.096589  0  0.121663  0.114257  0  0.942762  0
H  H48  1  0.82945043  0.64033179  0.65484442  1  0.080332  0  0.12164  0.114229  0  0.942804  0
H  H49  1  0.64033157  0.81087843  0.65484490  1  0.091983  0  0.12167  0.114273  0  0.942825  0
H  H50  1  0.18912115  0.82945184  0.65484475  1  0.096238  0  0.121665  0.114254  0  0.942812  0
H  H51  1  0.17054957  0.35966849  0.65484434  1  0.080338  0  0.121643  0.114232  0  0.942796  0
H  H52  1  0.18912149  0.35966846  0.84515521  1  0.091986  0  0.121672  0.114287  0  0.942793  0
H  H53  1  0.17054813  0.81087951  0.84515562  1  0.096236  0  0.121667  0.114272  0  0.94276  0
H  H54  1  0.64033234  0.82945091  0.84515638  1  0.080625  0  0.121642  0.114229  0  0.942772  0
H  H55  1  0.81087787  0.64033094  0.84515465  1  0.091994  0  0.121675  0.114283  0  0.942792  0
H  H56  1  0.82945192  0.18912058  0.84515486  1  0.096243  0  0.121664  0.114272  0  0.942795  0
H  H57  1  0.35966703  0.17054849  0.84515597  1  0.080625  0  0.121641  0.114217  0  0.942777  0
H  H58  1  0.64263271  0.72095765  0.26989869  1  0.053637  0  0.110036  0.089698  0  0.995953  0
H  H59  1  0.27903999  0.92167511  0.26989911  1  0.062518  0  0.110035  0.089636  0  0.995973  0
H  H60  1  0.07832674  0.35736785  0.26989868  1  0.07244  0  0.110008  0.089628  0  0.996072  0
H  H61  1  0.35736757  0.27904259  0.26989880  1  0.053635  0  0.11004  0.089679  0  0.995975  0
H  H62  1  0.72095921  0.07832485  0.26989901  1  0.062646  0  0.110013  0.089631  0  0.995993  0
H  H63  1  0.92167492  0.64263377  0.26990006  1  0.07243  0  0.109992  0.089601  0  0.996082  0
H  H64  1  0.72095850  0.64263337  0.23010228  1  0.053703  0  0.110031  0.089671  0  0.995973  0
H  H65  1  0.92167417  0.27904052  0.23010002  1  0.06263  0  0.110017  0.08963  0  0.996022  0
H  H66  1  0.35736685  0.07832680  0.23009931  1  0.072465  0  0.110012  0.089616  0  0.996067  0
H  H67  1  0.27904217  0.35736652  0.23010165  1  0.053295  0  0.110046  0.089693  0  0.995894  0
H  H68  1  0.07832542  0.72095907  0.23010080  1  0.062619  0  0.110017  0.08964  0  0.996004  0
H  H69  1  0.64263371  0.92167457  0.23010026  1  0.072433  0  0.109985  0.089591  0  0.996065  0
H  H70  1  0.35736587  0.27904140  0.73010101  1  0.053309  0  0.11003  0.089678  0  0.995971  0
H  H71  1  0.72095967  0.07832423  0.73010121  1  0.062507  0  0.110046  0.089673  0  0.995892  0
H  H72  1  0.92167321  0.64263257  0.73009853  1  0.072465  0  0.110012  0.089624  0  0.996074  0
H  H73  1  0.64263415  0.72095880  0.73010152  1  0.053626  0  0.110068  0.089728  0  0.995845  0
H  H74  1  0.27904045  0.92167449  0.73010069  1  0.062608  0  0.110027  0.089626  0  0.996017  0
H  H75  1  0.07832720  0.35736724  0.73009963  1  0.072465  0  0.11002  0.089626  0  0.996062  0
H  H76  1  0.27904254  0.35736734  0.76989929  1  0.053644  0  0.110057  0.089735  0  0.995864  0
H  H77  1  0.07832579  0.72095990  0.76989906  1  0.062624  0  0.110029  0.089639  0  0.995998  0
H  H78  1  0.64263350  0.92167323  0.76990164  1  0.072389  0  0.110028  0.089631  0  0.996055  0
H  H79  1  0.72095749  0.64263282  0.76989805  1  0.053305  0  0.110059  0.089718  0  0.995866  0
H  H80  1  0.92167424  0.27904026  0.76989890  1  0.062634  0  0.110021  0.089631  0  0.996017  0
H  H81  1  0.35736585  0.07832625  0.76990131  1  0.072441  0  0.110004  0.089608  0  0.996044  0
C  C82  1  0.51709594  0.64952696  0.36041513  1  1.606733  0  0.222987  0.632836  0  4.165956  0
C  C83  1  0.35047528  0.86756848  0.36041373  1  1.609496  0  0.222889  0.632586  0  4.166278  0
C  C84  1  0.13243391  0.48291863  0.36041758  1  1.609952  0  0.222995  0.632959  0  4.166365  0
C  C85  1  0.48290791  0.35047516  0.36041339  1  1.606731  0  0.222896  0.632614  0  4.166199  0
C  C86  1  0.64952286  0.13243110  0.36041354  1  1.609524  0  0.222879  0.63258  0  4.166391  0
C  C87  1  0.86756503  0.51708016  0.36041780  1  1.609949  0  0.222959  0.632886  0  4.166375  0
C  C88  1  0.64952548  0.51709357  0.13958649  1  1.606736  0  0.222934  0.632697  0  4.166174  0
C  C89  1  0.86756500  0.35047961  0.13958415  1  1.610245  0  0.222836  0.632603  0  4.166344  0
C  C90  1  0.48291450  0.13243314  0.13958038  1  1.609615  0  0.222996  0.63293  0  4.166451  0
C  C91  1  0.35047712  0.48290995  0.13958579  1  1.606759  0  0.222932  0.632683  0  4.166333  0
C  C92  1  0.13243298  0.64952167  0.13958502  1  1.609819  0  0.222954  0.632693  0  4.166311  0
C  C93  1  0.51708102  0.86756647  0.13958193  1  1.609711  0  0.223005  0.633033  0  4.166227  0
C  C94  1  0.48290726  0.35047433  0.63958644  1  1.606731  0  0.222923  0.63266  0  4.166157  0
C  C95  1  0.64952438  0.13243086  0.63958596  1  1.609496  0  0.222923  0.632661  0  4.166358  0
C  C96  1  0.86756507  0.51708003  0.63957962  1  1.610068  0  0.223006  0.632991  0  4.166444  0
C  C97  1  0.51709273  0.64952595  0.63958756  1  1.60673  0  0.222929  0.63267  0  4.166098  0
C  C98  1  0.35047987  0.86756655  0.63958429  1  1.610211  0  0.222936  0.632744  0  4.166277  0
C  C99  1  0.13243435  0.48291809  0.63958065  1  1.609807  0  0.223  0.632978  0  4.166365  0
C  C100  1  0.35047498  0.48290497  0.86041507  1  1.606787  0  0.222925  0.632696  0  4.166149  0
C  C101  1  0.13243268  0.64952171  0.86041431  1  1.609519  0  0.223043  0.632918  0  4.165933  0
C  C102  1  0.51708408  0.86756591  0.86041869  1  1.609633  0  0.222986  0.632928  0  4.16644  0
C  C103  1  0.64952489  0.51709254  0.86041328  1  1.606731  0  0.222982  0.632778  0  4.166004  0
C  C104  1  0.86756629  0.35047807  0.86041468  1  1.609842  0  0.222966  0.632718  0  4.166239  0
C  C105  1  0.48291814  0.13243474  0.86041839  1  1.609651  0  0.222921  0.632847  0  4.166301  0
C  C106  1  0.59056837  0.74167987  0.30531389  1  0.424176  0  -0.056993  -0.113907  0  3.918544  0
C  C107  1  0.25831946  0.84889017  0.30531249  1  0.408698  0  -0.05697  -0.11374  0  3.918232  0
C  C108  1  0.15111173  0.40942904  0.30531016  1  0.409601  0  -0.056917  -0.113794  0  3.918263  0
C  C109  1  0.40943193  0.25832034  0.30531343  1  0.424181  0  -0.056975  -0.113787  0  3.918494  0
C  C110  1  0.74168015  0.15110935  0.30531234  1  0.408575  0  -0.056929  -0.113676  0  3.918222  0
C  C111  1  0.84888896  0.59057078  0.30531030  1  0.409513  0  -0.056883  -0.113713  0  3.918262  0
C  C112  1  0.74168078  0.59056910  0.19468709  1  0.423768  0  -0.057016  -0.1139  0  3.918451  0
C  C113  1  0.84888792  0.25831714  0.19468852  1  0.408859  0  -0.056912  -0.113676  0  3.918238  0
C  C114  1  0.40942914  0.15111205  0.19468843  1  0.409548  0  -0.056906  -0.113693  0  3.918188  0
C  C115  1  0.25831988  0.40943083  0.19468702  1  0.424197  0  -0.057029  -0.113834  0  3.918294  0
C  C116  1  0.15111137  0.74168141  0.19468870  1  0.408818  0  -0.056928  -0.11374  0  3.918283  0
C  C117  1  0.59057033  0.84888907  0.19468942  1  0.409622  0  -0.056896  -0.113725  0  3.918144  0
C  C118  1  0.40943130  0.25831947  0.69468643  1  0.424173  0  -0.056987  -0.11384  0  3.91853  0
C  C119  1  0.74167980  0.15110956  0.69468721  1  0.408604  0  -0.057005  -0.113814  0  3.91826  0
C  C120  1  0.84888753  0.59057070  0.69468891  1  0.40954  0  -0.056911  -0.113745  0  3.918237  0
C  C121  1  0.59056911  0.74168037  0.69468627  1  0.424158  0  -0.057027  -0.113869  0  3.918444  0
C  C122  1  0.25831844  0.84888970  0.69468861  1  0.408825  0  -0.056934  -0.113682  0  3.918161  0
C  C123  1  0.15111248  0.40942954  0.69468877  1  0.409529  0  -0.056934  -0.113756  0  3.918256  0
C  C124  1  0.25832055  0.40943270  0.80531386  1  0.424137  0  -0.057026  -0.113938  0  3.918431  0
C  C125  1  0.15111106  0.74168151  0.80531180  1  0.408878  0  -0.056926  -0.113737  0  3.918152  0
C  C126  1  0.59057012  0.84888769  0.80531189  1  0.409305  0  -0.056928  -0.113732  0  3.918255  0
C  C127  1  0.74167978  0.59056851  0.80531330  1  0.424176  0  -0.05701  -0.113877  0  3.918282  0
C  C128  1  0.84888898  0.25831862  0.80531100  1  0.408875  0  -0.056937  -0.113751  0  3.918306  0
C  C129  1  0.40942854  0.15111107  0.80531153  1  0.409242  0  -0.056915  -0.113688  0  3.918128  0
O  O130  1  0.41714552  0.61410046  0.35350074  1  -1.191534  0  -0.376731  -0.649901  0  2.279231  0
O  O131  1  0.38589899  0.80304907  0.35350064  1  -1.192965  0  -0.376737  -0.649821  0  2.279503  0
O  O132  1  0.19694684  0.58284124  0.35350255  1  -1.194673  0  -0.376808  -0.649997  0  2.279789  0
O  O133  1  0.58285302  0.38589873  0.35350027  1  -1.191593  0  -0.376726  -0.64983  0  2.27937  0
O  O134  1  0.61409800  0.19694618  0.35349850  1  -1.192997  0  -0.376741  -0.649858  0  2.279614  0
O  O135  1  0.80305376  0.41716001  0.35350282  1  -1.194607  0  -0.37682  -0.650003  0  2.279893  0
O  O136  1  0.61410163  0.41714746  0.14649966  1  -1.191552  0  -0.376725  -0.649868  0  2.279395  0
O  O137  1  0.80304910  0.38589415  0.14649786  1  -1.193157  0  -0.376736  -0.649828  0  2.27963  0
O  O138  1  0.58284387  0.19695035  0.14649601  1  -1.194384  0  -0.376833  -0.649999  0  2.279701  0
O  O139  1  0.38589883  0.58284995  0.14649889  1  -1.191591  0  -0.376764  -0.649858  0  2.279602  0
O  O140  1  0.19695205  0.61410394  0.14650006  1  -1.193018  0  -0.376844  -0.649979  0  2.279615  0
O  O141  1  0.41715765  0.80305287  0.14649755  1  -1.194362  0  -0.37681  -0.650008  0  2.279696  0
O  O142  1  0.58285237  0.38589790  0.64649958  1  -1.19157  0  -0.376763  -0.649863  0  2.279381  0
O  O143  1  0.61410097  0.19695136  0.64649968  1  -1.192974  0  -0.376742  -0.649856  0  2.279508  0
O  O144  1  0.80305272  0.41715958  0.64649652  1  -1.194631  0  -0.376854  -0.650071  0  2.279909  0
O  O145  1  0.41714733  0.61410130  0.64649942  1  -1.191563  0  -0.376743  -0.649849  0  2.279351  0
O  O146  1  0.38589596  0.80305062  0.64649995  1  -1.193105  0  -0.376841  -0.650007  0  2.279652  0
O  O147  1  0.19694865  0.58284208  0.64649625  1  -1.194428  0  -0.376801  -0.64998  0  2.279746  0
O  O148  1  0.38590038  0.58285502  0.85350004  1  -1.191547  0  -0.376743  -0.649892  0  2.279277  0
O  O149  1  0.19695038  0.61410263  0.85349997  1  -1.193021  0  -0.376837  -0.650027  0  2.279521  0
O  O150  1  0.41715609  0.80305007  0.85350369  1  -1.194402  0  -0.376793  -0.649949  0  2.279686  0
O  O151  1  0.61410105  0.41714643  0.85350019  1  -1.191578  0  -0.376737  -0.649894  0  2.279331  0
O  O152  1  0.80304830  0.38589608  0.85349964  1  -1.193117  0  -0.376829  -0.649951  0  2.279592  0
O  O153  1  0.58284191  0.19694795  0.85350339  1  -1.194405  0  -0.376793  -0.649948  0  2.279734  0
O  O154  1  0.52843036  0.76421607  0.25000009  1  -1.08164  0  -0.271635  -0.257607  0  2.775113  0
O  O155  1  0.23578501  0.76421624  0.25000000  1  -1.087317  0  -0.271615  -0.257604  0  2.775069  0
O  O156  1  0.23578572  0.47157078  0.25000075  1  -1.081648  0  -0.271586  -0.257601  0  2.775077  0
O  O157  1  0.47156981  0.23578567  0.24999907  1  -1.081645  0  -0.271621  -0.257645  0  2.775111  0
O  O158  1  0.76421487  0.23578442  0.25000041  1  -1.087304  0  -0.271612  -0.257616  0  2.775115  0
O  O159  1  0.76421633  0.52843046  0.25000090  1  -1.081646  0  -0.271619  -0.257628  0  2.775157  0
O  O160  1  0.47156919  0.23578475  0.75000085  1  -1.081624  0  -0.271615  -0.257644  0  2.775127  0
O  O161  1  0.76421534  0.23578378  0.74999970  1  -1.087309  0  -0.271608  -0.257586  0  2.775062  0
O  O162  1  0.76421532  0.52842993  0.74999894  1  -1.081645  0  -0.271603  -0.257621  0  2.77512  0
O  O163  1  0.52843083  0.76421544  0.75000063  1  -1.081625  0  -0.271613  -0.257643  0  2.77515  0
O  O164  1  0.23578509  0.76421600  0.74999992  1  -1.087329  0  -0.271633  -0.257656  0  2.775028  0
O  O165  1  0.23578511  0.47156986  0.74999880  1  -1.081653  0  -0.271596  -0.25759  0  2.775143  0
O  O166  1  0.65088920  0.50219027  0.49999990  1  -1.244069  0  -0.577283  -0.736963  0  2.039667  0
O  O167  1  0.49781067  0.14869892  0.50000001  1  -1.268889  0  -0.577252  -0.736931  0  2.039712  0
O  O168  1  0.85130399  0.34911375  0.50000065  1  -1.242196  0  -0.577234  -0.736913  0  2.039655  0
O  O169  1  0.34911076  0.49781016  0.50000105  1  -1.244065  0  -0.577271  -0.736967  0  2.039649  0
O  O170  1  0.50218968  0.85130110  0.50000094  1  -1.268885  0  -0.577248  -0.736909  0  2.039699  0
O  O171  1  0.14869763  0.65088913  0.50000029  1  -1.242307  0  -0.577268  -0.736959  0  2.039668  0
O  O172  1  0.50219029  0.65088913  0.00000049  1  -1.244065  0  -0.577283  -0.736966  0  2.039666  0
O  O173  1  0.14869867  0.49781058  0.00000044  1  -1.268884  0  -0.577248  -0.736938  0  2.039698  0
O  O174  1  0.34911218  0.85130327  0.99999956  1  -1.2423  0  -0.577257  -0.736923  0  2.039648  0
O  O175  1  0.49780967  0.34911129  0.99999984  1  -1.244062  0  -0.577271  -0.736954  0  2.039653  0
O  O176  1  0.85130194  0.50218953  0.00000004  1  -1.268883  0  -0.577252  -0.736931  0  2.039692  0
O  O177  1  0.65088600  0.14869618  0.00000014  1  -1.242205  0  -0.577237  -0.736935  0  2.039685  0
O  O178  1  0.56286732  0.61756300  0.40877716  1  -1.160837  0  -0.305343  -0.534584  0  2.292943  0
O  O179  1  0.38243762  0.94530674  0.40877570  1  -1.15864  0  -0.305268  -0.534484  0  2.293075  0
O  O180  1  0.05469947  0.43713401  0.40877209  1  -1.155366  0  -0.305345  -0.534641  0  2.293204  0
O  O181  1  0.43713290  0.38243860  0.40877536  1  -1.16078  0  -0.305287  -0.53447  0  2.292962  0
O  O182  1  0.61756241  0.05469229  0.40877681  1  -1.15867  0  -0.305272  -0.534474  0  2.293055  0
O  O183  1  0.94530154  0.56286679  0.40877294  1  -1.155371  0  -0.305311  -0.5346  0  2.293106  0
O  O184  1  0.61756275  0.56286776  0.09122509  1  -1.160759  0  -0.305298  -0.534484  0  2.293023  0
O  O185  1  0.94530227  0.38243616  0.09122528  1  -1.159136  0  -0.305252  -0.534507  0  2.293108  0
O  O186  1  0.43713314  0.05469964  0.09122651  1  -1.155255  0  -0.305303  -0.534613  0  2.293292  0
O  O187  1  0.38243868  0.43713147  0.09122445  1  -1.160817  0  -0.305274  -0.5345  0  2.292942  0
O  O188  1  0.05469727  0.61756358  0.09122613  1  -1.158867  0  -0.30525  -0.534424  0  2.293081  0
O  O189  1  0.56286640  0.94530009  0.09122739  1  -1.155376  0  -0.30533  -0.534676  0  2.293179  0
O  O190  1  0.43713224  0.38243782  0.59122441  1  -1.160784  0  -0.305263  -0.534482  0  2.292958  0
O  O191  1  0.61756233  0.05469369  0.59122399  1  -1.158661  0  -0.30529  -0.534503  0  2.293071  0
O  O192  1  0.94529911  0.56286504  0.59122823  1  -1.155385  0  -0.305319  -0.534627  0  2.293235  0
O  O193  1  0.56286894  0.61756132  0.59122434  1  -1.160781  0  -0.305287  -0.534504  0  2.292853  0
O  O194  1  0.38243540  0.94530202  0.59122601  1  -1.159158  0  -0.305227  -0.534454  0  2.293081  0
O  O195  1  0.05469990  0.43713352  0.59122738  1  -1.155386  0  -0.305334  -0.534656  0  2.293209  0
O  O196  1  0.38243790  0.43713335  0.90877585  1  -1.160833  0  -0.305281  -0.534465  0  2.293016  0
O  O197  1  0.05469522  0.61756260  0.90877504  1  -1.158618  0  -0.305332  -0.534597  0  2.292897  0
O  O198  1  0.56286573  0.94530049  0.90877319  1  -1.155226  0  -0.305317  -0.534621  0  2.293234  0
O  O199  1  0.61756178  0.56286708  0.90877525  1  -1.160784  0  -0.305348  -0.534555  0  2.292909  0
O  O200  1  0.94530308  0.38243645  0.90877419  1  -1.158854  0  -0.30527  -0.534462  0  2.293008  0
O  O201  1  0.43713297  0.05469816  0.90877355  1  -1.155241  0  -0.305269  -0.534577  0  2.293105  0
