# generated using pymatgen
data_UAgH14C22(NO4)2
_symmetry_space_group_name_H-M   'P 1'
_cell_length_a   8.92447894
_cell_length_b   10.10254343
_cell_length_c   12.06721505
_cell_angle_alpha   79.43876124
_cell_angle_beta   86.07030906
_cell_angle_gamma   79.08251496
_symmetry_Int_Tables_number   1
_chemical_formula_structural   UAgH14C22(NO4)2
_chemical_formula_sum   'U2 Ag2 H28 C44 N4 O16'
_cell_volume   1049.54594901
_cell_formula_units_Z   2
loop_
 _symmetry_equiv_pos_site_id
 _symmetry_equiv_pos_as_xyz
  1  'x, y, z'
loop_
 _atom_site_type_symbol
 _atom_site_label
 _atom_site_symmetry_multiplicity
 _atom_site_fract_x
 _atom_site_fract_y
 _atom_site_fract_z
 _atom_site_occupancy
 _atom_site_hle17_bader_spin_density
 _atom_site_hle17_ddec_charge
 _atom_site_hle17_ddec_spin_density
 _atom_site_hle17_ddec_sum_bond_order
 _atom_site_hle17_magmom
 _atom_site_hse06_10hf_bader_spin_density
 _atom_site_hse06_10hf_ddec_charge
 _atom_site_hse06_10hf_ddec_spin_density
 _atom_site_hse06_10hf_ddec_sum_bond_order
 _atom_site_hse06_10hf_magmom
 _atom_site_hse06_bader_spin_density
 _atom_site_hse06_ddec_charge
 _atom_site_hse06_ddec_spin_density
 _atom_site_hse06_ddec_sum_bond_order
 _atom_site_hse06_magmom
 _atom_site_pbe_bader_spin_density
 _atom_site_pbe_cm5_charge
 _atom_site_pbe_ddec_charge
 _atom_site_pbe_ddec_spin_density
 _atom_site_pbe_ddec_sum_bond_order
 _atom_site_pbe_magmom
U  U0  1  0.33159483  0.07213634  0.30814316  1  0  2.494373  0  4.147919  0  0  2.566993  0  4.802274  0  0  2.680303  0  4.761486  0  0  2.164878  2.487619  0  4.831461  0
U  U1  1  0.66840209  0.92786236  0.69185787  1  0  2.494372  0  4.147686  0  0  2.566973  0  4.802099  0  0  2.680328  0  4.761247  0  0  2.164862  2.487574  0  4.831304  0
Ag  Ag2  1  0.60839498  0.79237932  0.15277198  1  0  0.579924  0  1.286215  0  0  0.436659  0  1.702277  0  0  0.468869  0  1.657892  0  0  0.483147  0.413004  0  1.735071  0
Ag  Ag3  1  0.39160125  0.20762246  0.84723275  1  0  0.579876  0  1.286241  0  0  0.436609  0  1.702291  0  0  0.46882  0  1.657906  0  0  0.483125  0.412957  0  1.735081  0
H  H4  1  0.53107210  0.50863341  0.08218860  1  0  0.067322  0  0.938103  0  0  0.079272  0  0.996792  0  0  0.081702  0  0.994567  0  0  0.113123  0.077566  0  0.998378  0
H  H5  1  0.46892558  0.49137247  0.91781296  1  0  0.067342  0  0.938101  0  0  0.079279  0  0.9968  0  0  0.081707  0  0.99458  0  0  0.11312  0.07758  0  0.998385  0
H  H6  1  0.60993916  0.25365883  0.13418892  1  0  0.119679  0  0.962475  0  0  0.129159  0  1.022244  0  0  0.132525  0  1.020525  0  0  0.115044  0.126653  0  1.023841  0
H  H7  1  0.39006104  0.74634602  0.86580855  1  0  0.119695  0  0.962583  0  0  0.129166  0  1.02236  0  0  0.132532  0  1.02064  0  0  0.115047  0.12666  0  1.023953  0
H  H8  1  0.81720794  0.16289034  0.27553298  1  0  0.099508  0  0.933213  0  0  0.115236  0  0.98397  0  0  0.117015  0  0.983325  0  0  0.114832  0.114355  0  0.983849  0
H  H9  1  0.18279114  0.83711450  0.72446454  1  0  0.099519  0  0.933166  0  0  0.115254  0  0.983921  0  0  0.117034  0  0.983274  0  0  0.114827  0.114373  0  0.983796  0
H  H10  1  0.93564581  0.32558017  0.35390005  1  0  0.110142  0  0.964  0  0  0.119831  0  1.026375  0  0  0.122703  0  1.025362  0  0  0.111726  0.117849  0  1.027097  0
H  H11  1  0.06435385  0.67442161  0.64610040  1  0  0.110111  0  0.964028  0  0  0.119798  0  1.02641  0  0  0.12267  0  1.025396  0  0  0.111717  0.117814  0  1.027125  0
H  H12  1  0.06778294  0.47453652  0.36434295  1  0  0.114173  0  0.954481  0  0  0.12462  0  1.014724  0  0  0.128002  0  1.01344  0  0  0.112015  0.121993  0  1.016014  0
H  H13  1  0.93221633  0.52546731  0.63565554  1  0  0.114168  0  0.954519  0  0  0.124624  0  1.014763  0  0  0.128004  0  1.013482  0  0  0.111971  0.121995  0  1.016052  0
H  H14  1  0.15295810  0.65032564  0.45282216  1  0  0.088436  0  0.970329  0  0  0.101129  0  1.029164  0  0  0.102759  0  1.029594  0  0  0.105794  0.100259  0  1.028461  0
H  H15  1  0.84705062  0.34967615  0.54717377  1  0  0.088456  0  0.97042  0  0  0.101207  0  1.02919  0  0  0.102837  0  1.029621  0  0  0.105814  0.100336  0  1.028496  0
H  H16  1  0.98779496  0.88384949  0.44029248  1  0  0.124127  0  0.939484  0  0  0.137433  0  0.990514  0  0  0.140541  0  0.98863  0  0  0.120329  0.135199  0  0.992341  0
H  H17  1  0.01221358  0.11615331  0.55970164  1  0  0.124191  0  0.939368  0  0  0.137498  0  0.990396  0  0  0.140608  0  0.988509  0  0  0.120364  0.135264  0  0.992232  0
H  H18  1  0.74960395  0.93225715  0.32938175  1  0  0.085872  0  0.950889  0  0  0.097657  0  1.011332  0  0  0.099826  0  1.008914  0  0  0.12299  0.096392  0  1.012572  0
H  H19  1  0.25039895  0.06775078  0.67061762  1  0  0.085843  0  0.950995  0  0  0.097652  0  1.011427  0  0  0.099817  0  1.009015  0  0  0.122992  0.096386  0  1.012657  0
H  H20  1  0.02922244  0.25244234  0.99078093  1  0  0.100513  0  0.973373  0  0  0.108326  0  1.04054  0  0  0.110636  0  1.040769  0  0  0.103394  0.10663  0  1.040672  0
H  H21  1  0.97078394  0.74755432  0.00921671  1  0  0.100511  0  0.97339  0  0  0.108268  0  1.040598  0  0  0.110577  0  1.04083  0  0  0.103385  0.106572  0  1.040741  0
H  H22  1  0.15852781  0.57508048  0.13063979  1  0  0.102227  0  0.935643  0  0  0.11551  0  0.989767  0  0  0.11862  0  0.988676  0  0  0.10597  0.113002  0  0.99102  0
H  H23  1  0.84147494  0.42491721  0.86936033  1  0  0.10224  0  0.935627  0  0  0.115522  0  0.989748  0  0  0.118632  0  0.988656  0  0  0.105967  0.113014  0  0.990997  0
H  H24  1  0.61580463  0.32250157  0.65717234  1  0  0.106442  0  0.96031  0  0  0.112484  0  1.029754  0  0  0.116845  0  1.025832  0  0  0.108312  0.109188  0  1.032802  0
H  H25  1  0.38419175  0.67748893  0.34282748  1  0  0.106508  0  0.960278  0  0  0.112532  0  1.029716  0  0  0.116919  0  1.025764  0  0  0.108322  0.109228  0  1.032789  0
H  H26  1  0.37939081  0.42944161  0.34497289  1  0  0.118545  0  0.960784  0  0  0.12791  0  1.022342  0  0  0.1317  0  1.020028  0  0  0.111485  0.124979  0  1.024424  0
H  H27  1  0.62060647  0.57054993  0.65502757  1  0  0.118602  0  0.960676  0  0  0.127901  0  1.022308  0  0  0.131697  0  1.019978  0  0  0.111484  0.124974  0  1.024388  0
H  H28  1  0.01991734  0.95226381  0.20795452  1  0  0.092394  0  0.989619  0  0  0.097906  0  1.060518  0  0  0.100169  0  1.060578  0  0  0.10532  0.096498  0  1.060616  0
H  H29  1  0.98007848  0.04774002  0.79204909  1  0  0.092402  0  0.989671  0  0  0.097916  0  1.060553  0  0  0.100195  0  1.060604  0  0  0.105351  0.096509  0  1.060646  0
H  H30  1  0.23661302  0.96185793  0.87896715  1  0  0.103946  0  0.970871  0  0  0.110927  0  1.041571  0  0  0.114219  0  1.038568  0  0  0.104811  0.108363  0  1.044935  0
H  H31  1  0.76338282  0.03814589  0.12103563  1  0  0.103973  0  0.970787  0  0  0.110918  0  1.041515  0  0  0.114209  0  1.038511  0  0  0.104794  0.108345  0  1.044898  0
C  C32  1  0.62119914  0.46340867  0.14178593  1  0  0.126102  0  3.744009  0  0  0.099455  0  3.996523  0  0  0.104882  0  4.015598  0  0  0.048061  0.095448  0  3.983525  0
C  C33  1  0.37880010  0.53659515  0.85821422  1  0  0.125944  0  3.74416  0  0  0.099304  0  3.996684  0  0  0.10473  0  4.01576  0  0  0.048017  0.09529  0  3.983697  0
C  C34  1  0.66417278  0.32209285  0.17142043  1  0  -0.10739  0  3.707261  0  0  -0.122299  0  3.957218  0  0  -0.128385  0  3.979476  0  0  -0.074779  -0.11809  0  3.941862  0
C  C35  1  0.33582605  0.67791303  0.82857942  1  0  -0.107329  0  3.707403  0  0  -0.122232  0  3.95734  0  0  -0.128321  0  3.979606  0  0  -0.074732  -0.118018  0  3.941985  0
C  C36  1  0.77886981  0.27244681  0.24921871  1  0  0.004981  0  3.699615  0  0  -0.011338  0  3.944187  0  0  -0.009563  0  3.965052  0  0  -0.060974  -0.011968  0  3.928967  0
C  C37  1  0.22113058  0.72755701  0.75077974  1  0  0.004939  0  3.699646  0  0  -0.011385  0  3.944231  0  0  -0.009613  0  3.965099  0  0  -0.060999  -0.012016  0  3.929008  0
C  C38  1  0.84573318  0.36426745  0.29357229  1  0  -0.141311  0  3.692755  0  0  -0.160572  0  3.939785  0  0  -0.166965  0  3.961872  0  0  -0.075707  -0.156023  0  3.924247  0
C  C39  1  0.15426424  0.63573433  0.70642825  1  0  -0.141275  0  3.692727  0  0  -0.160532  0  3.939744  0  0  -0.16692  0  3.961828  0  0  -0.075686  -0.15598  0  3.924203  0
C  C40  1  0.79644915  0.50519027  0.25846608  1  0  0.168836  0  3.779246  0  0  0.169265  0  4.015075  0  0  0.174435  0  4.037583  0  0  0.11685  0.165113  0  4.000143  0
C  C41  1  0.20355032  0.49481254  0.74153339  1  0  0.168856  0  3.77922  0  0  0.169292  0  4.015045  0  0  0.174458  0  4.037552  0  0  0.116829  0.165141  0  4.00012  0
C  C42  1  0.85993953  0.60923526  0.30410536  1  0  0.172017  0  3.750062  0  0  0.168677  0  3.985723  0  0  0.17521  0  4.007707  0  0  0.118186  0.16433  0  3.970673  0
C  C43  1  0.14006492  0.39077063  0.69589425  1  0  0.171947  0  3.750086  0  0  0.168592  0  3.985774  0  0  0.175125  0  4.007758  0  0  0.1182  0.164237  0  3.970729  0
C  C44  1  0.99768340  0.57591736  0.36047751  1  0  -0.146235  0  3.706055  0  0  -0.161639  0  3.949148  0  0  -0.168567  0  3.970047  0  0  -0.077991  -0.156936  0  3.93512  0
C  C45  1  0.00231969  0.42408442  0.63951948  1  0  -0.146278  0  3.70598  0  0  -0.161699  0  3.949094  0  0  -0.168627  0  3.969994  0  0  -0.077981  -0.156987  0  3.935056  0
C  C46  1  0.04573385  0.67479742  0.40926894  1  0  -0.003827  0  3.724577  0  0  -0.019878  0  3.969053  0  0  -0.016498  0  3.987975  0  0  -0.065248  -0.021978  0  3.955768  0
C  C47  1  0.95426907  0.32520538  0.59072541  1  0  -0.003864  0  3.724706  0  0  -0.019959  0  3.96917  0  0  -0.016582  0  3.988093  0  0  -0.065299  -0.022064  0  3.955889  0
C  C48  1  0.95583338  0.80452282  0.40157168  1  0  -0.099534  0  3.692652  0  0  -0.113409  0  3.940996  0  0  -0.119064  0  3.959969  0  0  -0.067332  -0.109879  0  3.928613  0
C  C49  1  0.04417471  0.19548203  0.59842380  1  0  -0.099567  0  3.692593  0  0  -0.113435  0  3.940966  0  0  -0.119089  0  3.959938  0  0  -0.067267  -0.10991  0  3.928591  0
C  C50  1  0.82342851  0.83188539  0.34033838  1  0  0.130768  0  3.702436  0  0  0.101735  0  3.952121  0  0  0.108386  0  3.971149  0  0  0.055103  0.097286  0  3.938636  0
C  C51  1  0.17657879  0.16811743  0.65966242  1  0  0.130887  0  3.702541  0  0  0.101796  0  3.952292  0  0  0.108449  0  3.97132  0  0  0.055098  0.097354  0  3.938791  0
C  C52  1  0.10435856  0.40400158  0.06732293  1  0  -0.048613  0  3.747203  0  0  -0.025266  0  3.974562  0  0  -0.031541  0  3.995094  0  0  -0.010266  -0.021135  0  3.960528  0
C  C53  1  0.89564798  0.59599407  0.93267734  1  0  -0.048482  0  3.747356  0  0  -0.025126  0  3.974642  0  0  -0.031399  0  3.995172  0  0  -0.010251  -0.020989  0  3.960601  0
C  C54  1  0.01552690  0.36113430  0.99379278  1  0  -0.058348  0  3.695903  0  0  -0.084286  0  3.951808  0  0  -0.08432  0  3.971414  0  0  -0.07872  -0.084331  0  3.938714  0
C  C55  1  0.98447795  0.63886441  0.00620378  1  0  -0.058375  0  3.696169  0  0  -0.084287  0  3.952117  0  0  -0.084321  0  3.971722  0  0  -0.078696  -0.084323  0  3.938995  0
C  C56  1  0.08887293  0.54319524  0.07316556  1  0  -0.069617  0  3.722448  0  0  -0.096514  0  3.976209  0  0  -0.097588  0  3.996401  0  0  -0.081701  -0.095243  0  3.962512  0
C  C57  1  0.91112851  0.45680347  0.92683362  1  0  -0.069721  0  3.722417  0  0  -0.096621  0  3.9762  0  0  -0.097696  0  3.996393  0  0  -0.081741  -0.095348  0  3.962487  0
C  C58  1  0.20931617  0.29868277  0.14182969  1  0  0.623376  0  3.904086  0  0  0.586883  0  4.200564  0  0  0.623445  0  4.192768  0  0  0.202217  0.562207  0  4.203795  0
C  C59  1  0.79068586  0.70131287  0.85817160  1  0  0.623343  0  3.904222  0  0  0.58688  0  4.200667  0  0  0.623442  0  4.192879  0  0  0.202282  0.562196  0  4.203903  0
C  C60  1  0.49849041  0.36182442  0.50083457  1  0  -0.060892  0  3.728748  0  0  -0.044458  0  3.960931  0  0  -0.05264  0  3.983446  0  0  -0.008771  -0.039781  0  3.945911  0
C  C61  1  0.50150596  0.63816609  0.49916608  1  0  -0.060867  0  3.728691  0  0  -0.044356  0  3.960733  0  0  -0.052542  0  3.983257  0  0  -0.008791  -0.039679  0  3.945717  0
C  C62  1  0.56634973  0.40105460  0.58834568  1  0  -0.070204  0  3.719358  0  0  -0.09569  0  3.97738  0  0  -0.096144  0  3.996158  0  0  -0.0789  -0.095312  0  3.965119  0
C  C63  1  0.43364848  0.59893796  0.41165375  1  0  -0.070485  0  3.719602  0  0  -0.095952  0  3.977622  0  0  -0.096428  0  3.996388  0  0  -0.079014  -0.095586  0  3.965372  0
C  C64  1  0.43148871  0.46129049  0.41255216  1  0  -0.064676  0  3.686058  0  0  -0.08883  0  3.934109  0  0  -0.089786  0  3.954822  0  0  -0.077949  -0.088561  0  3.920805  0
C  C65  1  0.56850862  0.53870104  0.58744582  1  0  -0.064941  0  3.686045  0  0  -0.089036  0  3.934075  0  0  -0.089989  0  3.954779  0  0  -0.078033  -0.08877  0  3.920768  0
C  C66  1  0.49960117  0.21377200  0.50135130  1  0  0.723049  0  3.811403  0  0  0.693912  0  4.09453  0  0  0.736325  0  4.078373  0  0  0.259904  0.665807  0  4.103454  0
C  C67  1  0.50040060  0.78621954  0.49864897  1  0  0.723294  0  3.811048  0  0  0.694108  0  4.094251  0  0  0.73652  0  4.078096  0  0  0.260058  0.666008  0  4.103168  0
C  C68  1  0.14169725  0.95023433  0.04878273  1  0  -0.042857  0  3.738614  0  0  -0.021405  0  3.963857  0  0  -0.027053  0  3.983325  0  0  -0.006863  -0.016835  0  3.950434  0
C  C69  1  0.85830122  0.04976746  0.95122191  1  0  -0.04286  0  3.738647  0  0  -0.021458  0  3.963914  0  0  -0.027107  0  3.983386  0  0  -0.00685  -0.016847  0  3.950431  0
C  C70  1  0.00907244  0.97295722  0.11696702  1  0  -0.067914  0  3.72502  0  0  -0.092009  0  3.975176  0  0  -0.093236  0  3.996571  0  0  -0.07921  -0.092282  0  3.960685  0
C  C71  1  0.99092226  0.02704661  0.88303663  1  0  -0.067903  0  3.725093  0  0  -0.09196  0  3.975269  0  0  -0.093203  0  3.996646  0  0  -0.079268  -0.092246  0  3.960769  0
C  C72  1  0.13230887  0.97809852  0.93109995  1  0  -0.08806  0  3.73112  0  0  -0.112269  0  3.98852  0  0  -0.113403  0  4.008762  0  0  -0.082334  -0.10994  0  3.974596  0
C  C73  1  0.86768581  0.02190530  0.06890453  1  0  -0.0881  0  3.731158  0  0  -0.112221  0  3.988514  0  0  -0.113356  0  4.008754  0  0  -0.08236  -0.1099  0  3.974576  0
C  C74  1  0.29230940  0.90066866  0.10215542  1  0  0.67022  0  3.851072  0  0  0.633147  0  4.127067  0  0  0.670967  0  4.117693  0  0  0.224392  0.606925  0  4.132604  0
C  C75  1  0.70768770  0.09932902  0.89784741  1  0  0.670284  0  3.851008  0  0  0.633213  0  4.127016  0  0  0.671034  0  4.117645  0  0  0.224411  0.606981  0  4.132543  0
N  N76  1  0.68598381  0.55219533  0.18305315  1  0  -0.34932  0  3.293973  0  0  -0.284324  0  3.567797  0  0  -0.300843  0  3.584183  0  0  -0.330607  -0.272388  0  3.556905  0
N  N77  1  0.31401541  0.44780851  0.81694866  1  0  -0.349236  0  3.293937  0  0  -0.284239  0  3.567746  0  0  -0.300754  0  3.584131  0  0  -0.330606  -0.272305  0  3.556864  0
N  N78  1  0.77762878  0.73808688  0.29126974  1  0  -0.340052  0  3.279326  0  0  -0.263766  0  3.553409  0  0  -0.283259  0  3.571147  0  0  -0.331727  -0.250116  0  3.540754  0
N  N79  1  0.22237030  0.26191796  0.70872777  1  0  -0.34003  0  3.279406  0  0  -0.263721  0  3.553501  0  0  -0.283215  0  3.571241  0  0  -0.33173  -0.25007  0  3.540838  0
O  O80  1  0.25922620  0.32415681  0.23138337  1  0  -0.640494  0  1.952714  0  0  -0.625499  0  2.207925  0  0  -0.656318  0  2.203043  0  0  -0.342262  -0.602989  0  2.209293  0
O  O81  1  0.74077181  0.67584190  0.76861927  1  0  -0.640534  0  1.952849  0  0  -0.625533  0  2.208032  0  0  -0.65636  0  2.203151  0  0  -0.342335  -0.603024  0  2.209401  0
O  O82  1  0.24424363  0.17718383  0.11959557  1  0  -0.635574  0  2.033196  0  0  -0.614064  0  2.292322  0  0  -0.647492  0  2.290094  0  0  -0.3454  -0.59078  0  2.293122  0
O  O83  1  0.75575842  0.82281180  0.88040489  1  0  -0.635574  0  2.033148  0  0  -0.61408  0  2.29227  0  0  -0.647512  0  2.290039  0  0  -0.345412  -0.590796  0  2.293075  0
O  O84  1  0.40135094  0.18176606  0.44419234  1  0  -0.672635  0  2.09815  0  0  -0.662344  0  2.376972  0  0  -0.699161  0  2.369333  0  0  -0.369547  -0.636338  0  2.381196  0
O  O85  1  0.59864535  0.81822446  0.55581328  1  0  -0.672704  0  2.097863  0  0  -0.662409  0  2.376721  0  0  -0.699233  0  2.36908  0  0  -0.369638  -0.636399  0  2.38094  0
O  O86  1  0.59919125  0.12566613  0.55896563  1  0  -0.668209  0  2.058896  0  0  -0.653489  0  2.32793  0  0  -0.688779  0  2.317659  0  0  -0.367425  -0.628785  0  2.334205  0
O  O87  1  0.40081148  0.87432643  0.44103195  1  0  -0.668289  0  2.058852  0  0  -0.653568  0  2.327913  0  0  -0.68885  0  2.317643  0  0  -0.367394  -0.628864  0  2.334182  0
O  O88  1  0.29710078  0.90156129  0.20918036  1  0  -0.720203  0  2.094125  0  0  -0.701163  0  2.374808  0  0  -0.738168  0  2.3671  0  0  -0.400133  -0.673065  0  2.377933  0
O  O89  1  0.70289857  0.09843640  0.79082156  1  0  -0.720236  0  2.094165  0  0  -0.7012  0  2.374863  0  0  -0.738206  0  2.367144  0  0  -0.400144  -0.67311  0  2.378003  0
O  O90  1  0.40833648  0.86005699  0.04325803  1  0  -0.550996  0  2.015212  0  0  -0.484171  0  2.265557  0  0  -0.513955  0  2.253643  0  0  -0.292428  -0.462782  0  2.273362  0
O  O91  1  0.59165526  0.13993965  0.95674270  1  0  -0.551048  0  2.01517  0  0  -0.484213  0  2.265521  0  0  -0.513998  0  2.253606  0  0  -0.292449  -0.462828  0  2.273333  0
O  O92  1  0.52805535  0.05864093  0.25404558  1  0  -0.747376  0  1.619194  0  0  -0.756203  0  1.938293  0  0  -0.777135  0  1.921284  0  0  -0.758911  -0.744142  0  1.951447  0
O  O93  1  0.47194355  0.94135881  0.74595853  1  0  -0.74737  0  1.619199  0  0  -0.756177  0  1.938274  0  0  -0.777117  0  1.921257  0  0  -0.758957  -0.744131  0  1.95148  0
O  O94  1  0.13628234  0.08558110  0.36486282  1  0  -0.73243  0  1.525857  0  0  -0.739058  0  1.806589  0  0  -0.760046  0  1.793005  0  0  -0.762566  -0.726788  0  1.817217  0
O  O95  1  0.86372133  0.91441762  0.63513711  1  0  -0.732443  0  1.525622  0  0  -0.739082  0  1.806358  0  0  -0.760081  0  1.792766  0  0  -0.762536  -0.726799  0  1.816979  0
