# generated using pymatgen
data_Zn2P2H12C8N4O7
_symmetry_space_group_name_H-M   'P 1'
_cell_length_a   9.67653457
_cell_length_b   10.47765174
_cell_length_c   14.65624137
_cell_angle_alpha   89.99999984
_cell_angle_beta   90.00002589
_cell_angle_gamma   90.00005343
_symmetry_Int_Tables_number   1
_chemical_formula_structural   Zn2P2H12C8N4O7
_chemical_formula_sum   'Zn8 P8 H48 C32 N16 O28'
_cell_volume   1485.95760916
_cell_formula_units_Z   4
loop_
 _symmetry_equiv_pos_site_id
 _symmetry_equiv_pos_as_xyz
  1  'x, y, z'
loop_
 _atom_site_type_symbol
 _atom_site_label
 _atom_site_symmetry_multiplicity
 _atom_site_fract_x
 _atom_site_fract_y
 _atom_site_fract_z
 _atom_site_occupancy
 _atom_site_hle17_bader_spin_density
 _atom_site_hle17_ddec_charge
 _atom_site_hle17_ddec_spin_density
 _atom_site_hle17_ddec_sum_bond_order
 _atom_site_hle17_magmom
 _atom_site_hse06_10hf_bader_spin_density
 _atom_site_hse06_10hf_ddec_charge
 _atom_site_hse06_10hf_ddec_spin_density
 _atom_site_hse06_10hf_ddec_sum_bond_order
 _atom_site_hse06_10hf_magmom
 _atom_site_hse06_bader_spin_density
 _atom_site_hse06_ddec_charge
 _atom_site_hse06_ddec_spin_density
 _atom_site_hse06_ddec_sum_bond_order
 _atom_site_hse06_magmom
 _atom_site_pbe_bader_spin_density
 _atom_site_pbe_cm5_charge
 _atom_site_pbe_ddec_charge
 _atom_site_pbe_ddec_spin_density
 _atom_site_pbe_ddec_sum_bond_order
 _atom_site_pbe_magmom
Zn  Zn0  1  0.24934195  0.58729201  0.93565398  1  0  1.135425  0  1.873128  0  0  0.957749  0  2.354924  0  0  0.999014  0  2.298227  0  0  0.722438  0.928157  0  2.394387  0
Zn  Zn1  1  0.74934106  0.91270770  0.06434608  1  0  1.135446  0  1.873118  0  0  0.957782  0  2.354912  0  0  0.999036  0  2.298212  0  0  0.722439  0.92817  0  2.394345  0
Zn  Zn2  1  0.25065827  0.41270709  0.43565334  1  0  1.135468  0  1.872981  0  0  0.95782  0  2.354756  0  0  0.999086  0  2.29806  0  0  0.722457  0.928219  0  2.394183  0
Zn  Zn3  1  0.75065843  0.08729278  0.56434671  1  0  1.135397  0  1.87314  0  0  0.957733  0  2.35493  0  0  0.998988  0  2.298232  0  0  0.722429  0.928131  0  2.394373  0
Zn  Zn4  1  0.35768357  0.97571878  0.81651226  1  0  1.156053  0  1.858066  0  0  0.97657  0  2.34795  0  0  1.017131  0  2.291153  0  0  0.721252  0.947531  0  2.387359  0
Zn  Zn5  1  0.85768341  0.52428006  0.18348783  1  0  1.156108  0  1.857956  0  0  0.97661  0  2.347841  0  0  1.017171  0  2.291045  0  0  0.721275  0.947567  0  2.387242  0
Zn  Zn6  1  0.14231657  0.02428127  0.31651091  1  0  1.156072  0  1.858037  0  0  0.976582  0  2.347929  0  0  1.017144  0  2.291133  0  0  0.721267  0.947543  0  2.387345  0
Zn  Zn7  1  0.64231617  0.47571851  0.68348843  1  0  1.156077  0  1.857983  0  0  0.976589  0  2.347857  0  0  1.017152  0  2.29106  0  0  0.721284  0.947569  0  2.387267  0
P  P8  1  0.44786446  0.69606742  0.78173528  1  0  1.449873  0  4.848387  0  0  1.288074  0  5.337784  0  0  1.33648  0  5.302585  0  0  0.343872  1.254149  0  5.361565  0
P  P9  1  0.94786461  0.80393341  0.21826483  1  0  1.449806  0  4.848543  0  0  1.288028  0  5.337913  0  0  1.33643  0  5.302711  0  0  0.34383  1.254099  0  5.361699  0
P  P10  1  0.05213772  0.30393263  0.28173254  1  0  1.449913  0  4.848487  0  0  1.288087  0  5.337871  0  0  1.33651  0  5.302669  0  0  0.343881  1.254173  0  5.361636  0
P  P11  1  0.55213602  0.19606612  0.71826677  1  0  1.449782  0  4.848666  0  0  1.287978  0  5.33804  0  0  1.336396  0  5.302849  0  0  0.343802  1.254046  0  5.36183  0
P  P12  1  0.46763406  0.80036847  0.97854973  1  0  1.427527  0  4.870028  0  0  1.263996  0  5.358735  0  0  1.313189  0  5.323282  0  0  0.337887  1.229296  0  5.383018  0
P  P13  1  0.96763603  0.69963238  0.02145176  1  0  1.427463  0  4.870156  0  0  1.263946  0  5.358854  0  0  1.313136  0  5.323397  0  0  0.337854  1.229248  0  5.383131  0
P  P14  1  0.03236516  0.19963253  0.47854903  1  0  1.427485  0  4.870107  0  0  1.263945  0  5.35881  0  0  1.31314  0  5.323363  0  0  0.33787  1.22926  0  5.383061  0
P  P15  1  0.53236654  0.30036620  0.52145028  1  0  1.42757  0  4.869988  0  0  1.264044  0  5.358671  0  0  1.313253  0  5.323231  0  0  0.337856  1.229339  0  5.382962  0
H  H16  1  0.68326171  0.54845429  0.86448777  1  0  0.104449  0  0.961459  0  0  0.125384  0  1.026708  0  0  0.127202  0  1.025876  0  0  0.08962  0.123932  0  1.027593  0
H  H17  1  0.18326448  0.95154631  0.13551158  1  0  0.104443  0  0.961454  0  0  0.125373  0  1.026707  0  0  0.12719  0  1.025876  0  0  0.089609  0.123921  0  1.027585  0
H  H18  1  0.81673592  0.45154619  0.36448852  1  0  0.104443  0  0.961453  0  0  0.125379  0  1.026702  0  0  0.127198  0  1.025868  0  0  0.089613  0.123932  0  1.027577  0
H  H19  1  0.31673657  0.04845279  0.63551087  1  0  0.104457  0  0.961439  0  0  0.125384  0  1.026697  0  0  0.127202  0  1.025863  0  0  0.089611  0.123931  0  1.027579  0
H  H20  1  0.52805119  0.51941050  0.92609290  1  0  0.10884  0  0.962853  0  0  0.128385  0  1.03009  0  0  0.130321  0  1.029265  0  0  0.092078  0.127044  0  1.030548  0
H  H21  1  0.02805292  0.98059092  0.07390640  1  0  0.10885  0  0.962834  0  0  0.128379  0  1.030092  0  0  0.130316  0  1.029264  0  0  0.092084  0.127039  0  1.030554  0
H  H22  1  0.97194855  0.48058998  0.42609438  1  0  0.108838  0  0.962854  0  0  0.128381  0  1.030098  0  0  0.130319  0  1.029271  0  0  0.092083  0.127045  0  1.030558  0
H  H23  1  0.47194705  0.01941009  0.57390437  1  0  0.108838  0  0.96285  0  0  0.128367  0  1.030119  0  0  0.130303  0  1.029295  0  0  0.092068  0.127025  0  1.030578  0
H  H24  1  0.66962982  0.59669124  0.98010132  1  0  0.126882  0  0.959169  0  0  0.144955  0  1.022558  0  0  0.147004  0  1.022327  0  0  0.095101  0.143489  0  1.022651  0
H  H25  1  0.16963144  0.90330935  0.01989803  1  0  0.126843  0  0.959206  0  0  0.14491  0  1.022606  0  0  0.146959  0  1.022375  0  0  0.095082  0.143436  0  1.022715  0
H  H26  1  0.83036789  0.40330829  0.48010207  1  0  0.126855  0  0.959206  0  0  0.144923  0  1.022607  0  0  0.14697  0  1.022377  0  0  0.095099  0.143452  0  1.022718  0
H  H27  1  0.33036850  0.09669166  0.51989801  1  0  0.12684  0  0.95922  0  0  0.144913  0  1.02261  0  0  0.146961  0  1.022377  0  0  0.095092  0.143443  0  1.022704  0
H  H28  1  0.15698734  0.19887478  0.73549282  1  0  0.097781  0  0.96009  0  0  0.105544  0  1.025337  0  0  0.108255  0  1.022221  0  0  0.136336  0.103382  0  1.027894  0
H  H29  1  0.65698648  0.30112596  0.26450857  1  0  0.097786  0  0.960114  0  0  0.105555  0  1.025348  0  0  0.108264  0  1.022238  0  0  0.136345  0.103389  0  1.027902  0
H  H30  1  0.34301274  0.80112622  0.23549290  1  0  0.097804  0  0.960116  0  0  0.105569  0  1.025352  0  0  0.108279  0  1.022238  0  0  0.136342  0.103403  0  1.027906  0
H  H31  1  0.84301315  0.69887452  0.76450718  1  0  0.097809  0  0.96007  0  0  0.105568  0  1.025318  0  0  0.10828  0  1.022202  0  0  0.136345  0.103404  0  1.02787  0
H  H32  1  0.89109724  0.16112714  0.73137523  1  0  0.310787  0  0.881146  0  0  0.293252  0  0.941145  0  0  0.300176  0  0.936063  0  0  0.325813  0.288159  0  0.945085  0
H  H33  1  0.39109585  0.33887381  0.26862555  1  0  0.310763  0  0.881162  0  0  0.293231  0  0.941158  0  0  0.300154  0  0.936077  0  0  0.325797  0.288138  0  0.945091  0
H  H34  1  0.60890237  0.83887430  0.23137592  1  0  0.310733  0  0.881179  0  0  0.293212  0  0.941168  0  0  0.300136  0  0.936087  0  0  0.325786  0.288118  0  0.945105  0
H  H35  1  0.10890322  0.66112719  0.76862477  1  0  0.310748  0  0.881161  0  0  0.293221  0  0.941168  0  0  0.300144  0  0.936087  0  0  0.325802  0.288134  0  0.945097  0
H  H36  1  0.82252662  0.95561715  0.80553271  1  0  0.12546  0  0.969722  0  0  0.133085  0  1.033328  0  0  0.135822  0  1.031697  0  0  0.12555  0.131072  0  1.034588  0
H  H37  1  0.32252696  0.54438357  0.19446737  1  0  0.125452  0  0.969796  0  0  0.133075  0  1.03341  0  0  0.135812  0  1.03178  0  0  0.12556  0.131065  0  1.03467  0
H  H38  1  0.67747303  0.04438428  0.30553342  1  0  0.125492  0  0.969801  0  0  0.133122  0  1.03339  0  0  0.135858  0  1.03176  0  0  0.125575  0.13111  0  1.034649  0
H  H39  1  0.17747413  0.45561552  0.69446798  1  0  0.125463  0  0.969682  0  0  0.133082  0  1.033305  0  0  0.13582  0  1.031675  0  0  0.125556  0.131076  0  1.034559  0
H  H40  1  0.07053320  0.84517223  0.86311966  1  0  0.115939  0  0.991769  0  0  0.123076  0  1.053681  0  0  0.126185  0  1.051963  0  0  0.115755  0.120773  0  1.0551  0
H  H41  1  0.57053417  0.65482827  0.13688034  1  0  0.115942  0  0.991772  0  0  0.123079  0  1.053683  0  0  0.126187  0  1.051968  0  0  0.115757  0.120778  0  1.055101  0
H  H42  1  0.42946490  0.15482973  0.36311977  1  0  0.115948  0  0.991806  0  0  0.123094  0  1.053703  0  0  0.126201  0  1.05199  0  0  0.115764  0.120794  0  1.055126  0
H  H43  1  0.92946640  0.34517030  0.63688034  1  0  0.115872  0  0.991848  0  0  0.123077  0  1.053672  0  0  0.126186  0  1.051955  0  0  0.115757  0.120777  0  1.055097  0
H  H44  1  0.11519025  0.43013364  0.09337184  1  0  0.101281  0  0.974914  0  0  0.10541  0  1.046451  0  0  0.108494  0  1.042363  0  0  0.135548  0.102885  0  1.049835  0
H  H45  1  0.61518959  0.06986707  0.90662817  1  0  0.101292  0  0.97492  0  0  0.10542  0  1.04646  0  0  0.108505  0  1.04237  0  0  0.135554  0.102896  0  1.049848  0
H  H46  1  0.38481077  0.56986641  0.59337183  1  0  0.101276  0  0.974914  0  0  0.105404  0  1.046461  0  0  0.108489  0  1.042363  0  0  0.135549  0.102885  0  1.04984  0
H  H47  1  0.88480910  0.93013437  0.40662689  1  0  0.101285  0  0.974912  0  0  0.105415  0  1.046453  0  0  0.108497  0  1.042365  0  0  0.135548  0.102891  0  1.049838  0
H  H48  1  0.17814140  0.20299976  0.12882159  1  0  0.309405  0  0.910405  0  0  0.292578  0  0.966325  0  0  0.300143  0  0.961028  0  0  0.315408  0.287175  0  0.970184  0
H  H49  1  0.67814095  0.29700100  0.87117912  1  0  0.309407  0  0.9104  0  0  0.292578  0  0.966323  0  0  0.300143  0  0.961026  0  0  0.315405  0.287176  0  0.970186  0
H  H50  1  0.32185861  0.79700124  0.62882089  1  0  0.309407  0  0.910405  0  0  0.292577  0  0.96633  0  0  0.300142  0  0.961031  0  0  0.3154  0.287173  0  0.970194  0
H  H51  1  0.82185875  0.70299948  0.37117919  1  0  0.309431  0  0.910401  0  0  0.29259  0  0.966329  0  0  0.300154  0  0.961033  0  0  0.315405  0.287186  0  0.97019  0
H  H52  1  0.34896590  0.10929372  0.00770053  1  0  0.128534  0  0.971646  0  0  0.137925  0  1.02916  0  0  0.141003  0  1.027413  0  0  0.122214  0.1356  0  1.030723  0
H  H53  1  0.84896665  0.39070719  0.99229956  1  0  0.1285  0  0.971648  0  0  0.137896  0  1.02916  0  0  0.140973  0  1.027416  0  0  0.1222  0.135577  0  1.030727  0
H  H54  1  0.15103403  0.89070633  0.50770045  1  0  0.128494  0  0.971649  0  0  0.137888  0  1.029164  0  0  0.140965  0  1.02742  0  0  0.122203  0.135565  0  1.030727  0
H  H55  1  0.65103520  0.60929329  0.49229958  1  0  0.128495  0  0.971618  0  0  0.137891  0  1.029136  0  0  0.140968  0  1.027392  0  0  0.122193  0.135571  0  1.030696  0
H  H56  1  0.39341713  0.30983200  0.88734693  1  0  0.121239  0  0.962766  0  0  0.127968  0  1.024763  0  0  0.130749  0  1.023519  0  0  0.119217  0.125791  0  1.025988  0
H  H57  1  0.89341812  0.19016800  0.11265316  1  0  0.121253  0  0.962749  0  0  0.127977  0  1.024762  0  0  0.130762  0  1.023504  0  0  0.119221  0.125801  0  1.025978  0
H  H58  1  0.10658306  0.69016710  0.38734626  1  0  0.121258  0  0.962735  0  0  0.127989  0  1.024734  0  0  0.130769  0  1.02349  0  0  0.119219  0.125815  0  1.025949  0
H  H59  1  0.60658348  0.80983248  0.61265307  1  0  0.121262  0  0.962739  0  0  0.127991  0  1.024734  0  0  0.130773  0  1.023488  0  0  0.119221  0.125816  0  1.025956  0
H  H60  1  0.74731576  0.78999986  0.90184798  1  0  0.376318  0  0.918537  0  0  0.35398  0  0.985994  0  0  0.363869  0  0.975384  0  0  0.292842  0.347055  0  0.993415  0
H  H61  1  0.24731517  0.70999889  0.09815276  1  0  0.376312  0  0.918561  0  0  0.353974  0  0.986016  0  0  0.363863  0  0.975409  0  0  0.292845  0.347047  0  0.993436  0
H  H62  1  0.75268499  0.20999967  0.40184734  1  0  0.376358  0  0.918496  0  0  0.35402  0  0.985952  0  0  0.363909  0  0.975346  0  0  0.292852  0.347092  0  0.993374  0
H  H63  1  0.25268379  0.28999925  0.59815203  1  0  0.376332  0  0.91852  0  0  0.353992  0  0.98598  0  0  0.363882  0  0.975367  0  0  0.29285  0.34707  0  0.99339  0
C  C64  1  0.56029422  0.71864027  0.88348171  1  0  -0.205148  0  3.713487  0  0  -0.157935  0  3.960839  0  0  -0.166629  0  3.974211  0  0  0.042869  -0.152242  0  3.951929  0
C  C65  1  0.06029578  0.78136022  0.11651829  1  0  -0.205142  0  3.713505  0  0  -0.157924  0  3.960846  0  0  -0.166611  0  3.974207  0  0  0.042867  -0.15223  0  3.951927  0
C  C66  1  0.93970445  0.28136021  0.38348045  1  0  -0.205253  0  3.713703  0  0  -0.157969  0  3.960955  0  0  -0.166687  0  3.974374  0  0  0.042866  -0.152282  0  3.952039  0
C  C67  1  0.43970526  0.21863887  0.61651898  1  0  -0.20531  0  3.713709  0  0  -0.157997  0  3.960905  0  0  -0.166764  0  3.97441  0  0  0.042817  -0.152307  0  3.95199  0
C  C68  1  0.61244507  0.58775792  0.91581266  1  0  -0.324681  0  3.719845  0  0  -0.410151  0  3.957387  0  0  -0.41175  0  3.966751  0  0  -0.247751  -0.408634  0  3.950863  0
C  C69  1  0.11244673  0.91224262  0.08418667  1  0  -0.324627  0  3.719824  0  0  -0.41007  0  3.957341  0  0  -0.411671  0  3.966704  0  0  -0.247717  -0.408552  0  3.950821  0
C  C70  1  0.88755363  0.41224256  0.41581343  1  0  -0.324624  0  3.71987  0  0  -0.410098  0  3.957377  0  0  -0.411692  0  3.966748  0  0  -0.247739  -0.408581  0  3.950862  0
C  C71  1  0.38755324  0.08775647  0.58418599  1  0  -0.324583  0  3.719841  0  0  -0.410056  0  3.957345  0  0  -0.411642  0  3.96673  0  0  -0.247697  -0.408531  0  3.950813  0
C  C72  1  0.10074816  0.11782988  0.76298554  1  0  0.226469  0  3.650955  0  0  0.16827  0  3.913893  0  0  0.18242  0  3.9261  0  0  0.146783  0.159153  0  3.905568  0
C  C73  1  0.60074633  0.38216891  0.23701515  1  0  0.226413  0  3.650954  0  0  0.168211  0  3.9139  0  0  0.182358  0  3.926108  0  0  0.146773  0.159094  0  3.905567  0
C  C74  1  0.39925194  0.88217112  0.26298495  1  0  0.226416  0  3.650975  0  0  0.168232  0  3.913917  0  0  0.182381  0  3.926126  0  0  0.146799  0.159116  0  3.905583  0
C  C75  1  0.89925431  0.61782871  0.73701515  1  0  0.226419  0  3.651002  0  0  0.168241  0  3.913946  0  0  0.182389  0  3.926154  0  0  0.14681  0.159145  0  3.905599  0
C  C76  1  0.92872995  0.98763105  0.80067404  1  0  6.2e-05  0  3.655462  0  0  -0.037438  0  3.913687  0  0  -0.036076  0  3.933525  0  0  0.00383  -0.038358  0  3.900567  0
C  C77  1  0.42872819  0.51236976  0.19932675  1  0  8e-05  0  3.655474  0  0  -0.037422  0  3.913703  0  0  -0.036061  0  3.933544  0  0  0.003827  -0.038351  0  3.900591  0
C  C78  1  0.57127177  0.01237134  0.30067335  1  0  -3.4e-05  0  3.65539  0  0  -0.037532  0  3.913644  0  0  -0.036167  0  3.933484  0  0  0.003787  -0.038457  0  3.900531  0
C  C79  1  0.07126980  0.48762933  0.69932733  1  0  3.9e-05  0  3.655442  0  0  -0.037449  0  3.913695  0  0  -0.036087  0  3.933535  0  0  0.003818  -0.038362  0  3.900575  0
C  C80  1  0.05182716  0.93378559  0.82678975  1  0  -0.013135  0  3.719744  0  0  -0.043602  0  3.979443  0  0  -0.04344  0  4.000881  0  0  -0.011536  -0.043719  0  3.965096  0
C  C81  1  0.55182703  0.56621394  0.17321025  1  0  -0.013165  0  3.719735  0  0  -0.043623  0  3.979429  0  0  -0.043465  0  4.000871  0  0  -0.011551  -0.043747  0  3.96509  0
C  C82  1  0.44817195  0.06621732  0.32678917  1  0  -0.013133  0  3.719644  0  0  -0.043601  0  3.979338  0  0  -0.043442  0  4.000783  0  0  -0.011526  -0.043734  0  3.965012  0
C  C83  1  0.94817460  0.43378463  0.67321162  1  0  -0.013091  0  3.719811  0  0  -0.043601  0  3.979479  0  0  -0.04344  0  4.000921  0  0  -0.011506  -0.043722  0  3.965148  0
C  C84  1  0.18583946  0.37272768  0.05332543  1  0  0.220624  0  3.66228  0  0  0.159356  0  3.932123  0  0  0.173607  0  3.944703  0  0  0.143684  0.150034  0  3.923956  0
C  C85  1  0.68583786  0.12727118  0.94667529  1  0  0.220662  0  3.662133  0  0  0.159393  0  3.931986  0  0  0.173644  0  3.944565  0  0  0.143716  0.150061  0  3.923828  0
C  C86  1  0.31416153  0.62727141  0.55332609  1  0  0.220755  0  3.662116  0  0  0.159482  0  3.931965  0  0  0.173737  0  3.94454  0  0  0.143756  0.150153  0  3.923801  0
C  C87  1  0.81416086  0.87273026  0.44667467  1  0  0.220691  0  3.662069  0  0  0.159408  0  3.931914  0  0  0.17366  0  3.944494  0  0  0.143724  0.150088  0  3.92374  0
C  C88  1  0.30927405  0.20625436  0.00772304  1  0  -0.010309  0  3.653357  0  0  -0.045851  0  3.907039  0  0  -0.04469  0  3.926475  0  0  0.001142  -0.046773  0  3.894289  0
C  C89  1  0.80927471  0.29374460  0.99227704  1  0  -0.010269  0  3.653357  0  0  -0.045808  0  3.907031  0  0  -0.044648  0  3.92647  0  0  0.001157  -0.046741  0  3.894294  0
C  C90  1  0.19072691  0.79374473  0.50772297  1  0  -0.010209  0  3.653446  0  0  -0.045741  0  3.90711  0  0  -0.044582  0  3.926549  0  0  0.001169  -0.046671  0  3.894367  0
C  C91  1  0.69072714  0.70625588  0.49227707  1  0  -0.010233  0  3.653446  0  0  -0.045791  0  3.907121  0  0  -0.044632  0  3.926561  0  0  0.00116  -0.046718  0  3.894376  0
C  C92  1  0.33083173  0.30628156  0.94866688  1  0  -0.00722  0  3.722402  0  0  -0.038906  0  3.984774  0  0  -0.038158  0  4.005951  0  0  -0.006703  -0.039355  0  3.97073  0
C  C93  1  0.83083061  0.19371838  0.05133252  1  0  -0.007235  0  3.722422  0  0  -0.038916  0  3.984788  0  0  -0.038168  0  4.005966  0  0  -0.006714  -0.039355  0  3.970722  0
C  C94  1  0.16916954  0.69371754  0.44866758  1  0  -0.007299  0  3.722447  0  0  -0.038986  0  3.984821  0  0  -0.038239  0  4.006  0  0  -0.006737  -0.03943  0  3.970761  0
C  C95  1  0.66916991  0.80628210  0.55133245  1  0  -0.007282  0  3.722436  0  0  -0.038969  0  3.98482  0  0  -0.038222  0  4.005998  0  0  -0.006735  -0.039419  0  3.970776  0
N  N96  1  0.96227042  0.10288034  0.76133245  1  0  -0.267278  0  3.472871  0  0  -0.201188  0  3.707506  0  0  -0.216212  0  3.722735  0  0  -0.37619  -0.191113  0  3.697406  0
N  N97  1  0.46226908  0.39712067  0.23866767  1  0  -0.267228  0  3.472836  0  0  -0.201139  0  3.70747  0  0  -0.216162  0  3.722701  0  0  -0.376195  -0.19107  0  3.69737  0
N  N98  1  0.53773024  0.89712205  0.26133175  1  0  -0.267136  0  3.472777  0  0  -0.201087  0  3.707449  0  0  -0.216111  0  3.722679  0  0  -0.376179  -0.19102  0  3.69735  0
N  N99  1  0.03773101  0.60287747  0.73866824  1  0  -0.267198  0  3.472901  0  0  -0.201163  0  3.707587  0  0  -0.216186  0  3.722817  0  0  -0.376211  -0.191103  0  3.697481  0
N  N100  1  0.21765555  0.25049611  0.07266941  1  0  -0.269433  0  3.449268  0  0  -0.19917  0  3.676971  0  0  -0.215257  0  3.693248  0  0  -0.372919  -0.188382  0  3.665983  0
N  N101  1  0.71765509  0.24950469  0.92733063  1  0  -0.26945  0  3.449096  0  0  -0.199189  0  3.676808  0  0  -0.215275  0  3.693086  0  0  -0.372927  -0.188401  0  3.665838  0
N  N102  1  0.28234545  0.74950490  0.57266938  1  0  -0.269468  0  3.449204  0  0  -0.199211  0  3.676916  0  0  -0.215296  0  3.693191  0  0  -0.372918  -0.188424  0  3.665945  0
N  N103  1  0.78234465  0.75049579  0.42733000  1  0  -0.269486  0  3.449214  0  0  -0.199189  0  3.676896  0  0  -0.215276  0  3.693174  0  0  -0.372884  -0.188401  0  3.665913  0
N  N104  1  0.25316969  0.40964724  0.97817716  1  0  -0.430299  0  3.341969  0  0  -0.344772  0  3.64764  0  0  -0.36594  0  3.659051  0  0  -0.369869  -0.330391  0  3.639481  0
N  N105  1  0.75316845  0.09035359  0.02182221  1  0  -0.430336  0  3.341979  0  0  -0.344815  0  3.647652  0  0  -0.365977  0  3.659056  0  0  -0.369887  -0.330423  0  3.639465  0
N  N106  1  0.24683159  0.59035376  0.47817857  1  0  -0.430409  0  3.341979  0  0  -0.344887  0  3.647659  0  0  -0.366054  0  3.659066  0  0  -0.369922  -0.330502  0  3.639485  0
N  N107  1  0.74682998  0.90964785  0.52182285  1  0  -0.430343  0  3.341873  0  0  -0.344814  0  3.64754  0  0  -0.365978  0  3.658947  0  0  -0.369921  -0.330428  0  3.639363  0
N  N108  1  0.15819018  0.01573833  0.80258711  1  0  -0.430131  0  3.330591  0  0  -0.3469  0  3.634674  0  0  -0.367715  0  3.647104  0  0  -0.366492  -0.332565  0  3.625706  0
N  N109  1  0.65818842  0.48426146  0.19741360  1  0  -0.430091  0  3.330627  0  0  -0.34687  0  3.634718  0  0  -0.367681  0  3.647142  0  0  -0.366481  -0.332536  0  3.625745  0
N  N110  1  0.34180995  0.98426363  0.30258650  1  0  -0.430133  0  3.33062  0  0  -0.346896  0  3.634703  0  0  -0.367714  0  3.647136  0  0  -0.366522  -0.332565  0  3.625739  0
N  N111  1  0.84181116  0.51573615  0.69741358  1  0  -0.430117  0  3.330578  0  0  -0.346888  0  3.63468  0  0  -0.367705  0  3.647112  0  0  -0.366512  -0.332557  0  3.625714  0
O  O112  1  0.53092100  0.62436532  0.70949235  1  0  -0.848095  0  2.052246  0  0  -0.744026  0  2.349736  0  0  -0.772128  0  2.325374  0  0  -0.378515  -0.723511  0  2.366146  0
O  O113  1  0.03092173  0.87563610  0.29050832  1  0  -0.848096  0  2.05224  0  0  -0.744079  0  2.349801  0  0  -0.772165  0  2.325412  0  0  -0.378522  -0.72356  0  2.366207  0
O  O114  1  0.96907756  0.37563421  0.20949178  1  0  -0.848166  0  2.052258  0  0  -0.744089  0  2.349787  0  0  -0.772218  0  2.325437  0  0  -0.378558  -0.723584  0  2.366196  0
O  O115  1  0.46907735  0.12436395  0.79050834  1  0  -0.848066  0  2.05231  0  0  -0.744037  0  2.349855  0  0  -0.772131  0  2.325486  0  0  -0.378493  -0.723513  0  2.366255  0
O  O116  1  0.40750296  0.82727810  0.74048459  1  0  -0.862888  0  2.01756  0  0  -0.770733  0  2.31044  0  0  -0.796635  0  2.284681  0  0  -0.380228  -0.751951  0  2.327845  0
O  O117  1  0.90750403  0.67272460  0.25951619  1  0  -0.86286  0  2.017605  0  0  -0.770705  0  2.310486  0  0  -0.7966  0  2.284721  0  0  -0.380206  -0.751929  0  2.327905  0
O  O118  1  0.09249609  0.17272290  0.24048391  1  0  -0.862923  0  2.017616  0  0  -0.770766  0  2.310508  0  0  -0.796667  0  2.284743  0  0  -0.380256  -0.751992  0  2.327927  0
O  O119  1  0.59249456  0.32727588  0.75951610  1  0  -0.862866  0  2.017629  0  0  -0.770719  0  2.310526  0  0  -0.796617  0  2.284757  0  0  -0.380223  -0.751942  0  2.327955  0
O  O120  1  0.31783752  0.62226552  0.81267908  1  0  -0.867049  0  2.015605  0  0  -0.772575  0  2.311254  0  0  -0.79844  0  2.285063  0  0  -0.386087  -0.754362  0  2.329096  0
O  O121  1  0.81783771  0.87773424  0.18732032  1  0  -0.867029  0  2.015637  0  0  -0.772591  0  2.311339  0  0  -0.798454  0  2.285144  0  0  -0.386087  -0.754377  0  2.329175  0
O  O122  1  0.18216262  0.37773453  0.31267910  1  0  -0.866999  0  2.015568  0  0  -0.772569  0  2.311297  0  0  -0.798432  0  2.2851  0  0  -0.386096  -0.754359  0  2.329129  0
O  O123  1  0.68216186  0.12226624  0.68732025  1  0  -0.866978  0  2.015648  0  0  -0.772541  0  2.311366  0  0  -0.798406  0  2.285171  0  0  -0.386067  -0.754323  0  2.329205  0
O  O124  1  0.57023764  0.82820586  0.05596805  1  0  -0.84825  0  2.045715  0  0  -0.750907  0  2.34294  0  0  -0.77794  0  2.317982  0  0  -0.384153  -0.731228  0  2.359799  0
O  O125  1  0.07024068  0.67179369  0.94403263  1  0  -0.848258  0  2.045666  0  0  -0.750931  0  2.342903  0  0  -0.777967  0  2.317952  0  0  -0.384167  -0.731253  0  2.35977  0
O  O126  1  0.92976082  0.17179462  0.55596806  1  0  -0.848221  0  2.045699  0  0  -0.750901  0  2.342951  0  0  -0.777937  0  2.317997  0  0  -0.384158  -0.731233  0  2.359814  0
O  O127  1  0.42976368  0.32820445  0.44403205  1  0  -0.848249  0  2.045668  0  0  -0.750943  0  2.342903  0  0  -0.777981  0  2.317947  0  0  -0.384157  -0.731261  0  2.359763  0
O  O128  1  0.40269454  0.92399347  0.94176539  1  0  -0.860456  0  2.046692  0  0  -0.766475  0  2.346884  0  0  -0.792483  0  2.320407  0  0  -0.379033  -0.747822  0  2.364492  0
O  O129  1  0.90269744  0.57600636  0.05823403  1  0  -0.860416  0  2.046745  0  0  -0.766435  0  2.346922  0  0  -0.792436  0  2.320441  0  0  -0.379001  -0.747798  0  2.364558  0
O  O130  1  0.09730465  0.07600849  0.44176471  1  0  -0.860401  0  2.046667  0  0  -0.766426  0  2.346858  0  0  -0.79243  0  2.320378  0  0  -0.379016  -0.74779  0  2.364487  0
O  O131  1  0.59730515  0.42399125  0.55823462  1  0  -0.860409  0  2.046645  0  0  -0.766441  0  2.346843  0  0  -0.792445  0  2.320357  0  0  -0.378983  -0.747816  0  2.364525  0
O  O132  1  0.36015305  0.70321402  0.01465047  1  0  -0.863273  0  2.102544  0  0  -0.75963  0  2.381727  0  0  -0.788368  0  2.360859  0  0  -0.37512  -0.739003  0  2.395897  0
O  O133  1  0.86015475  0.79678578  0.98534894  1  0  -0.863261  0  2.102488  0  0  -0.759626  0  2.381673  0  0  -0.78839  0  2.360876  0  0  -0.375132  -0.738999  0  2.395834  0
O  O134  1  0.13984584  0.29678603  0.51465107  1  0  -0.863278  0  2.10253  0  0  -0.759635  0  2.381715  0  0  -0.788387  0  2.360881  0  0  -0.375141  -0.739016  0  2.395874  0
O  O135  1  0.63984813  0.20321279  0.48534963  1  0  -0.863294  0  2.102529  0  0  -0.759652  0  2.381713  0  0  -0.78837  0  2.360794  0  0  -0.375102  -0.739019  0  2.395882  0
O  O136  1  0.67290172  0.79860576  0.85461621  1  0  -0.535357  0  2.081806  0  0  -0.495295  0  2.298527  0  0  -0.509189  0  2.289111  0  0  -0.394622  -0.485232  0  2.304963  0
O  O137  1  0.17290218  0.70139579  0.14538450  1  0  -0.535325  0  2.08182  0  0  -0.495272  0  2.298547  0  0  -0.509169  0  2.289131  0  0  -0.394632  -0.485213  0  2.304988  0
O  O138  1  0.82709901  0.20139663  0.35461560  1  0  -0.535318  0  2.0819  0  0  -0.495282  0  2.29861  0  0  -0.509172  0  2.289206  0  0  -0.394613  -0.485219  0  2.305052  0
O  O139  1  0.32709888  0.29860235  0.64538448  1  0  -0.535296  0  2.08186  0  0  -0.495268  0  2.298576  0  0  -0.509148  0  2.289188  0  0  -0.394609  -0.485208  0  2.305011  0
