# generated using pymatgen
data_NiH20C24(NO3)2
_symmetry_space_group_name_H-M   'P 1'
_cell_length_a   9.25649657
_cell_length_b   9.36872585
_cell_length_c   11.86567473
_cell_angle_alpha   98.48295703
_cell_angle_beta   87.58487398
_cell_angle_gamma   90.25611906
_symmetry_Int_Tables_number   1
_chemical_formula_structural   NiH20C24(NO3)2
_chemical_formula_sum   'Ni2 H40 C48 N4 O12'
_cell_volume   1016.84683875
_cell_formula_units_Z   2
loop_
 _symmetry_equiv_pos_site_id
 _symmetry_equiv_pos_as_xyz
  1  'x, y, z'
loop_
 _atom_site_type_symbol
 _atom_site_label
 _atom_site_symmetry_multiplicity
 _atom_site_fract_x
 _atom_site_fract_y
 _atom_site_fract_z
 _atom_site_occupancy
 _atom_site_hle17_ddec_charge
 _atom_site_hle17_ddec_spin_density
 _atom_site_hle17_ddec_sum_bond_order
 _atom_site_hle17_magmom
 _atom_site_hse06_10hf_ddec_charge
 _atom_site_hse06_10hf_ddec_spin_density
 _atom_site_hse06_10hf_ddec_sum_bond_order
 _atom_site_hse06_10hf_magmom
 _atom_site_hse06_ddec_charge
 _atom_site_hse06_ddec_spin_density
 _atom_site_hse06_ddec_sum_bond_order
 _atom_site_hse06_magmom
 _atom_site_pbe_cm5_charge
 _atom_site_pbe_ddec_charge
 _atom_site_pbe_ddec_spin_density
 _atom_site_pbe_ddec_sum_bond_order
 _atom_site_pbe_magmom
Ni  Ni0  1  0.00000111  0.00000036  0.49999942  1  0.887773  -1.85809  1.967244  -1.53  0.889714  -1.910307  2.354399  -1.644  0.973693  -1.972686  2.285016  -1.724  0.639508  0.826838  -1.851708  2.407432  -1.573
Ni  Ni1  1  0.49999881  0.99999856  0.99999785  1  0.698346  0.070989  2.102469  0.002  0.697033  0.088155  2.519396  0.01  0.814387  0.102191  2.425274  0.011  0.606331  0.620413  0.073326  2.582904  0.008
H  H2  1  0.96753601  0.99136880  0.29214748  1  0.412616  0.000463  0.902174  0.001  0.380591  2.9e-05  0.968822  0.0  0.392925  0.000162  0.951125  0.0  0.284667  0.372043  -0.000113  0.980948  0.0
H  H3  1  0.47022691  0.00543582  0.22930700  1  0.403384  9.7e-05  0.908711  0.0  0.373233  9.5e-05  0.973665  0.0  0.383835  8.7e-05  0.958067  0.0  0.280833  0.365611  9.4e-05  0.984989  0.0
H  H4  1  0.03246800  0.00863610  0.70785372  1  0.41262  0.000463  0.902179  0.001  0.380578  2.9e-05  0.968855  0.0  0.392913  0.000162  0.951154  0.0  0.284642  0.372029  -0.000113  0.980981  0.0
H  H5  1  0.52976633  0.99456908  0.77069269  1  0.403451  9.7e-05  0.90864  0.0  0.37329  9.5e-05  0.973607  0.0  0.383893  8.7e-05  0.958008  0.0  0.28084  0.365668  9.4e-05  0.984932  0.0
H  H6  1  0.13695521  0.05244239  0.29005864  1  0.42175  -0.001044  0.878044  -0.002  0.394739  -0.001264  0.937005  -0.002  0.406314  -0.00097  0.920221  -0.002  0.291618  0.386297  -0.001523  0.949233  -0.002
H  H7  1  0.63675891  0.95645506  0.24279843  1  0.406142  7.1e-05  0.889275  0.0  0.381345  2.7e-05  0.950783  0.0  0.392206  2.6e-05  0.934931  0.0  0.287077  0.373822  3.4e-05  0.961851  0.0
H  H8  1  0.86304995  0.94755927  0.70993964  1  0.42181  -0.001044  0.87797  -0.002  0.394801  -0.001264  0.936924  -0.002  0.406374  -0.00097  0.920143  -0.002  0.291655  0.386358  -0.001523  0.949152  -0.002
H  H9  1  0.36322894  0.04353690  0.75719985  1  0.406108  7.2e-05  0.889215  0.0  0.381318  2.7e-05  0.950784  0.0  0.392175  2.6e-05  0.934939  0.0  0.287025  0.373796  3.4e-05  0.961849  0.0
H  H10  1  0.32082593  0.28700664  0.85416124  1  0.110383  1.8e-05  0.959026  0.0  0.118788  1.7e-05  1.023683  0.0  0.122154  1e-05  1.020764  0.0  0.105039  0.11638  1.7e-05  1.025843  0.0
H  H11  1  0.82451458  0.70995754  0.64376984  1  0.109499  -9e-06  0.962643  0.0  0.117686  -6e-06  1.028053  0.0  0.121357  7e-06  1.024694  0.0  0.106257  0.115038  -1.9e-05  1.030615  0.0
H  H12  1  0.67918987  0.71298962  0.14584298  1  0.110454  1.9e-05  0.959006  0.0  0.1188  1.7e-05  1.02372  0.0  0.122166  1e-05  1.020802  0.0  0.105031  0.116394  1.7e-05  1.025882  0.0
H  H13  1  0.17548108  0.29004195  0.35621992  1  0.109505  -9e-06  0.9626  0.0  0.117703  -6e-06  1.028001  0.0  0.121375  7e-06  1.024638  0.0  0.106282  0.115061  -1.9e-05  1.030569  0.0
H  H14  1  0.19492962  0.42238714  0.54275130  1  0.093865  -0.000242  0.980463  0.0  0.101494  -0.000181  1.052882  0.0  0.104782  -0.000117  1.050281  0.0  0.100185  0.099315  -0.000235  1.054501  0.0
H  H15  1  0.69741422  0.58899860  0.96914266  1  0.096565  0.00013  0.986965  0.0  0.103954  0.000105  1.059335  0.0  0.107119  8.2e-05  1.056824  0.0  0.102202  0.101984  0.00013  1.060659  0.0
H  H16  1  0.80507090  0.57760914  0.45725823  1  0.093828  -0.000241  0.980457  0.0  0.101448  -0.000181  1.052899  0.0  0.104732  -0.000117  1.050306  0.0  0.100111  0.09927  -0.000235  1.054519  0.0
H  H17  1  0.30258466  0.41100305  0.03084813  1  0.096545  0.000131  0.98689  0.0  0.103924  0.000105  1.05928  0.0  0.107091  8.2e-05  1.056764  0.0  0.102201  0.101957  0.00013  1.060609  0.0
H  H18  1  0.44305972  0.52549906  0.90818595  1  0.08031  -0.000121  0.969892  0.0  0.090277  -0.000101  1.035936  0.0  0.09292  -6.4e-05  1.03479  0.0  0.096403  0.087994  -9.6e-05  1.037819  0.0
H  H19  1  0.93367784  0.46538912  0.58416635  1  0.083222  8.7e-05  0.967077  0.0  0.093513  4.5e-05  1.03243  0.0  0.095526  4.1e-05  1.032006  0.0  0.099483  0.09187  6.2e-05  1.033311  0.0
H  H20  1  0.55695611  0.47450367  0.09181733  1  0.080249  -0.000122  0.970163  0.0  0.090316  -0.000101  1.036093  0.0  0.092958  -6.4e-05  1.034948  0.0  0.0964  0.08803  -9.6e-05  1.037983  0.0
H  H21  1  0.06631655  0.53461039  0.41583017  1  0.083276  8.6e-05  0.966929  0.0  0.093568  4.5e-05  1.03229  0.0  0.095581  4.1e-05  1.031866  0.0  0.0995  0.091921  6.2e-05  1.03317  0.0
H  H22  1  0.08694909  0.74240602  0.60463387  1  0.094337  -0.000681  0.954138  -0.002  0.101371  -0.000496  1.020449  -0.001  0.103817  -0.000335  1.017983  -0.001  0.117264  0.099353  -0.000647  1.022549  -0.001
H  H23  1  0.58105452  0.24706333  0.89397347  1  0.110777  -0.00045  0.941481  -0.001  0.117726  -0.000483  1.005446  -0.001  0.118712  -0.000449  1.0042  -0.001  0.125294  0.116855  -0.000463  1.006596  -0.001
H  H24  1  0.91304968  0.25759348  0.39536089  1  0.094374  -0.000682  0.954111  -0.002  0.101406  -0.000495  1.020434  -0.001  0.103816  -0.000335  1.018019  -0.001  0.117273  0.099394  -0.000647  1.022516  -0.001
H  H25  1  0.41895827  0.75293616  0.10602190  1  0.11079  -0.000451  0.941389  -0.001  0.117674  -0.000483  1.005454  -0.001  0.118661  -0.000449  1.004209  -0.001  0.125272  0.116805  -0.000463  1.0066  -0.001
H  H26  1  0.43694577  0.71110919  0.78055090  1  0.093295  -2.5e-05  0.970431  0.0  0.102227  -4e-06  1.035976  0.0  0.104739  -4e-06  1.034896  0.0  0.09935  0.099778  3e-06  1.038171  0.0
H  H27  1  0.91882380  0.28297784  0.71406113  1  0.100921  0.000214  0.966485  0.0  0.109205  0.000139  1.03145  0.0  0.11171  0.000123  1.030422  0.0  0.103955  0.106911  0.000155  1.033355  0.0
H  H28  1  0.56305603  0.28888816  0.21945115  1  0.093247  -2.4e-05  0.97024  0.0  0.102165  -4e-06  1.035821  0.0  0.104679  -4e-06  1.034736  0.0  0.099308  0.099716  3e-06  1.038016  0.0
H  H29  1  0.08116968  0.71701518  0.28592876  1  0.100868  0.000214  0.966559  0.0  0.109141  0.000139  1.031523  0.0  0.111643  0.000124  1.030494  0.0  0.10391  0.106833  0.000155  1.033449  0.0
H  H30  1  0.30053117  0.99450531  0.39239750  1  0.087386  -0.000522  0.962192  -0.001  0.095483  -0.000399  1.026484  -0.001  0.098003  -0.000259  1.02389  -0.001  0.118037  0.093567  -0.000561  1.028603  -0.001
H  H31  1  0.78083750  0.99549436  0.10198810  1  0.101493  -0.000453  0.958613  -0.001  0.105957  -0.000499  1.026666  -0.001  0.107731  -0.000455  1.024332  -0.001  0.123804  0.104644  -0.00051  1.028903  -0.001
H  H32  1  0.69947183  0.00549419  0.60760057  1  0.087419  -0.000522  0.962231  -0.001  0.095514  -0.000399  1.02652  -0.001  0.098032  -0.000259  1.023931  -0.001  0.118057  0.093603  -0.000561  1.02863  -0.001
H  H33  1  0.21915995  0.00451163  0.89801587  1  0.101474  -0.000453  0.958455  -0.001  0.105991  -0.0005  1.026465  -0.001  0.107764  -0.000456  1.024132  -0.001  0.12381  0.104676  -0.00051  1.028702  -0.001
H  H34  1  0.53213553  0.86513699  0.40191745  1  0.101368  -0.000307  0.979097  0.0  0.109482  -0.000329  1.041245  0.0  0.112125  -0.000231  1.040855  0.0  0.10364  0.107455  -0.000394  1.042232  0.0
H  H35  1  0.00902765  0.13791903  0.09731212  1  0.10637  -0.000263  0.952983  0.0  0.116988  -0.000321  1.00879  0.0  0.119176  -0.000235  1.00953  0.0  0.108239  0.115404  -0.000403  1.0087  0.0
H  H36  1  0.46786752  0.13486251  0.59807893  1  0.101325  -0.000307  0.979276  0.0  0.109457  -0.000329  1.04139  0.0  0.112095  -0.000231  1.040996  0.0  0.103614  0.107432  -0.000394  1.042371  0.0
H  H37  1  0.99097728  0.86209020  0.90269547  1  0.106347  -0.000262  0.952935  0.0  0.116972  -0.000321  1.008754  0.0  0.119157  -0.000235  1.009496  0.0  0.108253  0.115388  -0.000403  1.008663  0.0
H  H38  1  0.54388252  0.67426902  0.53025550  1  0.102094  -0.000191  0.943544  -0.001  0.113639  3.5e-05  1.004226  0.0  0.116075  4.1e-05  1.002974  0.0  0.107061  0.111779  4.5e-05  1.005197  0.0
H  H39  1  0.02540700  0.33740597  0.97720361  1  0.102494  -8e-05  0.941996  0.0  0.113752  -3.5e-05  1.002886  0.0  0.115894  -2.2e-05  1.001733  0.0  0.108273  0.112055  -3.7e-05  1.00394  0.0
H  H40  1  0.45611527  0.32571968  0.46973466  1  0.10213  -0.000191  0.943575  -0.001  0.113659  3.5e-05  1.004256  0.0  0.116077  4.1e-05  1.003053  0.0  0.107121  0.111801  4.6e-05  1.005226  0.0
H  H41  1  0.97458940  0.66259462  0.02279890  1  0.102546  -7.9e-05  0.941836  0.0  0.113745  -3.5e-05  1.002804  0.0  0.115887  -2.2e-05  1.001655  0.0  0.108264  0.112049  -3.7e-05  1.003855  0.0
C  C42  1  0.24986922  0.34132941  0.69535761  1  -0.067192  -0.005626  3.776834  -0.007  -0.040818  -0.003049  4.005158  -0.004  -0.049983  -0.002235  4.029332  -0.003  -0.021739  -0.034597  -0.003969  3.989282  -0.005
C  C43  1  0.75446524  0.66417761  0.81055078  1  -0.070689  0.002431  3.779241  0.002  -0.045026  0.00136  4.010429  0.001  -0.054526  0.001242  4.03405  0.001  -0.022093  -0.037936  0.00137  3.994199  0.001
C  C44  1  0.75013031  0.65867010  0.30464894  1  -0.067333  -0.005611  3.776871  -0.007  -0.040977  -0.003051  4.005181  -0.004  -0.050144  -0.002236  4.029357  -0.003  -0.02174  -0.034754  -0.003969  3.989305  -0.005
C  C45  1  0.24553565  0.33581865  0.18944526  1  -0.070781  0.002456  3.779346  0.002  -0.045128  0.001361  4.010551  0.001  -0.054639  0.001242  4.034192  0.001  -0.022096  -0.037996  0.00137  3.994269  0.001
C  C46  1  0.31562054  0.57998894  0.65287885  1  0.043715  -0.000768  3.810893  -0.001  0.061815  -0.000367  4.041135  0.0  0.059801  -0.000295  4.066806  0.0  -0.010323  0.063553  -0.000404  4.023584  -0.001
C  C47  1  0.80842583  0.42328938  0.85118711  1  0.045136  0.000224  3.791837  0.0  0.06456  -6.6e-05  4.022894  0.0  0.062269  -1.4e-05  4.049104  0.0  -0.005401  0.066498  -0.000121  4.004771  0.0
C  C48  1  0.68438246  0.42000948  0.34711909  1  0.043544  -0.00075  3.811063  -0.001  0.061725  -0.000368  4.041165  0.0  0.059713  -0.000294  4.066836  0.0  -0.010375  0.063465  -0.000404  4.023613  -0.001
C  C49  1  0.19157401  0.57672307  0.14880913  1  0.045261  0.000249  3.791382  0.0  0.06453  -6.5e-05  4.022626  0.0  0.062243  -1.5e-05  4.048826  0.0  -0.005516  0.066465  -0.000121  4.004509  0.0
C  C50  1  0.17533323  0.19966815  0.66187913  1  0.630462  0.005397  3.89784  0.006  0.583829  0.001133  4.19815  0.002  0.61986  0.001055  4.191257  0.001  0.208978  0.558735  0.001405  4.202492  0.002
C  C51  1  0.68405861  0.80903620  0.84359075  1  0.625999  -0.000371  3.883966  -0.002  0.578493  0.000545  4.186866  -0.001  0.617263  0.000424  4.180943  -0.001  0.213058  0.551374  0.000515  4.190433  -0.001
C  C52  1  0.82466631  0.80033568  0.33812708  1  0.630281  0.005397  3.897776  0.006  0.583715  0.001134  4.197996  0.002  0.619748  0.001055  4.191106  0.001  0.208925  0.558623  0.001406  4.202331  0.002
C  C53  1  0.31594221  0.19096115  0.15640795  1  0.62591  -0.000372  3.884088  -0.002  0.578431  0.000544  4.186943  -0.001  0.617201  0.000424  4.181027  -0.001  0.213095  0.551303  0.000515  4.190503  -0.001
C  C54  1  0.31929107  0.36999326  0.79892383  1  -0.070028  0.000739  3.715381  0.0  -0.096237  -7.9e-05  3.961755  0.0  -0.095143  9e-06  3.981104  0.0  -0.084694  -0.097168  -0.000258  3.949309  -0.001
C  C55  1  0.82097720  0.62980943  0.70161839  1  -0.075377  -0.000128  3.72309  0.0  -0.102383  0.000155  3.970597  0.0  -0.101533  0.000102  3.990439  0.0  -0.084036  -0.103314  0.000117  3.957548  0.0
C  C56  1  0.68070977  0.63000624  0.20107427  1  -0.070026  0.000711  3.715333  0.0  -0.096191  -7.8e-05  3.961731  0.0  -0.095096  8e-06  3.981076  0.0  -0.084672  -0.097125  -0.000258  3.94929  -0.001
C  C57  1  0.17902819  0.37018574  0.29837071  1  -0.075288  -0.000146  3.723053  0.0  -0.102319  0.000155  3.970595  0.0  -0.101463  0.000102  3.990436  0.0  -0.084059  -0.103274  0.000117  3.957544  0.0
C  C58  1  0.18843533  0.76551882  0.56122532  1  0.082478  0.012229  3.646357  0.01  0.049418  0.003041  3.899355  0.003  0.057856  0.003503  3.91542  0.003  0.047565  0.043349  0.002825  3.888327  0.003
C  C59  1  0.67830034  0.22874734  0.93842887  1  0.089626  0.002243  3.599575  0.002  0.053816  0.000134  3.851079  0.0  0.063791  0.000568  3.870361  0.001  0.05675  0.047077  -0.000236  3.837479  0.0
C  C60  1  0.81156548  0.23447853  0.43877337  1  0.082425  0.012231  3.646545  0.01  0.049348  0.003041  3.899541  0.003  0.057815  0.003503  3.915608  0.003  0.047597  0.04328  0.002825  3.888519  0.003
C  C61  1  0.32169290  0.77125325  0.06157033  1  0.089681  0.002245  3.599687  0.002  0.053852  0.000134  3.851219  0.0  0.063827  0.000567  3.870501  0.001  0.056813  0.04712  -0.000236  3.837606  0.0
C  C62  1  0.24823749  0.44682988  0.62328880  1  -0.119636  0.001036  3.730544  0.001  -0.149328  2.1e-05  3.972316  0.0  -0.148961  0.000102  3.992073  0.0  -0.085001  -0.1494  8.2e-05  3.958957  0.0
C  C63  1  0.74896219  0.56068145  0.88483060  1  -0.120218  -0.000528  3.720448  -0.001  -0.151429  -3.8e-05  3.963467  0.0  -0.150674  -6.2e-05  3.982736  0.0  -0.084687  -0.151347  3.9e-05  3.949859  0.0
C  C64  1  0.75175757  0.55317073  0.37672302  1  -0.119461  0.001009  3.730524  0.001  -0.149168  2.2e-05  3.972251  0.0  -0.148803  0.000102  3.992014  0.0  -0.084894  -0.14924  8.2e-05  3.958889  0.0
C  C65  1  0.25104301  0.43932020  0.11516599  1  -0.120229  -0.000546  3.719978  -0.001  -0.151405  -3.9e-05  3.963084  0.0  -0.150649  -6.1e-05  3.982362  0.0  -0.084641  -0.15134  3.9e-05  3.949469  0.0
C  C66  1  0.38592553  0.60687024  0.75616812  1  -0.089969  0.001362  3.712479  0.001  -0.113693  0.000436  3.958526  0.0  -0.114011  0.000342  3.979344  0.0  -0.085825  -0.113895  0.000423  3.945806  0.0
C  C67  1  0.87442210  0.39037237  0.74197817  1  -0.079707  -0.000373  3.691162  0.0  -0.104548  -5.2e-05  3.936051  0.0  -0.105103  -8e-05  3.957682  0.0  -0.079882  -0.104538  -0.000109  3.922384  0.0
C  C68  1  0.61407964  0.39313681  0.24382994  1  -0.089898  0.001332  3.712399  0.001  -0.113642  0.000437  3.958466  0.0  -0.11396  0.000342  3.979283  0.0  -0.085779  -0.113844  0.000423  3.945744  0.0
C  C69  1  0.12556576  0.60962715  0.25802015  1  -0.07976  -0.00039  3.691055  0.0  -0.104521  -5.2e-05  3.93598  0.0  -0.105073  -8e-05  3.957606  0.0  -0.079841  -0.104503  -0.000109  3.922313  0.0
C  C70  1  0.38763743  0.50226975  0.82834205  1  -0.073432  -0.000857  3.784174  -0.001  -0.084434  -0.000255  4.037549  0.0  -0.087931  -0.000216  4.059951  0.0  -0.095824  -0.082342  -0.000354  4.023798  0.0
C  C71  1  0.88120394  0.49345648  0.66837305  1  -0.064999  0.000596  3.773367  0.0  -0.077082  0.000208  4.027977  0.0  -0.081224  0.000209  4.051874  0.0  -0.091264  -0.074005  0.000187  4.012281  0.0
C  C72  1  0.61236879  0.49773191  0.17165705  1  -0.073323  -0.000837  3.784531  -0.001  -0.08441  -0.000255  4.037879  0.0  -0.087907  -0.000216  4.06028  0.0  -0.095804  -0.08232  -0.000354  4.024132  0.0
C  C73  1  0.11878947  0.50653546  0.33161924  1  -0.065007  0.000623  3.773171  0.0  -0.077078  0.000208  4.027771  0.0  -0.08122  0.000208  4.051667  0.0  -0.091229  -0.073994  0.000187  4.01207  0.0
C  C74  1  0.31547297  0.69188403  0.57670799  1  0.005567  -0.007968  3.790283  -0.01  0.026312  -0.002712  4.01918  -0.004  0.021398  -0.002598  4.043528  -0.003  -0.000434  0.029315  -0.003035  4.002877  -0.004
C  C75  1  0.80360916  0.31019273  0.92722487  1  0.010771  -0.002277  3.764976  -0.003  0.02923  -0.00118  3.99858  -0.002  0.023711  -0.001195  4.022415  -0.002  0.003093  0.032771  -0.001079  3.982221  -0.002
C  C76  1  0.68452890  0.30811440  0.42329165  1  0.005694  -0.00797  3.790211  -0.01  0.026436  -0.002713  4.019069  -0.004  0.021524  -0.002599  4.043403  -0.003  -0.000387  0.029437  -0.003035  4.002767  -0.004
C  C77  1  0.19639163  0.68981109  0.07277542  1  0.010747  -0.002278  3.765292  -0.003  0.029325  -0.00118  3.998844  -0.002  0.023806  -0.001194  4.022679  -0.002  0.003086  0.032865  -0.001079  3.982488  -0.002
C  C78  1  0.43729728  0.83600814  0.45055494  1  -0.106166  -0.008219  3.754997  -0.01  -0.115287  -0.002746  4.001825  -0.004  -0.122469  -0.002647  4.023821  -0.003  -0.082797  -0.110604  -0.00292  3.987609  -0.004
C  C79  1  0.91731452  0.16531951  0.05014489  1  -0.1034  -0.002223  3.741239  -0.003  -0.112102  -0.001215  3.989661  -0.002  -0.119557  -0.001206  4.01072  -0.002  -0.078667  -0.107052  -0.001094  3.975876  -0.001
C  C80  1  0.56270028  0.16398813  0.54944453  1  -0.106105  -0.00822  3.755019  -0.01  -0.115236  -0.002747  4.001853  -0.004  -0.122408  -0.002647  4.023836  -0.003  -0.082804  -0.110554  -0.00292  3.987638  -0.004
C  C81  1  0.08268497  0.83469404  0.94986413  1  -0.103174  -0.002224  3.741176  -0.003  -0.111869  -0.001215  3.989588  -0.002  -0.119321  -0.001205  4.01065  -0.002  -0.078593  -0.106818  -0.001094  3.9758  -0.001
C  C82  1  0.30717567  0.90686037  0.44271408  1  0.112731  0.01209  3.684898  0.01  0.082701  0.003052  3.942858  0.003  0.090716  0.003615  3.960903  0.003  0.043407  0.07704  0.003228  3.93114  0.003
C  C83  1  0.79018373  0.08638049  0.05465936  1  0.10432  0.002151  3.664147  0.002  0.070816  8.1e-05  3.923269  0.0  0.080747  0.000482  3.943185  0.001  0.044661  0.062864  -0.000204  3.912101  0.0
C  C84  1  0.69282294  0.09313698  0.55728633  1  0.112647  0.012092  3.684923  0.01  0.082605  0.003053  3.942901  0.003  0.090623  0.003615  3.960949  0.003  0.043373  0.07694  0.003229  3.931179  0.003
C  C85  1  0.20981905  0.91361794  0.94534701  1  0.104294  0.002151  3.664121  0.002  0.070718  8.2e-05  3.923242  0.0  0.080647  0.000482  3.943161  0.001  0.044617  0.062763  -0.000204  3.912081  0.0
C  C86  1  0.44278011  0.72947260  0.52036334  1  -0.053494  0.013425  3.692667  0.01  -0.078242  0.004318  3.933264  0.003  -0.074429  0.004061  3.950782  0.003  -0.069882  -0.080724  0.004952  3.921552  0.004
C  C87  1  0.92542723  0.27683262  0.98445590  1  -0.042629  0.002651  3.678272  0.002  -0.069124  0.000729  3.921752  0.001  -0.063738  0.000964  3.937863  0.001  -0.063181  -0.07258  0.000505  3.910705  0.0
C  C88  1  0.55721535  0.27052150  0.47963338  1  -0.053524  0.013429  3.692454  0.01  -0.07826  0.00432  3.933065  0.003  -0.074451  0.004062  3.950577  0.003  -0.069923  -0.080742  0.004953  3.92135  0.004
C  C89  1  0.07458310  0.72317984  0.01555197  1  -0.0429  0.002652  3.678391  0.002  -0.069383  0.00073  3.921924  0.001  -0.064001  0.000964  3.938039  0.001  -0.063239  -0.072831  0.000505  3.910857  0.0
N  N90  1  0.18453554  0.87320970  0.49780238  1  -0.285625  -0.055221  3.31438  -0.083  -0.244292  -0.035535  3.604249  -0.054  -0.270621  -0.028813  3.62508  -0.045  -0.327509  -0.225529  -0.041143  3.58915  -0.061
N  N91  1  0.67274812  0.11801694  0.99935890  1  -0.240766  -0.016155  3.37451  -0.022  -0.194294  -0.011752  3.667213  -0.015  -0.23265  -0.011251  3.692398  -0.014  -0.33147  -0.168678  -0.01107  3.649736  -0.014
N  N92  1  0.81546422  0.12678764  0.50219549  1  -0.285611  -0.055223  3.314463  -0.083  -0.244265  -0.035537  3.604335  -0.054  -0.270602  -0.028814  3.625164  -0.045  -0.327529  -0.225502  -0.041145  3.589235  -0.061
N  N93  1  0.32725263  0.88198257  0.00064258  1  -0.240803  -0.016156  3.374702  -0.022  -0.194252  -0.011752  3.66736  -0.015  -0.232606  -0.011252  3.692544  -0.014  -0.331489  -0.168638  -0.011071  3.649884  -0.014
O  O94  1  0.17206189  0.10867901  0.73239708  1  -0.64494  0.001706  1.993192  0.001  -0.584619  0.001109  2.212962  0.001  -0.61008  0.001179  2.202237  0.001  -0.322717  -0.566845  0.000971  2.219667  0.0
O  O95  1  0.69549258  0.90179885  0.77603858  1  -0.63438  -0.000887  2.025547  -0.001  -0.57571  -0.00061  2.247364  -0.001  -0.602565  -0.000483  2.237397  -0.001  -0.308712  -0.556713  -0.000758  2.253809  -0.001
O  O96  1  0.82792139  0.89132916  0.26761159  1  -0.644848  0.001708  1.993261  0.001  -0.58459  0.001109  2.213031  0.001  -0.610055  0.001179  2.20231  0.001  -0.322746  -0.566817  0.000971  2.219735  0.0
O  O97  1  0.30450922  0.09820713  0.22396446  1  -0.634321  -0.000886  2.025651  -0.001  -0.575669  -0.00061  2.247486  -0.001  -0.602521  -0.000484  2.23752  -0.001  -0.308734  -0.556672  -0.000758  2.253933  -0.001
O  O98  1  0.11712294  0.18097771  0.56506288  1  -0.596139  -0.051574  2.061459  -0.083  -0.569739  -0.033326  2.337636  -0.055  -0.607235  -0.025298  2.330641  -0.043  -0.310128  -0.54182  -0.041229  2.341425  -0.066
O  O99  1  0.61094474  0.82702652  0.93977224  1  -0.554123  0.030635  2.108169  0.029  -0.528513  0.0215  2.399252  0.021  -0.579953  0.020005  2.39415  0.019  -0.294737  -0.491471  0.021097  2.401206  0.021
O  O100  1  0.88287655  0.81902289  0.43494548  1  -0.596098  -0.051583  2.06132  -0.083  -0.569709  -0.033331  2.337442  -0.055  -0.60719  -0.025302  2.330412  -0.043  -0.310121  -0.541788  -0.041236  2.341223  -0.066
O  O101  1  0.38904968  0.17296975  0.06022307  1  -0.554032  0.030638  2.108116  0.029  -0.528481  0.0215  2.399188  0.021  -0.579922  0.020004  2.394091  0.019  -0.294776  -0.491439  0.021096  2.401143  0.021
O  O102  1  0.04431847  0.05155696  0.33462921  1  -0.833285  -0.036563  1.990234  -0.057  -0.801031  -0.027931  2.199533  -0.042  -0.829873  -0.021729  2.163946  -0.034  -0.578145  -0.778326  -0.033736  2.224218  -0.05
O  O103  1  0.54649623  0.93329669  0.20380838  1  -0.835982  -0.002314  1.885091  -0.003  -0.797844  -0.002207  2.067601  -0.003  -0.816269  -0.001926  2.031001  -0.003  -0.58991  -0.785445  -0.002345  2.093963  -0.003
O  O104  1  0.95568234  0.94844686  0.66537023  1  -0.833353  -0.036567  1.990176  -0.057  -0.801096  -0.027933  2.199496  -0.042  -0.829946  -0.021731  2.163918  -0.034  -0.57818  -0.778389  -0.033739  2.224182  -0.05
O  O105  1  0.45348928  0.06669637  0.79619681  1  -0.835998  -0.002314  1.884994  -0.003  -0.797916  -0.002206  2.06763  -0.003  -0.816326  -0.001925  2.030997  -0.003  -0.589881  -0.785519  -0.002343  2.093993  -0.003
