# generated using pymatgen
data_Zn4H34(C9O2)7
_symmetry_space_group_name_H-M   'P 1'
_cell_length_a   15.23201592
_cell_length_b   15.21007546
_cell_length_c   17.73907075
_cell_angle_alpha   81.42409675
_cell_angle_beta   80.32877071
_cell_angle_gamma   89.76018500
_symmetry_Int_Tables_number   1
_chemical_formula_structural   Zn4H34(C9O2)7
_chemical_formula_sum   'Zn4 H34 C63 O14'
_cell_volume   4005.16568239
_cell_formula_units_Z   1
loop_
 _symmetry_equiv_pos_site_id
 _symmetry_equiv_pos_as_xyz
  1  'x, y, z'
loop_
 _atom_site_type_symbol
 _atom_site_label
 _atom_site_symmetry_multiplicity
 _atom_site_fract_x
 _atom_site_fract_y
 _atom_site_fract_z
 _atom_site_occupancy
 _atom_site_pbe_bader_charge
 _atom_site_pbe_bader_spin_density
 _atom_site_pbe_cm5_charge
 _atom_site_pbe_ddec_charge
 _atom_site_pbe_ddec_spin_density
 _atom_site_pbe_ddec_sum_bond_order
 _atom_site_pbe_magmom
Zn  Zn0  1  0.43385844  0.44511557  0.43332086  1  1.311868  0  0.668845  0.959658  0  2.377041  0
Zn  Zn1  1  0.55703187  0.40670061  0.55952577  1  1.312538  0  0.669803  0.961974  0  2.392879  0
Zn  Zn2  1  0.41154122  0.57009340  0.56313869  1  1.319333  0  0.674367  0.971881  0  2.343241  0
Zn  Zn3  1  0.59353507  0.58564723  0.44606904  1  1.310563  0  0.670548  0.961329  0  2.389229  0
H  H4  1  0.32041427  0.28162397  0.93525390  1  0.120506  0  0.111481  0.115746  0  0.992428  0
H  H5  1  0.66951771  0.99361783  0.53602691  1  0.06412  0  0.105435  0.105993  0  0.990616  0
H  H6  1  0.65875316  0.83037421  0.53308470  1  0.088039  0  0.107105  0.110614  0  0.993623  0
H  H7  1  0.38666096  0.85559037  0.49899359  1  0.106353  0  0.106307  0.112679  0  1.019843  0
H  H8  1  0.34606176  0.31337136  0.06053460  1  0.079538  0  0.106233  0.10817  0  0.987209  0
H  H9  1  0.73385682  0.66648422  0.06746633  1  0.090268  0  0.102423  0.105222  0  1.016446  0
H  H10  1  0.69026135  0.64706092  0.21044015  1  0.096462  0  0.108263  0.115166  0  0.991655  0
H  H11  1  0.47366214  0.47455004  0.19894628  1  0.096236  0  0.105994  0.110354  0  1.024971  0
H  H12  1  0.62159264  0.55987162  0.86294046  1  0.093348  0  0.101279  0.107407  0  1.050509  0
H  H13  1  0.42016111  0.39887388  0.13947533  1  0.030375  0  0.106184  0.10924  0  1.005326  0
H  H14  1  0.80397990  0.53176817  0.89198717  1  0.068493  0  0.101432  0.102392  0  0.99626  0
H  H15  1  0.85820089  0.61412479  0.48101407  1  0.101071  0  0.108177  0.115039  0  0.996683  0
H  H16  1  0.93662158  0.62042908  0.81973020  1  0.048868  0  0.102445  0.098805  0  0.990702  0
H  H17  1  0.93927347  0.78540155  0.81219993  1  0.06874  0  0.099954  0.095458  0  0.997091  0
H  H18  1  0.80825547  0.86074077  0.87690791  1  0.050731  0  0.100955  0.096524  0  0.99388  0
H  H19  1  0.67634637  0.77149890  0.94943438  1  0.067562  0  0.102257  0.103072  0  0.994705  0
H  H20  1  0.41453537  0.64089128  0.86883163  1  0.067896  0  0.103708  0.103467  0  0.991483  0
H  H21  1  0.46748482  0.79320272  0.80776656  1  0.104071  0  0.104478  0.099607  0  0.986405  0
H  H22  1  0.59279040  0.81425447  0.69613383  1  0.070507  0  0.098338  0.09216  0  1.012346  0
H  H23  1  0.66309321  0.68153550  0.64534378  1  0.051457  0  0.099662  0.096236  0  0.998631  0
H  H24  1  0.61054296  0.52965982  0.70722816  1  0.05875  0  0.100588  0.106297  0  1.002974  0
H  H25  1  0.30736944  0.07196739  0.35592250  1  0.054024  0  0.10169  0.10222  0  0.99785  0
H  H26  1  0.82860049  0.32982235  0.53517360  1  0.094155  0  0.107371  0.113481  0  0.993858  0
H  H27  1  0.16119855  0.01642637  0.33528441  1  0.063354  0  0.101711  0.097703  0  0.992813  0
H  H28  1  0.06618622  0.91506025  0.44045263  1  0.04599  0  0.098928  0.093102  0  0.999844  0
H  H29  1  0.11859273  0.86934268  0.56607406  1  0.056487  0  0.101785  0.097918  0  0.992692  0
H  H30  1  0.26458403  0.92486626  0.58615381  1  0.069988  0  0.105377  0.107373  0  0.989458  0
H  H31  1  0.34480001  0.32301442  0.71812999  1  0.030962  0  0.097733  0.035509  0  0.970803  0
H  H32  1  0.00701064  0.68619195  0.47203775  1  0.036778  0  0.103495  0.103317  0  0.996404  0
H  H33  1  0.99310372  0.31543625  0.52621653  1  0.058994  0  0.105949  0.106983  0  0.988969  0
H  H34  1  0.16945831  0.67232814  0.47555237  1  0.092781  0  0.107067  0.111906  0  0.995835  0
H  H35  1  0.14455503  0.38713537  0.50257786  1  0.117154  0  0.109617  0.116198  0  0.990243  0
H  H36  1  0.60250982  0.14111114  0.52477288  1  0.089983  0  0.108658  0.116437  0  0.99465  0
H  H37  1  0.34249395  0.17387921  0.46252281  1  0.097449  0  0.107092  0.117008  0  0.999463  0
C  C38  1  0.73725202  0.48157440  0.50849838  1  1.541893  0  0.226567  0.604253  0  4.174489  0
C  C39  1  0.43503690  0.41483748  0.07670540  1  -0.011153  0  -0.090064  -0.128153  0  4.023096  0
C  C40  1  0.39321445  0.36715992  0.03311860  1  -0.086992  0  -0.088516  -0.127697  0  4.018267  0
C  C41  1  0.26287771  0.52087411  0.48972653  1  1.546104  0  0.226975  0.607779  0  4.16879  0
C  C42  1  0.40891206  0.38672666  0.95070833  1  -0.011882  0  -0.007203  0.072506  0  4.043596  0
C  C43  1  0.46869873  0.45849776  0.91282143  1  -0.038556  0  0.010696  0.00826  0  3.869902  0
C  C44  1  0.36548555  0.33675362  0.90684556  1  -0.056675  0  -0.068659  -0.126051  0  3.926193  0
C  C45  1  0.37927243  0.35573513  0.82679603  1  -0.001035  0  -0.023182  -0.013605  0  4.030607  0
C  C46  1  0.47223405  0.48592251  0.83141884  1  0.073167  0  0.004142  0.009807  0  3.910048  0
C  C47  1  0.83490167  0.47339200  0.50742435  1  -0.026062  0  -0.019031  -0.035757  0  4.00128  0
C  C48  1  0.16555793  0.52829896  0.48841330  1  -0.014317  0  -0.014075  -0.020923  0  3.990016  0
C  C49  1  0.65239725  0.61443406  0.17523053  1  -0.094858  0  -0.084931  -0.089553  0  3.99479  0
C  C50  1  0.03702305  0.62091592  0.48007782  1  0.020738  0  -0.087279  -0.129511  0  4.003224  0
C  C51  1  0.12680723  0.61356719  0.48116880  1  -0.032771  0  -0.086084  -0.103233  0  3.999181  0
C  C52  1  0.11345485  0.45200742  0.49718398  1  -0.029169  0  -0.076605  -0.142722  0  3.928711  0
C  C53  1  0.48353466  0.26412372  0.49081731  1  1.565679  0  0.226863  0.606882  0  4.165071  0
C  C54  1  0.02004451  0.45755245  0.50161655  1  -0.004722  0  -0.001573  0.083131  0  3.99989  0
C  C55  1  0.98127862  0.54385060  0.49083342  1  -0.04967  0  -0.00357  0.077063  0  4.003822  0
C  C56  1  0.88849950  0.54940611  0.49185120  1  -0.065348  0  -0.075693  -0.134192  0  3.93023  0
C  C57  1  0.87265383  0.38829460  0.52174364  1  -0.017604  0  -0.087587  -0.101045  0  4.001558  0
C  C58  1  0.96336334  0.38072784  0.51716841  1  -0.016279  0  -0.08597  -0.129969  0  3.994236  0
C  C59  1  0.47393144  0.16621183  0.49337082  1  -0.007701  0  -0.019835  -0.029203  0  4.014739  0
C  C60  1  0.53010930  0.51612268  0.16811122  1  -0.082494  0  -0.076395  -0.123993  0  3.932926  0
C  C61  1  0.52070077  0.83472269  0.51733910  1  -0.017007  0  -0.014077  -0.021977  0  3.987479  0
C  C62  1  0.60800115  0.96314443  0.52728032  1  -0.023706  0  -0.086499  -0.129656  0  3.99853  0
C  C63  1  0.60215871  0.87318950  0.52643885  1  -0.024192  0  -0.087165  -0.104627  0  4.015397  0
C  C64  1  0.44787326  0.88701275  0.50686922  1  -0.076207  0  -0.077716  -0.137581  0  3.926508  0
C  C65  1  0.51441637  0.73737975  0.51557001  1  1.552253  0  0.228104  0.605233  0  4.175594  0
C  C66  1  0.45327109  0.98052359  0.50293805  1  0.001006  0  0.002201  0.041802  0  3.939818  0
C  C67  1  0.53506012  0.01892898  0.51485961  1  -0.002676  0  -0.004044  0.080648  0  4.01499  0
C  C68  1  0.54225777  0.11178030  0.51252086  1  -0.052627  0  -0.076706  -0.137602  0  3.937605  0
C  C69  1  0.39501054  0.12914437  0.47764509  1  -0.018373  0  -0.082857  -0.148289  0  3.950042  0
C  C70  1  0.38227485  0.03799916  0.48467435  1  -0.009945  0  0.000211  0.027032  0  3.967647  0
C  C71  1  0.55220511  0.52609341  0.08684293  1  0.014672  0  -0.004101  0.031695  0  3.95453  0
C  C72  1  0.44511950  0.45327647  0.70283717  1  1.57631  0  0.229834  0.606975  0  4.211209  0
C  C73  1  0.55170425  0.54660707  0.29761429  1  1.562082  0  0.227598  0.610311  0  4.160669  0
C  C74  1  0.57823748  0.55949344  0.21193773  1  0.018174  0  -0.023978  -0.047864  0  4.009288  0
C  C75  1  0.43142761  0.43195422  0.78968233  1  -0.016855  0  -0.002724  -0.085557  0  3.916431  0
C  C76  1  0.67606211  0.62512522  0.09590899  1  -0.022522  0  -0.09053  -0.132264  0  3.998155  0
C  C77  1  0.73156623  0.64563369  0.92583260  1  -0.0946  0  -0.007194  0.076117  0  4.004322  0
C  C78  1  0.80522303  0.60397567  0.88853316  1  -0.083817  0  -0.091617  -0.135218  0  3.98308  0
C  C79  1  0.87967148  0.65393768  0.84800960  1  -0.004424  0  -0.095693  -0.084952  0  4.049247  0
C  C80  1  0.88117207  0.74635311  0.84379263  1  -0.029311  0  -0.098668  -0.09762  0  4.048403  0
C  C81  1  0.80787024  0.78853595  0.88034664  1  -0.018165  0  -0.096388  -0.086001  0  4.053547  0
C  C82  1  0.62679828  0.58284888  0.04983250  1  -0.013661  0  0.001751  0.045429  0  3.964194  0
C  C83  1  0.73378135  0.73853889  0.92131230  1  -0.061383  0  -0.092157  -0.138741  0  3.993084  0
C  C84  1  0.50873615  0.57503193  0.79226754  1  -0.032705  0  -0.009617  0.070489  0  4.007148  0
C  C85  1  0.46919621  0.65028981  0.81984255  1  -0.090992  0  -0.087487  -0.124075  0  3.967571  0
C  C86  1  0.49914441  0.73565534  0.78551262  1  -0.101408  0  -0.089352  -0.074832  0  4.024405  0
C  C87  1  0.56924404  0.74742018  0.72279625  1  -0.013487  0  -0.093482  -0.085573  0  4.019978  0
C  C88  1  0.60838988  0.67310726  0.69434141  1  -0.027887  0  -0.093785  -0.080071  0  4.028151  0
C  C89  1  0.57837347  0.58741469  0.72866866  1  -0.052571  0  -0.097261  -0.1434  0  3.978819  0
C  C90  1  0.29608682  0.00211372  0.47232065  1  0.005349  0  -0.008257  0.070105  0  4.006864  0
C  C91  1  0.26558800  0.02777281  0.40201185  1  -0.08989  0  -0.091399  -0.135065  0  3.984408  0
C  C92  1  0.18355743  0.99643368  0.39050503  1  -0.019797  0  -0.096186  -0.085636  0  4.051784  0
C  C93  1  0.50187245  0.48066985  0.04121036  1  -0.046485  0  0.000626  0.036632  0  3.955488  0
C  C94  1  0.13041178  0.93927476  0.44933552  1  -0.003028  0  -0.098299  -0.096312  0  4.047384  0
C  C95  1  0.15995096  0.91343498  0.51962163  1  -0.050588  0  -0.095931  -0.087044  0  4.046336  0
C  C96  1  0.24220226  0.94431194  0.53091243  1  -0.105593  0  -0.089059  -0.130978  0  3.978001  0
C  C97  1  0.33430124  0.30061683  0.78191989  1  0.966188  0  0.094154  0.276221  0  3.975389  0
C  C98  1  0.52259892  0.49874926  0.95925278  1  0.03496  0  -0.003176  0.034736  0  3.965203  0
C  C99  1  0.60034501  0.55156119  0.92518712  1  -0.047098  0  -0.086701  -0.172371  0  3.975434  0
C  C100  1  0.65154826  0.59237872  0.96729188  1  0.01816  0  -0.003658  0.023943  0  3.99054  0
O  O101  1  0.49815048  0.50200577  0.50111107  1  -1.238078  0  -0.572823  -1.030516  0  2.536215  0
O  O102  1  0.50346777  0.40572926  0.66872313  1  -1.173254  0  -0.312255  -0.551327  0  2.349321  0
O  O103  1  0.59671183  0.59039268  0.33484734  1  -1.17294  0  -0.316975  -0.547851  0  2.335438  0
O  O104  1  0.39917871  0.51435651  0.67243284  1  -1.167323  0  -0.305432  -0.534345  0  2.320222  0
O  O105  1  0.48637209  0.49277411  0.32678720  1  -1.173042  0  -0.3204  -0.554565  0  2.349465  0
O  O106  1  0.28761321  0.23465103  0.81050628  1  -1.075592  0  -0.279296  -0.368103  0  2.079135  0
O  O107  1  0.43600769  0.31412330  0.45018633  1  -1.167324  0  -0.313634  -0.540287  0  2.321496  0
O  O108  1  0.58342486  0.70215666  0.48168739  1  -1.175412  0  -0.316708  -0.55141  0  2.334371  0
O  O109  1  0.68714651  0.41725810  0.54694122  1  -1.172692  0  -0.316444  -0.544307  0  2.323583  0
O  O110  1  0.29638340  0.57481950  0.52631114  1  -1.172896  0  -0.314546  -0.545875  0  2.319957  0
O  O111  1  0.71136220  0.55218634  0.47083661  1  -1.179138  0  -0.316809  -0.548967  0  2.34886  0
O  O112  1  0.30425467  0.46131639  0.45501435  1  -1.170035  0  -0.315146  -0.544729  0  2.318564  0
O  O113  1  0.53899699  0.29004178  0.52996428  1  -1.174984  0  -0.318718  -0.551603  0  2.343526  0
O  O114  1  0.44095506  0.69767653  0.54713207  1  -1.171533  0  -0.31124  -0.5379  0  2.3279  0
