# generated using pymatgen
data_K2H14C12S2Br2N2Cl2O7
_symmetry_space_group_name_H-M   'P 1'
_cell_length_a   6.89259857
_cell_length_b   6.99208986
_cell_length_c   27.01443752
_cell_angle_alpha   86.38380908
_cell_angle_beta   82.65289527
_cell_angle_gamma   60.46380199
_symmetry_Int_Tables_number   1
_chemical_formula_structural   K2H14C12S2Br2N2Cl2O7
_chemical_formula_sum   'K4 H28 C24 S4 Br4 N4 Cl4 O14'
_cell_volume   1123.43231391
_cell_formula_units_Z   2
loop_
 _symmetry_equiv_pos_site_id
 _symmetry_equiv_pos_as_xyz
  1  'x, y, z'
loop_
 _atom_site_type_symbol
 _atom_site_label
 _atom_site_symmetry_multiplicity
 _atom_site_fract_x
 _atom_site_fract_y
 _atom_site_fract_z
 _atom_site_occupancy
 _atom_site_hle17_bader_spin_density
 _atom_site_hle17_ddec_charge
 _atom_site_hle17_ddec_spin_density
 _atom_site_hle17_ddec_sum_bond_order
 _atom_site_hle17_magmom
 _atom_site_hse06_10hf_bader_spin_density
 _atom_site_hse06_10hf_ddec_charge
 _atom_site_hse06_10hf_ddec_spin_density
 _atom_site_hse06_10hf_ddec_sum_bond_order
 _atom_site_hse06_10hf_magmom
 _atom_site_hse06_bader_spin_density
 _atom_site_hse06_ddec_charge
 _atom_site_hse06_ddec_spin_density
 _atom_site_hse06_ddec_sum_bond_order
 _atom_site_hse06_magmom
 _atom_site_pbe_bader_spin_density
 _atom_site_pbe_cm5_charge
 _atom_site_pbe_ddec_charge
 _atom_site_pbe_ddec_spin_density
 _atom_site_pbe_ddec_sum_bond_order
 _atom_site_pbe_magmom
K  K0  1  0.14037461  0.68899120  0.98675057  1  0  0.940932  0  0.499246  0  0  0.905461  0  0.682017  0  0  0.917643  0  0.659024  0  0  0.807414  0.895842  0  0.698921  0
K  K1  1  0.81594468  0.31090532  0.01309016  1  0  0.941048  0  0.498964  0  0  0.905299  0  0.682016  0  0  0.917569  0  0.658854  0  0  0.807054  0.895732  0  0.698842  0
K  K2  1  0.57961773  0.81120651  0.48686436  1  0  0.941075  0  0.498252  0  0  0.90539  0  0.681167  0  0  0.917745  0  0.657956  0  0  0.806469  0.895698  0  0.698142  0
K  K3  1  0.87690448  0.18921728  0.51332845  1  0  0.941211  0  0.498391  0  0  0.905368  0  0.681487  0  0  0.91771  0  0.658255  0  0  0.806373  0.8958  0  0.698309  0
H  H4  1  0.04835857  0.58793955  0.75326757  1  0  0.105507  0  0.955551  0  0  0.114087  0  1.02085  0  0  0.117283  0  1.019366  0  0  0.098015  0.111838  0  1.021945  0
H  H5  1  0.38970315  0.41214413  0.24666692  1  0  0.104942  0  0.955651  0  0  0.113885  0  1.020484  0  0  0.117009  0  1.019074  0  0  0.098085  0.111673  0  1.021556  0
H  H6  1  0.38600078  0.91218898  0.25343827  1  0  0.105549  0  0.954789  0  0  0.114119  0  1.020036  0  0  0.117371  0  1.018476  0  0  0.098143  0.111817  0  1.021194  0
H  H7  1  0.55101689  0.08753936  0.74671974  1  0  0.105482  0  0.95528  0  0  0.114326  0  1.020215  0  0  0.117525  0  1.018719  0  0  0.098311  0.112023  0  1.021385  0
H  H8  1  0.84625326  0.40354423  0.72916884  1  0  0.08659  0  0.984732  0  0  0.09385  0  1.052539  0  0  0.095777  0  1.052676  0  0  0.092175  0.09243  0  1.052473  0
H  H9  1  0.97892686  0.59678028  0.27073009  1  0  0.086547  0  0.984707  0  0  0.094077  0  1.05214  0  0  0.096013  0  1.052269  0  0  0.092193  0.092664  0  1.052068  0
H  H10  1  0.99930620  0.09640336  0.22942875  1  0  0.086885  0  0.984003  0  0  0.094228  0  1.051613  0  0  0.096153  0  1.05175  0  0  0.092137  0.092855  0  1.051513  0
H  H11  1  0.32460283  0.90326238  0.77074977  1  0  0.087298  0  0.9845  0  0  0.094526  0  1.052237  0  0  0.096536  0  1.052267  0  0  0.092318  0.09311  0  1.052172  0
H  H12  1  0.81138803  0.12170939  0.78595060  1  0  0.085146  0  0.972374  0  0  0.089189  0  1.046407  0  0  0.092592  0  1.044343  0  0  0.090758  0.086751  0  1.048019  0
H  H13  1  0.71926321  0.87855384  0.21390866  1  0  0.084942  0  0.972531  0  0  0.088967  0  1.046525  0  0  0.092378  0  1.044446  0  0  0.090851  0.086526  0  1.048139  0
H  H14  1  0.68272412  0.37876678  0.28616348  1  0  0.084872  0  0.972699  0  0  0.089034  0  1.046566  0  0  0.092432  0  1.044489  0  0  0.090699  0.0866  0  1.048203  0
H  H15  1  0.34714832  0.62110560  0.71397843  1  0  0.084668  0  0.972857  0  0  0.088866  0  1.046785  0  0  0.092262  0  1.044745  0  0  0.090736  0.086423  0  1.048404  0
H  H16  1  0.98156647  0.02937136  0.86565783  1  0  0.107216  0  0.971003  0  0  0.111028  0  1.041219  0  0  0.114987  0  1.038056  0  0  0.1044  0.108235  0  1.043401  0
H  H17  1  0.87722339  0.97078019  0.13423386  1  0  0.108089  0  0.970813  0  0  0.11166  0  1.041307  0  0  0.115611  0  1.038158  0  0  0.10446  0.108864  0  1.04348  0
H  H18  1  0.76093423  0.47165978  0.36574725  1  0  0.107692  0  0.970414  0  0  0.111281  0  1.041096  0  0  0.115236  0  1.037937  0  0  0.104403  0.108492  0  1.043278  0
H  H19  1  0.59770127  0.52844771  0.63435223  1  0  0.107759  0  0.97037  0  0  0.111357  0  1.040906  0  0  0.115299  0  1.037754  0  0  0.104545  0.108584  0  1.043076  0
H  H20  1  0.80527786  0.66432063  0.08395409  1  0  0.40735  0  0.901732  0  0  0.373365  0  0.972881  0  0  0.382662  0  0.959336  0  0  0.279719  0.366775  0  0.982492  0
H  H21  1  0.55314855  0.33507019  0.91602716  1  0  0.4078  0  0.901088  0  0  0.373874  0  0.972213  0  0  0.383167  0  0.958673  0  0  0.280162  0.36729  0  0.981815  0
H  H22  1  0.21926182  0.83490895  0.58403485  1  0  0.407306  0  0.901644  0  0  0.373477  0  0.97257  0  0  0.382765  0  0.959037  0  0  0.279856  0.366891  0  0.982174  0
H  H23  1  0.63898142  0.16506739  0.41601281  1  0  0.407331  0  0.901728  0  0  0.373614  0  0.972589  0  0  0.382897  0  0.95904  0  0  0.2799  0.367037  0  0.982197  0
H  H24  1  0.04107334  0.45910277  0.09223126  1  0  0.388868  0  0.907498  0  0  0.358421  0  0.978867  0  0  0.367552  0  0.965312  0  0  0.277088  0.351921  0  0.98853  0
H  H25  1  0.59201482  0.54030352  0.90773032  1  0  0.389438  0  0.90685  0  0  0.35883  0  0.978288  0  0  0.367963  0  0.964732  0  0  0.277634  0.352332  0  0.987947  0
H  H26  1  0.24955893  0.04025673  0.59234720  1  0  0.389191  0  0.906885  0  0  0.358601  0  0.978703  0  0  0.367741  0  0.965135  0  0  0.277456  0.352094  0  0.988376  0
H  H27  1  0.88302747  0.95974758  0.40771404  1  0  0.388427  0  0.90758  0  0  0.358019  0  0.979448  0  0  0.367138  0  0.9659  0  0  0.277002  0.351528  0  0.989095  0
H  H28  1  0.60026764  0.03222660  0.97114042  1  0  0.401784  0  0.903409  0  0  0.369781  0  0.969846  0  0  0.379659  0  0.95523  0  0  0.28487  0.362811  0  0.980148  0
H  H29  1  0.60420066  0.96740029  0.02867258  1  0  0.402389  0  0.90286  0  0  0.370335  0  0.969509  0  0  0.380223  0  0.954874  0  0  0.284915  0.36335  0  0.979832  0
H  H30  1  0.38276511  0.46775240  0.47121994  1  0  0.402219  0  0.903086  0  0  0.370021  0  0.96977  0  0  0.379907  0  0.955144  0  0  0.284774  0.363049  0  0.980077  0
H  H31  1  0.32138618  0.53246986  0.52876876  1  0  0.402365  0  0.902699  0  0  0.370335  0  0.969162  0  0  0.380214  0  0.954545  0  0  0.285045  0.363364  0  0.979464  0
C  C32  1  0.11469817  0.25049018  0.85410038  1  0  -0.178166  0  3.714675  0  0  -0.159923  0  3.965158  0  0  -0.166986  0  3.98635  0  0  -0.02965  -0.155428  0  3.951172  0
C  C33  1  0.21987787  0.74965394  0.14581500  1  0  -0.178003  0  3.715055  0  0  -0.159992  0  3.966164  0  0  -0.166943  0  3.987225  0  0  -0.029722  -0.155566  0  3.952229  0
C  C34  1  0.11528140  0.25050992  0.35416011  1  0  -0.177915  0  3.713305  0  0  -0.159429  0  3.963381  0  0  -0.166518  0  3.984659  0  0  -0.02946  -0.15492  0  3.949325  0
C  C35  1  0.71917868  0.74963386  0.64592652  1  0  -0.17789  0  3.716633  0  0  -0.159453  0  3.966787  0  0  -0.166515  0  3.987947  0  0  -0.02948  -0.15496  0  3.952835  0
C  C36  1  0.13402696  0.40814618  0.82204172  1  0  0.127412  0  3.790507  0  0  0.132395  0  4.05546  0  0  0.137452  0  4.075887  0  0  0.012659  0.128881  0  4.041735  0
C  C37  1  0.36469428  0.59196182  0.17788903  1  0  0.12819  0  3.78867  0  0  0.132806  0  4.054238  0  0  0.137819  0  4.074608  0  0  0.012556  0.12933  0  4.04055  0
C  C38  1  0.29212414  0.09258240  0.32211385  1  0  0.128081  0  3.790507  0  0  0.132836  0  4.055796  0  0  0.137897  0  4.076209  0  0  0.01269  0.129333  0  4.042052  0
C  C39  1  0.70615964  0.90737241  0.67799229  1  0  0.127586  0  3.789938  0  0  0.132288  0  4.055298  0  0  0.137356  0  4.075696  0  0  0.012203  0.128778  0  4.041565  0
C  C40  1  0.03400171  0.46421434  0.77758571  1  0  -0.143107  0  3.756989  0  0  -0.164062  0  4.009853  0  0  -0.168796  0  4.030393  0  0  -0.103619  -0.160908  0  3.995886  0
C  C41  1  0.27604251  0.53595590  0.22234964  1  0  -0.142435  0  3.756487  0  0  -0.163459  0  4.009382  0  0  -0.168134  0  4.029973  0  0  -0.103414  -0.160349  0  3.995386  0
C  C42  1  0.24798637  0.03616138  0.27772750  1  0  -0.143061  0  3.758193  0  0  -0.163852  0  4.010943  0  0  -0.168624  0  4.031464  0  0  -0.103422  -0.160662  0  3.997009  0
C  C43  1  0.56123594  0.96370282  0.72240319  1  0  -0.142652  0  3.755474  0  0  -0.163674  0  4.008509  0  0  -0.168401  0  4.029054  0  0  -0.103472  -0.160493  0  3.994565  0
C  C44  1  0.91891664  0.36113312  0.76438140  1  0  -0.033298  0  3.753744  0  0  -0.048813  0  4.00398  0  0  -0.047831  0  4.024622  0  0  -0.089372  -0.049243  0  3.989978  0
C  C45  1  0.04463251  0.63909336  0.23552630  1  0  -0.033643  0  3.755226  0  0  -0.0496  0  4.005759  0  0  -0.048635  0  4.026394  0  0  -0.088905  -0.05003  0  3.991748  0
C  C46  1  0.02973336  0.13912088  0.26457875  1  0  -0.033552  0  3.753752  0  0  -0.049167  0  4.004264  0  0  -0.048204  0  4.024935  0  0  -0.089068  -0.049633  0  3.990224  0
C  C47  1  0.43280106  0.86070982  0.73557839  1  0  -0.034778  0  3.754125  0  0  -0.050542  0  4.00488  0  0  -0.049634  0  4.025503  0  0  -0.089204  -0.050971  0  3.990869  0
C  C48  1  0.89914402  0.20481685  0.79598973  1  0  -0.078097  0  3.767915  0  0  -0.094569  0  4.025369  0  0  -0.097894  0  4.045052  0  0  -0.097863  -0.092558  0  4.01236  0
C  C49  1  0.90028993  0.79543523  0.20390237  1  0  -0.075912  0  3.767439  0  0  -0.092295  0  4.024642  0  0  -0.095606  0  4.044337  0  0  -0.097541  -0.090292  0  4.011642  0
C  C50  1  0.85373479  0.29580341  0.29616004  1  0  -0.076719  0  3.767196  0  0  -0.09325  0  4.024548  0  0  -0.096546  0  4.044227  0  0  -0.097407  -0.091265  0  4.011555  0
C  C51  1  0.44516551  0.70409561  0.70398829  1  0  -0.075829  0  3.766994  0  0  -0.092311  0  4.024167  0  0  -0.095636  0  4.043874  0  0  -0.097854  -0.090298  0  4.011168  0
C  C52  1  0.99584012  0.15088905  0.84061141  1  0  -0.052624  0  3.746433  0  0  -0.076475  0  4.000247  0  0  -0.074929  0  4.01826  0  0  -0.084377  -0.077334  0  3.988122  0
C  C53  1  0.98785466  0.84920078  0.15928246  1  0  -0.055888  0  3.750031  0  0  -0.079735  0  4.003987  0  0  -0.078247  0  4.021988  0  0  -0.085226  -0.080513  0  3.991797  0
C  C54  1  0.89674574  0.35000211  0.34071320  1  0  -0.054811  0  3.74849  0  0  -0.078646  0  4.002422  0  0  -0.077101  0  4.020411  0  0  -0.085144  -0.079498  0  3.990299  0
C  C55  1  0.58678549  0.65004695  0.65940161  1  0  -0.05495  0  3.749715  0  0  -0.07884  0  4.003752  0  0  -0.07729  0  4.021807  0  0  -0.084688  -0.079642  0  3.991447  0
S  S56  1  0.22713529  0.17426110  0.91304651  1  0  1.192703  0  5.576331  0  0  1.108272  0  6.089445  0  0  1.152257  0  6.073764  0  0  0.500263  1.077934  0  6.099227  0
S  S57  1  0.31498398  0.82571938  0.08681788  1  0  1.193316  0  5.574406  0  0  1.108831  0  6.087559  0  0  1.152786  0  6.071859  0  0  0.500587  1.078517  0  6.097358  0
S  S58  1  0.15199320  0.32611954  0.41314604  1  0  1.192545  0  5.576031  0  0  1.108126  0  6.089196  0  0  1.152112  0  6.073576  0  0  0.500645  1.0778  0  6.09894  0
S  S59  1  0.89047996  0.67400358  0.58694870  1  0  1.19254  0  5.57661  0  0  1.108081  0  6.089716  0  0  1.152051  0  6.074072  0  0  0.500074  1.077756  0  6.09948  0
Br  Br60  1  0.65682749  0.85130409  0.86425062  1  0  0.026484  0  1.364781  0  0  0.047447  0  1.641678  0  0  0.044887  0  1.632095  0  0  0.13565  0.048874  0  1.648683  0
Br  Br61  1  0.37362813  0.14874910  0.13541404  1  0  0.026509  0  1.364513  0  0  0.047263  0  1.641081  0  0  0.04471  0  1.631478  0  0  0.135552  0.048689  0  1.648085  0
Br  Br62  1  0.25830264  0.64978647  0.36461951  1  0  0.026988  0  1.3646  0  0  0.047933  0  1.641664  0  0  0.045399  0  1.632022  0  0  0.136246  0.049304  0  1.648745  0
Br  Br63  1  0.27099379  0.35067801  0.63568673  1  0  0.026646  0  1.36449  0  0  0.047769  0  1.641383  0  0  0.045201  0  1.631784  0  0  0.136024  0.049173  0  1.648433  0
N  N64  1  0.48650985  0.10483664  0.90640175  1  0  -0.617637  0  2.654916  0  0  -0.562511  0  2.94512  0  0  -0.57858  0  2.93938  0  0  -0.38513  -0.55113  0  2.948804  0
N  N65  1  0.49859182  0.89490365  0.09337640  1  0  -0.618661  0  2.654604  0  0  -0.563035  0  2.944489  0  0  -0.579141  0  2.938776  0  0  -0.385278  -0.551636  0  2.94816  0
N  N66  1  0.34212332  0.39526496  0.40648982  1  0  -0.618145  0  2.655419  0  0  -0.563093  0  2.945568  0  0  -0.579198  0  2.939857  0  0  -0.385611  -0.551677  0  2.949219  0
N  N67  1  0.14318692  0.60450521  0.59359204  1  0  -0.617573  0  2.653483  0  0  -0.562643  0  2.943809  0  0  -0.578707  0  2.938068  0  0  -0.385312  -0.551256  0  2.947487  0
Cl  Cl68  1  0.27988337  0.53814971  0.83504925  1  0  -0.072522  0  1.423174  0  0  -0.054904  0  1.670945  0  0  -0.058197  0  1.665811  0  0  0.035965  -0.052395  0  1.674579  0
Cl  Cl69  1  0.65364514  0.46173172  0.16490706  1  0  -0.072859  0  1.422495  0  0  -0.054934  0  1.670002  0  0  -0.058231  0  1.664879  0  0  0.035896  -0.052434  0  1.673639  0
Cl  Cl70  1  0.56815331  0.96260577  0.33502661  1  0  -0.072777  0  1.423223  0  0  -0.054979  0  1.670977  0  0  -0.058291  0  1.665842  0  0  0.03585  -0.052455  0  1.674592  0
Cl  Cl71  1  0.86507364  0.03742000  0.66507134  1  0  -0.072848  0  1.423125  0  0  -0.055085  0  1.670863  0  0  -0.058403  0  1.665738  0  0  0.035889  -0.052568  0  1.674487  0
O  O72  1  0.17368560  0.00346298  0.93199851  1  0  -0.688788  0  2.014415  0  0  -0.644072  0  2.272581  0  0  -0.664207  0  2.259356  0  0  -0.423742  -0.629642  0  2.281125  0
O  O73  1  0.10965787  0.99682392  0.06791652  1  0  -0.68831  0  2.011764  0  0  -0.643519  0  2.26981  0  0  -0.663648  0  2.256586  0  0  -0.422866  -0.629107  0  2.278346  0
O  O74  1  0.92796192  0.49721181  0.43217515  1  0  -0.688659  0  2.013553  0  0  -0.643817  0  2.271588  0  0  -0.663988  0  2.258399  0  0  -0.423305  -0.629386  0  2.280119  0
O  O75  1  0.85631120  0.50309212  0.56793760  1  0  -0.689381  0  2.013061  0  0  -0.644543  0  2.271247  0  0  -0.664702  0  2.258007  0  0  -0.424872  -0.63013  0  2.279802  0
O  O76  1  0.12026085  0.37333774  0.94366092  1  0  -0.69157  0  2.006183  0  0  -0.648776  0  2.266007  0  0  -0.671516  0  2.254095  0  0  -0.453737  -0.632228  0  2.273425  0
O  O77  1  0.43746876  0.62665167  0.05619991  1  0  -0.69149  0  2.007497  0  0  -0.64859  0  2.267113  0  0  -0.671276  0  2.25511  0  0  -0.453673  -0.632085  0  2.274592  0
O  O78  1  0.24399302  0.12671205  0.44364941  1  0  -0.691012  0  2.006214  0  0  -0.648205  0  2.265948  0  0  -0.670973  0  2.254061  0  0  -0.45264  -0.631659  0  2.273357  0
O  O79  1  0.81395571  0.87335918  0.55644444  1  0  -0.690811  0  2.007188  0  0  -0.647875  0  2.266695  0  0  -0.670592  0  2.254711  0  0  -0.452824  -0.631368  0  2.274167  0
O  O80  1  0.95099167  0.55476316  0.06662641  1  0  -0.873189  0  1.836424  0  0  -0.831991  0  2.004156  0  0  -0.848223  0  1.975863  0  0  -0.699477  -0.820359  0  2.024078  0
O  O81  1  0.57184442  0.44471975  0.93333646  1  0  -0.874097  0  1.835838  0  0  -0.832854  0  2.003659  0  0  -0.849101  0  1.975345  0  0  -0.701025  -0.821203  0  2.023588  0
O  O82  1  0.25527495  0.94458639  0.56673165  1  0  -0.873665  0  1.83537  0  0  -0.8324  0  2.003123  0  0  -0.848688  0  1.974849  0  0  -0.699984  -0.82073  0  2.023047  0
O  O83  1  0.76732024  0.05538340  0.43332801  1  0  -0.873099  0  1.836075  0  0  -0.832276  0  2.003571  0  0  -0.84849  0  1.975396  0  0  -0.699935  -0.820651  0  2.023431  0
O  O84  1  0.68746034  0.99984850  0.99987009  1  0  -0.882998  0  1.789331  0  0  -0.835201  0  1.948185  0  0  -0.852083  0  1.918044  0  0  -0.704469  -0.82299  0  1.969256  0
O  O85  1  0.43723823  0.50014056  0.50001154  1  0  -0.883499  0  1.788602  0  0  -0.835327  0  1.947991  0  0  -0.852242  0  1.917828  0  0  -0.703937  -0.823118  0  1.969057  0
