# generated using pymatgen
data_CdH22C22(N4Cl)2
_symmetry_space_group_name_H-M   'P 1'
_cell_length_a   8.89171133
_cell_length_b   10.90908828
_cell_length_c   13.51285133
_cell_angle_alpha   108.27664685
_cell_angle_beta   89.99992587
_cell_angle_gamma   90.00008731
_symmetry_Int_Tables_number   1
_chemical_formula_structural   CdH22C22(N4Cl)2
_chemical_formula_sum   'Cd2 H44 C44 N16 Cl4'
_cell_volume   1244.62979443
_cell_formula_units_Z   2
loop_
 _symmetry_equiv_pos_site_id
 _symmetry_equiv_pos_as_xyz
  1  'x, y, z'
loop_
 _atom_site_type_symbol
 _atom_site_label
 _atom_site_symmetry_multiplicity
 _atom_site_fract_x
 _atom_site_fract_y
 _atom_site_fract_z
 _atom_site_occupancy
 _atom_site_hle17_bader_spin_density
 _atom_site_hle17_ddec_charge
 _atom_site_hle17_ddec_spin_density
 _atom_site_hle17_ddec_sum_bond_order
 _atom_site_hle17_magmom
 _atom_site_hse06_10hf_bader_spin_density
 _atom_site_hse06_10hf_ddec_charge
 _atom_site_hse06_10hf_ddec_spin_density
 _atom_site_hse06_10hf_ddec_sum_bond_order
 _atom_site_hse06_10hf_magmom
 _atom_site_hse06_bader_spin_density
 _atom_site_hse06_ddec_charge
 _atom_site_hse06_ddec_spin_density
 _atom_site_hse06_ddec_sum_bond_order
 _atom_site_hse06_magmom
 _atom_site_pbe_bader_spin_density
 _atom_site_pbe_cm5_charge
 _atom_site_pbe_ddec_charge
 _atom_site_pbe_ddec_spin_density
 _atom_site_pbe_ddec_sum_bond_order
 _atom_site_pbe_magmom
Cd  Cd0  1  0.99999807  0.50000078  0.00000018  1  0  0.967802  0  1.961892  0  0  0.783385  0  2.415838  0  0  0.828344  0  2.378948  0  0  0.690675  0.752052  0  2.440531  0
Cd  Cd1  1  0.50000159  0.49999878  0.49999812  1  0  0.967754  0  1.961921  0  0  0.78334  0  2.415869  0  0  0.828298  0  2.37898  0  0  0.690652  0.752007  0  2.440562  0
H  H2  1  0.66365774  0.13785053  0.93229656  1  0  0.094435  0  0.985063  0  0  0.102508  0  1.05209  0  0  0.104862  0  1.051927  0  0  0.101577  0.100542  0  1.052705  0
H  H3  1  0.16366391  0.86215480  0.56770593  1  0  0.094427  0  0.985033  0  0  0.10251  0  1.052037  0  0  0.104863  0  1.051871  0  0  0.101592  0.100545  0  1.05265  0
H  H4  1  0.33633757  0.86215183  0.06770462  1  0  0.09442  0  0.985039  0  0  0.102509  0  1.052044  0  0  0.104857  0  1.051885  0  0  0.101589  0.100543  0  1.052659  0
H  H5  1  0.83633815  0.13784562  0.43229475  1  0  0.094422  0  0.985078  0  0  0.102512  0  1.052076  0  0  0.104864  0  1.051908  0  0  0.10158  0.100547  0  1.052689  0
H  H6  1  0.32305842  0.29632862  0.03160482  1  0  0.101809  0  0.925221  0  0  0.11279  0  0.993854  0  0  0.113686  0  0.993853  0  0  0.114855  0.112033  0  0.993866  0
H  H7  1  0.82306560  0.70367169  0.46839678  1  0  0.101794  0  0.925215  0  0  0.112803  0  0.993853  0  0  0.113698  0  0.993851  0  0  0.114856  0.112046  0  0.993869  0
H  H8  1  0.67694139  0.70367084  0.96839486  1  0  0.101819  0  0.925179  0  0  0.112832  0  0.993826  0  0  0.113725  0  0.993824  0  0  0.114851  0.112075  0  0.993839  0
H  H9  1  0.17693982  0.29632777  0.53160365  1  0  0.101814  0  0.925222  0  0  0.112804  0  0.993863  0  0  0.1137  0  0.993862  0  0  0.114849  0.112048  0  0.993875  0
H  H10  1  0.44786334  0.32512017  0.13783559  1  0  0.089355  0  0.935724  0  0  0.102865  0  1.002567  0  0  0.103448  0  1.002161  0  0  0.115485  0.10248  0  1.002597  0
H  H11  1  0.94786618  0.67487932  0.36216421  1  0  0.089308  0  0.935656  0  0  0.102842  0  1.002512  0  0  0.103421  0  1.002106  0  0  0.115473  0.102458  0  1.002543  0
H  H12  1  0.55213309  0.67488220  0.86216485  1  0  0.089338  0  0.935658  0  0  0.102881  0  1.002517  0  0  0.10346  0  1.00211  0  0  0.115487  0.102495  0  1.002548  0
H  H13  1  0.05213587  0.32512112  0.63783499  1  0  0.089319  0  0.935675  0  0  0.102845  0  1.00254  0  0  0.103425  0  1.002134  0  0  0.11546  0.10246  0  1.002571  0
H  H14  1  0.71841651  0.39005951  0.12106065  1  0  0.09636  0  0.950343  0  0  0.103122  0  1.019926  0  0  0.106234  0  1.015715  0  0  0.125552  0.100845  0  1.02301  0
H  H15  1  0.21842384  0.60994072  0.37893879  1  0  0.096403  0  0.950378  0  0  0.103178  0  1.019943  0  0  0.106286  0  1.015738  0  0  0.125575  0.100901  0  1.023028  0
H  H16  1  0.28157543  0.60994574  0.87894127  1  0  0.096377  0  0.950336  0  0  0.103152  0  1.01991  0  0  0.106257  0  1.015708  0  0  0.125568  0.100873  0  1.022997  0
H  H17  1  0.78158046  0.39005973  0.62105966  1  0  0.096424  0  0.950367  0  0  0.103189  0  1.019943  0  0  0.106301  0  1.015734  0  0  0.125579  0.100912  0  1.02303  0
H  H18  1  0.71220445  0.41531806  0.81603977  1  0  0.101691  0  0.978032  0  0  0.106708  0  1.047546  0  0  0.109555  0  1.04542  0  0  0.101147  0.104619  0  1.049042  0
H  H19  1  0.21220987  0.58467387  0.68395327  1  0  0.101728  0  0.978285  0  0  0.106716  0  1.047817  0  0  0.109555  0  1.045695  0  0  0.101191  0.104627  0  1.049309  0
H  H20  1  0.28779536  0.58468043  0.18396040  1  0  0.101696  0  0.977978  0  0  0.106708  0  1.047503  0  0  0.109556  0  1.045377  0  0  0.10116  0.104621  0  1.049001  0
H  H21  1  0.78779443  0.41532083  0.31603999  1  0  0.101656  0  0.977989  0  0  0.10667  0  1.04752  0  0  0.109512  0  1.045392  0  0  0.10114  0.10458  0  1.049013  0
H  H22  1  0.43928272  0.31373435  0.85401461  1  0  0.110048  0  0.983451  0  0  0.116107  0  1.052404  0  0  0.118673  0  1.051449  0  0  0.111956  0.114213  0  1.053253  0
H  H23  1  0.93929501  0.68625776  0.64598346  1  0  0.110054  0  0.983478  0  0  0.116126  0  1.052417  0  0  0.118671  0  1.051486  0  0  0.111969  0.114233  0  1.053268  0
H  H24  1  0.56071708  0.68626125  0.14598481  1  0  0.110036  0  0.983427  0  0  0.11611  0  1.052375  0  0  0.11866  0  1.051438  0  0  0.111948  0.114216  0  1.053225  0
H  H25  1  0.06071604  0.31373785  0.35401522  1  0  0.110027  0  0.983469  0  0  0.116105  0  1.052406  0  0  0.118652  0  1.051473  0  0  0.111962  0.114211  0  1.053255  0
H  H26  1  0.18833163  0.18782098  0.12299435  1  0  0.093482  0  0.958035  0  0  0.102965  0  1.030417  0  0  0.10487  0  1.028533  0  0  0.10644  0.101313  0  1.032137  0
H  H27  1  0.68833582  0.81217630  0.37700732  1  0  0.093492  0  0.957934  0  0  0.102931  0  1.030373  0  0  0.104836  0  1.028486  0  0  0.106429  0.101277  0  1.03211  0
H  H28  1  0.81166143  0.81217944  0.87700780  1  0  0.093408  0  0.958008  0  0  0.102895  0  1.030396  0  0  0.104832  0  1.028481  0  0  0.106412  0.101225  0  1.032136  0
H  H29  1  0.31166510  0.18782510  0.62299286  1  0  0.093513  0  0.957902  0  0  0.102954  0  1.030343  0  0  0.104858  0  1.028456  0  0  0.106428  0.101323  0  1.032054  0
H  H30  1  0.16684517  0.03211025  0.13723648  1  0  0.081617  0  0.920255  0  0  0.098827  0  0.978408  0  0  0.099973  0  0.977536  0  0  0.111343  0.097828  0  0.979372  0
H  H31  1  0.66684743  0.96788891  0.36276718  1  0  0.081582  0  0.920298  0  0  0.098811  0  0.978446  0  0  0.099957  0  0.977574  0  0  0.111355  0.097823  0  0.979405  0
H  H32  1  0.83315126  0.96788920  0.86276468  1  0  0.081616  0  0.920262  0  0  0.098822  0  0.978428  0  0  0.099966  0  0.977561  0  0  0.111362  0.097828  0  0.979378  0
H  H33  1  0.33315350  0.03211247  0.63723448  1  0  0.081569  0  0.920328  0  0  0.098808  0  0.978461  0  0  0.099953  0  0.977589  0  0  0.111346  0.097814  0  0.979429  0
H  H34  1  0.36064775  0.98369344  0.27991788  1  0  0.117033  0  0.946777  0  0  0.129449  0  1.002449  0  0  0.132466  0  1.000912  0  0  0.123117  0.127083  0  1.00392  0
H  H35  1  0.86064402  0.01630692  0.22008296  1  0  0.11704  0  0.946774  0  0  0.129476  0  1.002421  0  0  0.132493  0  1.000884  0  0  0.123127  0.127109  0  1.00389  0
H  H36  1  0.63935318  0.01630603  0.72008106  1  0  0.117026  0  0.946785  0  0  0.129447  0  1.002452  0  0  0.132465  0  1.000914  0  0  0.123098  0.127082  0  1.003923  0
H  H37  1  0.13935465  0.98369350  0.77991845  1  0  0.117047  0  0.946755  0  0  0.129459  0  1.002432  0  0  0.132475  0  1.000896  0  0  0.123111  0.127092  0  1.003901  0
H  H38  1  0.47834069  0.16245131  0.46091398  1  0  0.100375  0  0.952189  0  0  0.111015  0  1.010967  0  0  0.113755  0  1.009336  0  0  0.112022  0.109041  0  1.012198  0
H  H39  1  0.97833660  0.83755208  0.03908606  1  0  0.100385  0  0.952175  0  0  0.110983  0  1.01101  0  0  0.113715  0  1.009382  0  0  0.111997  0.109009  0  1.012238  0
H  H40  1  0.52166361  0.83754721  0.53908324  1  0  0.100376  0  0.952232  0  0  0.111022  0  1.011  0  0  0.113757  0  1.009375  0  0  0.112038  0.109049  0  1.012231  0
H  H41  1  0.02166208  0.16245028  0.96091511  1  0  0.100375  0  0.952158  0  0  0.111003  0  1.01095  0  0  0.113756  0  1.009299  0  0  0.112018  0.109029  0  1.012178  0
H  H42  1  0.29366683  0.36404166  0.26989942  1  0  0.099027  0  0.959638  0  0  0.102161  0  1.035491  0  0  0.10495  0  1.031774  0  0  0.125859  0.099982  0  1.038383  0
H  H43  1  0.79366873  0.63595960  0.23010171  1  0  0.099062  0  0.959614  0  0  0.102134  0  1.035552  0  0  0.10492  0  1.031838  0  0  0.125858  0.099957  0  1.038445  0
H  H44  1  0.70633073  0.63595877  0.73010125  1  0  0.099022  0  0.959647  0  0  0.102086  0  1.03559  0  0  0.104872  0  1.031876  0  0  0.125831  0.099908  0  1.038481  0
H  H45  1  0.20632995  0.36404179  0.76989922  1  0  0.099036  0  0.959636  0  0  0.102104  0  1.035566  0  0  0.10489  0  1.031852  0  0  0.125835  0.099927  0  1.038458  0
C  C46  1  0.46858031  0.13365667  0.02571508  1  0  0.043701  0  3.712134  0  0  0.055085  0  3.955267  0  0  0.054123  0  3.979456  0  0  -0.010311  0.05546  0  3.939266  0
C  C47  1  0.96858554  0.86634378  0.47428717  1  0  0.043595  0  3.712193  0  0  0.054936  0  3.955366  0  0  0.05397  0  3.979555  0  0  -0.010335  0.055316  0  3.939364  0
C  C48  1  0.53141387  0.86634472  0.97428584  1  0  0.043666  0  3.71224  0  0  0.055064  0  3.955363  0  0  0.054097  0  3.979546  0  0  -0.010273  0.055439  0  3.939362  0
C  C49  1  0.03141426  0.13365568  0.52571326  1  0  0.043739  0  3.712121  0  0  0.055093  0  3.955298  0  0  0.05413  0  3.979487  0  0  -0.010301  0.05547  0  3.939298  0
C  C50  1  0.37610194  0.05398754  0.06367212  1  0  0.029589  0  3.739574  0  0  0.044012  0  3.981719  0  0  0.042338  0  4.006702  0  0  -0.015248  0.045217  0  3.964955  0
C  C51  1  0.87610514  0.94601188  0.43632698  1  0  0.029476  0  3.739587  0  0  0.044013  0  3.981603  0  0  0.042337  0  4.006587  0  0  -0.015265  0.045225  0  3.964847  0
C  C52  1  0.62389449  0.94601192  0.93632756  1  0  0.029468  0  3.739952  0  0  0.043996  0  3.981932  0  0  0.042318  0  4.006931  0  0  -0.015322  0.045196  0  3.965165  0
C  C53  1  0.12389803  0.05399047  0.56367419  1  0  0.029441  0  3.739427  0  0  0.043931  0  3.98151  0  0  0.042255  0  4.006495  0  0  -0.015298  0.045145  0  3.964755  0
C  C54  1  0.59093824  0.07762204  0.96281000  1  0  -0.166913  0  3.755931  0  0  -0.196925  0  4.007795  0  0  -0.199847  0  4.029459  0  0  -0.09732  -0.195188  0  3.993936  0
C  C55  1  0.09093783  0.92237358  0.53718854  1  0  -0.166862  0  3.755666  0  0  -0.196846  0  4.007579  0  0  -0.199761  0  4.02923  0  0  -0.097322  -0.195106  0  3.993712  0
C  C56  1  0.40905819  0.92237741  0.03719116  1  0  -0.16696  0  3.755758  0  0  -0.19696  0  4.007683  0  0  -0.199874  0  4.029337  0  0  -0.097408  -0.195224  0  3.993822  0
C  C57  1  0.90906197  0.07762588  0.46281188  1  0  -0.166873  0  3.75582  0  0  -0.196879  0  4.007715  0  0  -0.199794  0  4.029365  0  0  -0.097316  -0.195138  0  3.993851  0
C  C58  1  0.43787654  0.27722984  0.05337580  1  0  -0.042617  0  3.649155  0  0  -0.106722  0  3.894777  0  0  -0.10264  0  3.906106  0  0  -0.04441  -0.109152  0  3.886601  0
C  C59  1  0.93788381  0.72276962  0.44662622  1  0  -0.042423  0  3.648858  0  0  -0.10663  0  3.894616  0  0  -0.102539  0  3.905935  0  0  -0.044426  -0.10906  0  3.886441  0
C  C60  1  0.56211764  0.72277346  0.94662710  1  0  -0.042551  0  3.648929  0  0  -0.106782  0  3.8947  0  0  -0.102684  0  3.906009  0  0  -0.044431  -0.10921  0  3.886521  0
C  C61  1  0.06211937  0.27722984  0.55337494  1  0  -0.042564  0  3.648867  0  0  -0.106726  0  3.894595  0  0  -0.102642  0  3.905922  0  0  -0.0444  -0.109156  0  3.886419  0
C  C62  1  0.68116278  0.38402207  0.04318031  1  0  0.151244  0  3.676051  0  0  0.090455  0  3.943419  0  0  0.103551  0  3.956343  0  0  0.134527  0.081662  0  3.934985  0
C  C63  1  0.18116885  0.61597427  0.45681742  1  0  0.151159  0  3.67607  0  0  0.090342  0  3.943449  0  0  0.103441  0  3.956377  0  0  0.134402  0.081549  0  3.935017  0
C  C64  1  0.31883365  0.61597835  0.95682110  1  0  0.151201  0  3.676128  0  0  0.090386  0  3.943502  0  0  0.103489  0  3.956431  0  0  0.134496  0.081594  0  3.935067  0
C  C65  1  0.81883433  0.38402425  0.54317980  1  0  0.151148  0  3.676067  0  0  0.090351  0  3.943435  0  0  0.103447  0  3.956362  0  0  0.13448  0.081558  0  3.935003  0
C  C66  1  0.67376631  0.39274493  0.88439484  1  0  -0.000487  0  3.759117  0  0  -0.035915  0  4.027824  0  0  -0.033804  0  4.047144  0  0  -0.011577  -0.036916  0  4.014238  0
C  C67  1  0.17378428  0.60724205  0.61560583  1  0  -0.000467  0  3.758955  0  0  -0.035865  0  4.027691  0  0  -0.033739  0  4.046994  0  0  -0.011627  -0.036865  0  4.014101  0
C  C68  1  0.32623237  0.60725454  0.11560558  1  0  -0.000443  0  3.759025  0  0  -0.035859  0  4.027739  0  0  -0.033746  0  4.047055  0  0  -0.0116  -0.036862  0  4.014155  0
C  C69  1  0.82623239  0.39274774  0.38439430  1  0  -0.000372  0  3.758941  0  0  -0.035797  0  4.027666  0  0  -0.033675  0  4.046974  0  0  -0.011565  -0.036794  0  4.014076  0
C  C70  1  0.53806909  0.34324305  0.90236552  1  0  -0.065289  0  3.677951  0  0  -0.105596  0  3.941477  0  0  -0.104031  0  3.959886  0  0  -0.006843  -0.106595  0  3.929151  0
C  C71  1  0.03806694  0.65675345  0.59763700  1  0  -0.065115  0  3.677252  0  0  -0.105453  0  3.940748  0  0  -0.103873  0  3.959166  0  0  -0.006759  -0.106456  0  3.928421  0
C  C72  1  0.46192959  0.65675545  0.09763465  1  0  -0.065237  0  3.67788  0  0  -0.105581  0  3.941412  0  0  -0.104003  0  3.95983  0  0  -0.006775  -0.106583  0  3.929082  0
C  C73  1  0.96192949  0.34324599  0.40236564  1  0  -0.065236  0  3.677914  0  0  -0.105573  0  3.941442  0  0  -0.103994  0  3.959861  0  0  -0.006813  -0.106574  0  3.929114  0
C  C74  1  0.24893067  0.10810354  0.13912698  1  0  -0.043626  0  3.640196  0  0  -0.109124  0  3.884944  0  0  -0.104349  0  3.894236  0  0  -0.048467  -0.112375  0  3.879209  0
C  C75  1  0.74893392  0.89189573  0.36087515  1  0  -0.043588  0  3.640084  0  0  -0.109119  0  3.884888  0  0  -0.104343  0  3.894177  0  0  -0.048483  -0.112399  0  3.879206  0
C  C76  1  0.75106351  0.89189784  0.86087542  1  0  -0.043573  0  3.640127  0  0  -0.109102  0  3.884871  0  0  -0.104353  0  3.894147  0  0  -0.04846  -0.112336  0  3.87913  0
C  C77  1  0.25106701  0.10810470  0.63912552  1  0  -0.043592  0  3.640068  0  0  -0.109116  0  3.884873  0  0  -0.104341  0  3.894163  0  0  -0.048473  -0.11241  0  3.879179  0
C  C78  1  0.36582250  0.08826527  0.30552859  1  0  -0.082951  0  3.696199  0  0  -0.123392  0  3.952478  0  0  -0.121698  0  3.971068  0  0  -0.008489  -0.124151  0  3.939709  0
C  C79  1  0.86581937  0.91173510  0.19447224  1  0  -0.082985  0  3.69637  0  0  -0.123451  0  3.952633  0  0  -0.121758  0  3.971222  0  0  -0.008507  -0.124207  0  3.939859  0
C  C80  1  0.63417505  0.91173323  0.69447084  1  0  -0.083021  0  3.696252  0  0  -0.12347  0  3.95254  0  0  -0.121777  0  3.971128  0  0  -0.008438  -0.124228  0  3.939771  0
C  C81  1  0.13417594  0.08826533  0.80552843  1  0  -0.08301  0  3.696289  0  0  -0.123452  0  3.952565  0  0  -0.121759  0  3.971157  0  0  -0.008451  -0.124209  0  3.93979  0
C  C82  1  0.42374723  0.17703493  0.39362588  1  0  -0.009019  0  3.784859  0  0  -0.042338  0  4.056674  0  0  -0.040794  0  4.076615  0  0  -0.010425  -0.043339  0  4.043066  0
C  C83  1  0.92374185  0.82296839  0.10637567  1  0  -0.009066  0  3.784969  0  0  -0.042356  0  4.056816  0  0  -0.040801  0  4.076751  0  0  -0.010423  -0.043355  0  4.043202  0
C  C84  1  0.57625595  0.82296455  0.60637306  1  0  -0.00902  0  3.784924  0  0  -0.04235  0  4.056752  0  0  -0.040799  0  4.076693  0  0  -0.010469  -0.043351  0  4.043141  0
C  C85  1  0.07625570  0.17703493  0.89362575  1  0  -0.009035  0  3.784936  0  0  -0.042347  0  4.056766  0  0  -0.040811  0  4.076693  0  0  -0.01047  -0.043347  0  4.043152  0
C  C86  1  0.33126467  0.28664059  0.29863521  1  0  0.149081  0  3.670473  0  0  0.092083  0  3.936767  0  0  0.104939  0  3.949544  0  0  0.135275  0.083678  0  3.928172  0
C  C87  1  0.83126677  0.71336072  0.20136515  1  0  0.148945  0  3.670555  0  0  0.091981  0  3.936855  0  0  0.104837  0  3.949632  0  0  0.135232  0.083576  0  3.92826  0
C  C88  1  0.66873626  0.71335984  0.70136546  1  0  0.148969  0  3.670549  0  0  0.092018  0  3.936858  0  0  0.104872  0  3.949637  0  0  0.135251  0.083613  0  3.928262  0
C  C89  1  0.16873416  0.28663971  0.79863478  1  0  0.14901  0  3.670527  0  0  0.092062  0  3.936825  0  0  0.104916  0  3.949605  0  0  0.135264  0.083656  0  3.928229  0
N  N90  1  0.54403282  0.33979249  0.00365638  1  0  -0.062355  0  3.610041  0  0  0.032671  0  3.823137  0  0  0.017951  0  3.849966  0  0  -0.251139  0.042835  0  3.804815  0
N  N91  1  0.04404227  0.66020564  0.49634194  1  0  -0.062483  0  3.609956  0  0  0.03262  0  3.822999  0  0  0.017899  0  3.849824  0  0  -0.251066  0.042784  0  3.804677  0
N  N92  1  0.45596361  0.66020793  0.99634430  1  0  -0.062376  0  3.610004  0  0  0.032713  0  3.823095  0  0  0.017991  0  3.849913  0  0  -0.25113  0.042877  0  3.804771  0
N  N93  1  0.95596541  0.33979385  0.50365627  1  0  -0.062426  0  3.609989  0  0  0.032637  0  3.823066  0  0  0.017918  0  3.849891  0  0  -0.251154  0.042801  0  3.804745  0
N  N94  1  0.76140855  0.41719615  0.97271373  1  0  -0.370551  0  3.293052  0  0  -0.29455  0  3.571604  0  0  -0.314491  0  3.590682  0  0  -0.364323  -0.280921  0  3.55811  0
N  N95  1  0.26141427  0.58279776  0.52728053  1  0  -0.370655  0  3.293203  0  0  -0.29468  0  3.571809  0  0  -0.31462  0  3.59088  0  0  -0.364347  -0.281051  0  3.558313  0
N  N96  1  0.23859013  0.58280526  0.02728572  1  0  -0.370601  0  3.293128  0  0  -0.294603  0  3.571689  0  0  -0.314541  0  3.590762  0  0  -0.364356  -0.280974  0  3.558197  0
N  N97  1  0.73859003  0.41719886  0.47271398  1  0  -0.370578  0  3.293004  0  0  -0.294572  0  3.571551  0  0  -0.314512  0  3.590625  0  0  -0.364323  -0.280944  0  3.558058  0
N  N98  1  0.30698581  0.15950785  0.24603401  1  0  -0.060832  0  3.552359  0  0  0.03606  0  3.766191  0  0  0.02105  0  3.792481  0  0  -0.243955  0.046122  0  3.748115  0
N  N99  1  0.80698467  0.84049246  0.25396686  1  0  -0.060693  0  3.552185  0  0  0.03623  0  3.765979  0  0  0.021222  0  3.79227  0  0  -0.243903  0.046301  0  3.747907  0
N  N100  1  0.69301062  0.84049160  0.75396715  1  0  -0.060673  0  3.552252  0  0  0.03623  0  3.766062  0  0  0.021223  0  3.792359  0  0  -0.243959  0.046288  0  3.74798  0
N  N101  1  0.19301288  0.15950798  0.74603307  1  0  -0.060724  0  3.552309  0  0  0.036193  0  3.766093  0  0  0.021184  0  3.792382  0  0  -0.243943  0.046262  0  3.748027  0
N  N102  1  0.40142431  0.29985210  0.38808529  1  0  -0.362824  0  3.239138  0  0  -0.296209  0  3.519707  0  0  -0.314899  0  3.537921  0  0  -0.353063  -0.283415  0  3.507087  0
N  N103  1  0.90142207  0.70014929  0.11191356  1  0  -0.362773  0  3.239062  0  0  -0.296144  0  3.519588  0  0  -0.314832  0  3.537796  0  0  -0.353025  -0.283349  0  3.506968  0
N  N104  1  0.59857774  0.70014931  0.61191416  1  0  -0.362756  0  3.239102  0  0  -0.296131  0  3.519641  0  0  -0.314819  0  3.537852  0  0  -0.353008  -0.283336  0  3.507021  0
N  N105  1  0.09857549  0.29985212  0.88808588  1  0  -0.362803  0  3.239096  0  0  -0.296178  0  3.519635  0  0  -0.314867  0  3.537851  0  0  -0.353008  -0.283383  0  3.507014  0
Cl  Cl106  1  0.03460211  0.41093464  0.16463328  1  0  -0.675212  0  0.67193  0  0  -0.619771  0  0.901804  0  0  -0.634014  0  0.883399  0  0  -0.398872  -0.608898  0  0.91446  0
Cl  Cl107  1  0.53460372  0.58906447  0.33536307  1  0  -0.6752  0  0.671936  0  0  -0.619739  0  0.901791  0  0  -0.633983  0  0.883388  0  0  -0.398863  -0.608866  0  0.914446  0
Cl  Cl108  1  0.96539657  0.58906678  0.83536543  1  0  -0.675205  0  0.671925  0  0  -0.619764  0  0.901795  0  0  -0.634009  0  0.883395  0  0  -0.398871  -0.608893  0  0.91445  0
Cl  Cl109  1  0.46539833  0.41093116  0.66463266  1  0  -0.675216  0  0.671927  0  0  -0.619765  0  0.901778  0  0  -0.634006  0  0.883372  0  0  -0.398874  -0.608893  0  0.914438  0
