# generated using pymatgen
data_CdH3C4(IN)2
_symmetry_space_group_name_H-M   'P 1'
_cell_length_a   7.71418333
_cell_length_b   7.95482479
_cell_length_c   14.31637393
_cell_angle_alpha   90.00036422
_cell_angle_beta   89.99987864
_cell_angle_gamma   115.95581674
_symmetry_Int_Tables_number   1
_chemical_formula_structural   CdH3C4(IN)2
_chemical_formula_sum   'Cd4 H12 C16 I8 N8'
_cell_volume   789.90884652
_cell_formula_units_Z   4
loop_
 _symmetry_equiv_pos_site_id
 _symmetry_equiv_pos_as_xyz
  1  'x, y, z'
loop_
 _atom_site_type_symbol
 _atom_site_label
 _atom_site_symmetry_multiplicity
 _atom_site_fract_x
 _atom_site_fract_y
 _atom_site_fract_z
 _atom_site_occupancy
 _atom_site_hle17_bader_spin_density
 _atom_site_hle17_ddec_charge
 _atom_site_hle17_ddec_spin_density
 _atom_site_hle17_ddec_sum_bond_order
 _atom_site_hle17_magmom
 _atom_site_hse06_10hf_bader_spin_density
 _atom_site_hse06_10hf_ddec_charge
 _atom_site_hse06_10hf_ddec_spin_density
 _atom_site_hse06_10hf_ddec_sum_bond_order
 _atom_site_hse06_10hf_magmom
 _atom_site_hse06_bader_spin_density
 _atom_site_hse06_ddec_charge
 _atom_site_hse06_ddec_spin_density
 _atom_site_hse06_ddec_sum_bond_order
 _atom_site_hse06_magmom
 _atom_site_pbe_bader_spin_density
 _atom_site_pbe_cm5_charge
 _atom_site_pbe_ddec_charge
 _atom_site_pbe_ddec_spin_density
 _atom_site_pbe_ddec_sum_bond_order
 _atom_site_pbe_magmom
Cd  Cd0  1  0.08413510  0.96759409  0.23665582  1  0  0.696562  0  2.093167  0  0  0.545215  0  2.526127  0  0  0.596409  0  2.494277  0  0  0.449979  0.509975  0  2.546904  0
Cd  Cd1  1  0.41586308  0.03240510  0.73665493  1  0  0.696597  0  2.093094  0  0  0.545243  0  2.526057  0  0  0.596435  0  2.494209  0  0  0.449983  0.51  0  2.546838  0
Cd  Cd2  1  0.91586292  0.03240388  0.76334576  1  0  0.696593  0  2.093113  0  0  0.545261  0  2.526058  0  0  0.596455  0  2.494208  0  0  0.449994  0.510018  0  2.546841  0
Cd  Cd3  1  0.58413751  0.96759566  0.26334526  1  0  0.696559  0  2.093129  0  0  0.545207  0  2.526096  0  0  0.596401  0  2.494248  0  0  0.449978  0.509966  0  2.546873  0
H  H4  1  0.84291020  0.38130819  0.17161976  1  0  0.087601  0  0.967596  0  0  0.090338  0  1.041321  0  0  0.093683  0  1.038064  0  0  0.100217  0.087771  0  1.044002  0
H  H5  1  0.65708616  0.61869302  0.67162398  1  0  0.087629  0  0.967526  0  0  0.090364  0  1.041236  0  0  0.093715  0  1.037982  0  0  0.100183  0.087797  0  1.043918  0
H  H6  1  0.15709099  0.61869677  0.82837973  1  0  0.087615  0  0.967571  0  0  0.090354  0  1.041304  0  0  0.0937  0  1.038049  0  0  0.100227  0.087787  0  1.043985  0
H  H7  1  0.34291258  0.38129795  0.32837761  1  0  0.087633  0  0.967563  0  0  0.090362  0  1.041306  0  0  0.09371  0  1.03805  0  0  0.10018  0.087793  0  1.043991  0
H  H8  1  0.83001409  0.58224802  0.04203632  1  0  0.114223  0  0.954292  0  0  0.122074  0  1.019794  0  0  0.125916  0  1.016354  0  0  0.101771  0.11912  0  1.02269  0
H  H9  1  0.66997691  0.41774880  0.54203634  1  0  0.114217  0  0.954161  0  0  0.122079  0  1.019674  0  0  0.125923  0  1.016231  0  0  0.101763  0.119126  0  1.022567  0
H  H10  1  0.16998451  0.41775695  0.95796317  1  0  0.114228  0  0.954265  0  0  0.122075  0  1.019783  0  0  0.125917  0  1.016342  0  0  0.101768  0.119123  0  1.022675  0
H  H11  1  0.33002310  0.58224497  0.45796315  1  0  0.114188  0  0.95414  0  0  0.122029  0  1.019668  0  0  0.125873  0  1.016227  0  0  0.101727  0.119074  0  1.022566  0
H  H12  1  0.20785960  0.29317926  0.07678310  1  0  0.08378  0  0.987515  0  0  0.087957  0  1.062448  0  0  0.091671  0  1.058131  0  0  0.099062  0.085047  0  1.066062  0
H  H13  1  0.29213832  0.70681795  0.57677979  1  0  0.083773  0  0.98753  0  0  0.087957  0  1.062463  0  0  0.091672  0  1.058146  0  0  0.099065  0.085058  0  1.066066  0
H  H14  1  0.79214032  0.70682291  0.92321918  1  0  0.083742  0  0.987538  0  0  0.08792  0  1.062467  0  0  0.091634  0  1.058152  0  0  0.099044  0.085021  0  1.066071  0
H  H15  1  0.70786549  0.29318420  0.42321761  1  0  0.083785  0  0.987516  0  0  0.087966  0  1.06246  0  0  0.091681  0  1.058144  0  0  0.099079  0.085065  0  1.066061  0
C  C16  1  0.70481832  0.36817019  0.14564256  1  0  0.10687  0  3.697305  0  0  0.075981  0  3.959525  0  0  0.081365  0  3.973501  0  0  0.04492  0.072105  0  3.950696  0
C  C17  1  0.79518129  0.63182649  0.64563969  1  0  0.106829  0  3.697527  0  0  0.075991  0  3.9597  0  0  0.081367  0  3.973686  0  0  0.04499  0.072112  0  3.950872  0
C  C18  1  0.29518218  0.63183897  0.85435763  1  0  0.106959  0  3.697302  0  0  0.076034  0  3.95957  0  0  0.081416  0  3.973548  0  0  0.044896  0.072156  0  3.950748  0
C  C19  1  0.20482261  0.36816727  0.35435980  1  0  0.106929  0  3.69736  0  0  0.076019  0  3.959602  0  0  0.081403  0  3.97358  0  0  0.044952  0.072141  0  3.95078  0
C  C20  1  0.69580479  0.47968246  0.07226734  1  0  -0.077073  0  3.644369  0  0  -0.10136  0  3.893481  0  0  -0.101477  0  3.907281  0  0  -0.060326  -0.101619  0  3.884869  0
C  C21  1  0.80419657  0.52032032  0.57227105  1  0  -0.077027  0  3.644527  0  0  -0.10139  0  3.89364  0  0  -0.101509  0  3.907438  0  0  -0.060343  -0.101639  0  3.885009  0
C  C22  1  0.30419511  0.52032251  0.92773495  1  0  -0.077084  0  3.644308  0  0  -0.101377  0  3.893438  0  0  -0.101492  0  3.907232  0  0  -0.060301  -0.101637  0  3.884825  0
C  C23  1  0.19579829  0.47967066  0.42772914  1  0  -0.077024  0  3.644748  0  0  -0.101289  0  3.893785  0  0  -0.101411  0  3.907589  0  0  -0.060261  -0.101522  0  3.885113  0
C  C24  1  0.51450615  0.45107075  0.04051633  1  0  0.060771  0  3.726398  0  0  0.073308  0  3.957443  0  0  0.073508  0  3.976589  0  0  0.015944  0.073031  0  3.94493  0
C  C25  1  0.98548814  0.54892185  0.54051854  1  0  0.060719  0  3.726278  0  0  0.073334  0  3.957209  0  0  0.07354  0  3.976351  0  0  0.015942  0.073052  0  3.944708  0
C  C26  1  0.48549119  0.54893142  0.95948455  1  0  0.060765  0  3.726463  0  0  0.073333  0  3.957469  0  0  0.073533  0  3.976615  0  0  0.015984  0.07306  0  3.944955  0
C  C27  1  0.01451826  0.45108030  0.45947955  1  0  0.060738  0  3.726466  0  0  0.073353  0  3.957338  0  0  0.073558  0  3.97648  0  0  0.016  0.07308  0  3.944827  0
C  C28  1  0.35644819  0.32049957  0.09164437  1  0  0.076771  0  3.634408  0  0  0.040508  0  3.887054  0  0  0.046145  0  3.900977  0  0  0.052345  0.036172  0  3.878808  0
C  C29  1  0.14355036  0.67950202  0.59164462  1  0  0.076738  0  3.634567  0  0  0.040431  0  3.887209  0  0  0.046065  0  3.901131  0  0  0.05231  0.036086  0  3.878954  0
C  C30  1  0.64355107  0.67950399  0.90835861  1  0  0.076843  0  3.634378  0  0  0.040597  0  3.887002  0  0  0.046235  0  3.900923  0  0  0.052375  0.03626  0  3.878727  0
C  C31  1  0.85645086  0.32050014  0.40835138  1  0  0.076694  0  3.634507  0  0  0.040381  0  3.887177  0  0  0.046015  0  3.9011  0  0  0.052264  0.036017  0  3.878964  0
I  I32  1  0.32532309  0.99885912  0.40364775  1  0  -0.396828  0  1.329448  0  0  -0.345796  0  1.690644  0  0  -0.370731  0  1.672542  0  0  -0.183122  -0.327573  0  1.702681  0
I  I33  1  0.17467536  0.00114214  0.90364772  1  0  -0.396828  0  1.329456  0  0  -0.345793  0  1.690637  0  0  -0.370729  0  1.672537  0  0  -0.183109  -0.327573  0  1.702691  0
I  I34  1  0.67467686  0.00114025  0.59635174  1  0  -0.396843  0  1.329418  0  0  -0.345814  0  1.690607  0  0  -0.370748  0  1.672505  0  0  -0.183131  -0.327586  0  1.70265  0
I  I35  1  0.82532649  0.99886142  0.09635317  1  0  -0.396826  0  1.329491  0  0  -0.345791  0  1.690678  0  0  -0.370724  0  1.67257  0  0  -0.183104  -0.327564  0  1.702718  0
I  I36  1  0.22712236  0.71132061  0.15718406  1  0  -0.432769  0  1.189584  0  0  -0.381668  0  1.527199  0  0  -0.406162  0  1.510543  0  0  -0.217573  -0.363595  0  1.538326  0
I  I37  1  0.27287895  0.28867620  0.65718351  1  0  -0.43279  0  1.189596  0  0  -0.38169  0  1.52721  0  0  -0.406181  0  1.510552  0  0  -0.217577  -0.363618  0  1.538335  0
I  I38  1  0.77287501  0.28867877  0.84281613  1  0  -0.432786  0  1.189589  0  0  -0.381687  0  1.527202  0  0  -0.406175  0  1.510538  0  0  -0.217568  -0.363615  0  1.538335  0
I  I39  1  0.72711974  0.71132037  0.34281877  1  0  -0.432795  0  1.189632  0  0  -0.381685  0  1.527235  0  0  -0.406176  0  1.510572  0  0  -0.217567  -0.363615  0  1.538365  0
N  N40  1  0.54873348  0.23649428  0.18590192  1  0  -0.165984  0  3.19004  0  0  -0.112521  0  3.451609  0  0  -0.124048  0  3.472505  0  0  -0.202279  -0.104618  0  3.437661  0
N  N41  1  0.95126679  0.76350710  0.68590351  1  0  -0.16598  0  3.189999  0  0  -0.112551  0  3.451573  0  0  -0.124079  0  3.47247  0  0  -0.202258  -0.10465  0  3.437627  0
N  N42  1  0.45126837  0.76350928  0.81409897  1  0  -0.16613  0  3.190204  0  0  -0.112629  0  3.451775  0  0  -0.124155  0  3.472671  0  0  -0.20229  -0.104727  0  3.437831  0
N  N43  1  0.04873063  0.23648667  0.31409598  1  0  -0.166128  0  3.189959  0  0  -0.112673  0  3.45157  0  0  -0.124203  0  3.472466  0  0  -0.20229  -0.104774  0  3.437626  0
N  N44  1  0.37488776  0.21775091  0.16089775  1  0  -0.153941  0  3.200587  0  0  -0.094063  0  3.462861  0  0  -0.106305  0  3.484057  0  0  -0.200984  -0.085845  0  3.448769  0
N  N45  1  0.12511226  0.78224594  0.66089768  1  0  -0.153843  0  3.200696  0  0  -0.093961  0  3.462992  0  0  -0.10621  0  3.484207  0  0  -0.200946  -0.085743  0  3.448897  0
N  N46  1  0.62511280  0.78225265  0.83910314  1  0  -0.153906  0  3.200518  0  0  -0.09405  0  3.462793  0  0  -0.106298  0  3.483998  0  0  -0.200983  -0.085836  0  3.448711  0
N  N47  1  0.87489094  0.21775202  0.33910111  1  0  -0.153767  0  3.200799  0  0  -0.093882  0  3.463082  0  0  -0.106132  0  3.484301  0  0  -0.200932  -0.085663  0  3.448989  0
