# generated using pymatgen
data_ZnH4C8(N2O)2
_symmetry_space_group_name_H-M   'P 1'
_cell_length_a   6.82457485
_cell_length_b   9.55751995
_cell_length_c   17.78930494
_cell_angle_alpha   101.73152095
_cell_angle_beta   96.84738426
_cell_angle_gamma   105.71728529
_symmetry_Int_Tables_number   1
_chemical_formula_structural   ZnH4C8(N2O)2
_chemical_formula_sum   'Zn4 H16 C32 N16 O8'
_cell_volume   1074.74472414
_cell_formula_units_Z   4
loop_
 _symmetry_equiv_pos_site_id
 _symmetry_equiv_pos_as_xyz
  1  'x, y, z'
loop_
 _atom_site_type_symbol
 _atom_site_label
 _atom_site_symmetry_multiplicity
 _atom_site_fract_x
 _atom_site_fract_y
 _atom_site_fract_z
 _atom_site_occupancy
 _atom_site_pbe_bader_charge
 _atom_site_pbe_bader_spin_density
 _atom_site_pbe_cm5_charge
 _atom_site_pbe_ddec_charge
 _atom_site_pbe_ddec_spin_density
 _atom_site_pbe_ddec_sum_bond_order
 _atom_site_pbe_magmom
Zn  Zn0  1  0.07808655  0.54013662  0.24882630  1  1.27872  0  0.732118  0.806918  0  2.420569  0
Zn  Zn1  1  0.17308809  0.19883535  0.25112147  1  1.277558  0  0.730693  0.806427  0  2.406004  0
Zn  Zn2  1  0.92191056  0.45986443  0.75117675  1  1.278656  0  0.732127  0.806921  0  2.420622  0
Zn  Zn3  1  0.82690951  0.80116345  0.74887967  1  1.277554  0  0.730678  0.806398  0  2.405947  0
H  H4  1  0.79494090  0.05053498  0.02265600  1  0.115759  0  0.111691  0.120429  0  0.97897  0
H  H5  1  0.23282879  0.46921082  0.02161809  1  0.134877  0  0.11107  0.120538  0  0.980257  0
H  H6  1  0.16738049  0.39977422  0.87740369  1  0.075267  0  0.100106  0.093354  0  1.058312  0
H  H7  1  0.71398643  0.98289808  0.87851234  1  0.108893  0  0.099599  0.093127  0  1.064862  0
H  H8  1  0.36349835  0.71450959  0.47394344  1  0.101162  0  0.113511  0.120934  0  0.992267  0
H  H9  1  0.11179422  0.25540726  0.48282184  1  0.126726  0  0.113985  0.121866  0  0.98327  0
H  H10  1  0.44321865  0.79411764  0.61934838  1  0.102062  0  0.106132  0.108071  0  1.01045  0
H  H11  1  0.17939648  0.33322439  0.62813869  1  0.088666  0  0.106024  0.10792  0  1.011804  0
H  H12  1  0.20505324  0.94946608  0.97734524  1  0.115809  0  0.111687  0.120445  0  0.978949  0
H  H13  1  0.76716881  0.53079135  0.97838623  1  0.134743  0  0.111086  0.120562  0  0.980262  0
H  H14  1  0.83262494  0.60022903  0.12260054  1  0.075235  0  0.10007  0.093312  0  1.058351  0
H  H15  1  0.28602042  0.01710854  0.12148838  1  0.108801  0  0.099627  0.093167  0  1.064752  0
H  H16  1  0.63650269  0.28548694  0.52605592  1  0.101111  0  0.113514  0.120918  0  0.99227  0
H  H17  1  0.88820143  0.74459042  0.51717966  1  0.126838  0  0.113976  0.121863  0  0.983261  0
H  H18  1  0.55678383  0.20588225  0.38065141  1  0.102042  0  0.106139  0.108075  0  1.010514  0
H  H19  1  0.82060455  0.66677551  0.37186273  1  0.088688  0  0.106036  0.107928  0  1.011838  0
C  C20  1  0.93532121  0.18624451  0.86738084  1  -0.027922  0  -0.003047  0.023782  0  4.010371  0
C  C21  1  0.06211254  0.30574502  0.11778499  1  1.549432  0  0.225996  0.586539  0  4.191896  0
C  C22  1  0.01853559  0.26398568  0.03093136  1  -0.050929  0  -0.011881  -0.036691  0  3.969347  0
C  C23  1  0.87428568  0.12644393  0.99018403  1  -0.059141  0  -0.071765  -0.067082  0  3.935578  0
C  C24  1  0.12104993  0.36250670  0.98956542  1  0.067207  0  -0.071432  -0.06623  0  3.935033  0
C  C25  1  0.08192743  0.32326976  0.90835701  1  -0.090038  0  -0.084373  -0.110533  0  3.960723  0
C  C26  1  0.83082419  0.08846871  0.90898639  1  0.030134  0  -0.084521  -0.10957  0  3.958849  0
C  C27  1  0.89056954  0.14575768  0.78194334  1  0.984969  0  0.236044  0.285901  0  4.010756  0
C  C28  1  0.19216973  0.43407707  0.38342363  1  1.481302  0  0.223118  0.58597  0  4.177911  0
C  C29  1  0.35843312  0.61422648  0.71856166  1  0.9651  0  0.235304  0.289427  0  4.009338  0
C  C30  1  0.32661562  0.63230790  0.50856071  1  0.04806  0  -0.07106  -0.068076  0  3.936982  0
C  C31  1  0.18164310  0.37301894  0.51346572  1  0.032884  0  -0.06757  -0.062986  0  3.934666  0
C  C32  1  0.36968409  0.67623112  0.58970843  1  -0.083366  0  -0.080683  -0.10677  0  3.943693  0
C  C33  1  0.23380928  0.48057858  0.47020389  1  0.014505  0  -0.016179  -0.04538  0  3.973322  0
C  C34  1  0.22036613  0.41694466  0.59458586  1  -0.046743  0  -0.0825  -0.110437  0  3.948844  0
C  C35  1  0.31567010  0.56869029  0.63316429  1  -0.006493  0  -0.005041  0.022111  0  4.009914  0
C  C36  1  0.06468122  0.81376214  0.13262025  1  -0.027749  0  -0.003019  0.023758  0  4.010372  0
C  C37  1  0.93788651  0.69425714  0.88221827  1  1.5494  0  0.22592  0.586406  0  4.191923  0
C  C38  1  0.98145661  0.73601427  0.96907079  1  -0.051053  0  -0.011809  -0.036542  0  3.969505  0
C  C39  1  0.12570894  0.87355826  0.00981735  1  -0.059173  0  -0.071646  -0.067021  0  3.935537  0
C  C40  1  0.87895059  0.63749545  0.01043734  1  0.067363  0  -0.071439  -0.066276  0  3.935008  0
C  C41  1  0.91807360  0.67673351  0.09164928  1  -0.089899  0  -0.084401  -0.110547  0  3.960575  0
C  C42  1  0.16917487  0.91153345  0.09101743  1  0.029934  0  -0.084635  -0.109678  0  3.958878  0
C  C43  1  0.10943832  0.85424780  0.21806124  1  0.984931  0  0.235956  0.285888  0  4.010656  0
C  C44  1  0.80783036  0.56591722  0.61657712  1  1.480921  0  0.223049  0.585998  0  4.178106  0
C  C45  1  0.64156201  0.38577346  0.28143893  1  0.965086  0  0.235353  0.289475  0  4.009121  0
C  C46  1  0.67338985  0.36768861  0.49143997  1  0.048066  0  -0.071031  -0.067955  0  3.936994  0
C  C47  1  0.81835745  0.62697985  0.48653611  1  0.032697  0  -0.067459  -0.062896  0  3.93452  0
C  C48  1  0.63031990  0.32376539  0.41029162  1  -0.083362  0  -0.080692  -0.106833  0  3.943684  0
C  C49  1  0.76619767  0.51941791  0.52979854  1  0.014595  0  -0.016259  -0.045471  0  3.97348  0
C  C50  1  0.77962904  0.58305190  0.40541549  1  -0.046675  0  -0.082575  -0.110556  0  3.948956  0
C  C51  1  0.68432993  0.43131074  0.36683664  1  -0.006488  0  -0.005039  0.022161  0  4.009905  0
N  N52  1  0.88003844  0.24021448  0.73581833  1  -0.791894  0  -0.248053  -0.275929  0  3.496018  0
N  N53  1  0.22588243  0.56997204  0.76546407  1  -0.796894  0  -0.245329  -0.288824  0  3.511999  0
N  N54  1  0.51084998  0.71851831  0.83942262  1  -0.086701  0  -0.081878  -0.045057  0  3.243461  0
N  N55  1  0.32586427  0.63715933  0.84029818  1  -0.081655  0  -0.080228  -0.040538  0  3.242084  0
N  N56  1  0.83326478  0.15753241  0.66040582  1  -0.091924  0  -0.086309  -0.057252  0  3.227611  0
N  N57  1  0.81571822  0.01890178  0.66012073  1  -0.080786  0  -0.087042  -0.059932  0  3.221555  0
N  N58  1  0.53656397  0.70694334  0.76400055  1  -0.786919  0  -0.243452  -0.284014  0  3.504453  0
N  N59  1  0.85103065  0.00744900  0.73530451  1  -0.795695  0  -0.245116  -0.271159  0  3.489651  0
N  N60  1  0.11996944  0.75978763  0.26418419  1  -0.791943  0  -0.248006  -0.275928  0  3.496089  0
N  N61  1  0.77411024  0.43002903  0.23453654  1  -0.796929  0  -0.245408  -0.288876  0  3.511989  0
N  N62  1  0.48914710  0.28148274  0.16057706  1  -0.086731  0  -0.081932  -0.045044  0  3.243477  0
N  N63  1  0.67413182  0.36284285  0.15970215  1  -0.081524  0  -0.080159  -0.040554  0  3.242059  0
N  N64  1  0.16674067  0.84246747  0.33959635  1  -0.091803  0  -0.08628  -0.057179  0  3.227603  0
N  N65  1  0.18428819  0.98110034  0.33988229  1  -0.080884  0  -0.087016  -0.059961  0  3.22152  0
N  N66  1  0.46342872  0.29305436  0.23599913  1  -0.787004  0  -0.24346  -0.284038  0  3.504243  0
N  N67  1  0.14897919  0.99255423  0.26469879  1  -0.795741  0  -0.245117  -0.271118  0  3.489776  0
O  O68  1  0.00852510  0.20085848  0.15289190  1  -1.174245  0  -0.319991  -0.549142  0  2.376431  0
O  O69  1  0.15040486  0.44435368  0.15196931  1  -1.180416  0  -0.32167  -0.548784  0  2.375903  0
O  O70  1  0.24008592  0.53683719  0.34677181  1  -1.181112  0  -0.319221  -0.547039  0  2.401569  0
O  O71  1  0.11200618  0.29427834  0.35051051  1  -1.170305  0  -0.317057  -0.541911  0  2.384971  0
O  O72  1  0.99147104  0.79914032  0.84711087  1  -1.174184  0  -0.319927  -0.549057  0  2.376393  0
O  O73  1  0.84959322  0.55564624  0.84803254  1  -1.180384  0  -0.321706  -0.548798  0  2.375802  0
O  O74  1  0.75991124  0.46315712  0.65322994  1  -1.180836  0  -0.319185  -0.547041  0  2.401695  0
O  O75  1  0.88798851  0.70571710  0.64949069  1  -1.170219  0  -0.317006  -0.541885  0  2.384904  0
