# generated using pymatgen
data_MnH8(C5N7)2
_symmetry_space_group_name_H-M   'P 1'
_cell_length_a   8.32949902
_cell_length_b   11.60901586
_cell_length_c   11.63197313
_cell_angle_alpha   90.49584688
_cell_angle_beta   92.11188007
_cell_angle_gamma   98.74969042
_symmetry_Int_Tables_number   1
_chemical_formula_structural   MnH8(C5N7)2
_chemical_formula_sum   'Mn3 H24 C30 N42'
_cell_volume   1110.81954040
_cell_formula_units_Z   3
loop_
 _symmetry_equiv_pos_site_id
 _symmetry_equiv_pos_as_xyz
  1  'x, y, z'
loop_
 _atom_site_type_symbol
 _atom_site_label
 _atom_site_symmetry_multiplicity
 _atom_site_fract_x
 _atom_site_fract_y
 _atom_site_fract_z
 _atom_site_occupancy
 _atom_site_hle17_ddec_charge
 _atom_site_hle17_ddec_spin_density
 _atom_site_hle17_ddec_sum_bond_order
 _atom_site_hle17_magmom
 _atom_site_hse06_10hf_ddec_charge
 _atom_site_hse06_10hf_ddec_spin_density
 _atom_site_hse06_10hf_ddec_sum_bond_order
 _atom_site_hse06_10hf_magmom
 _atom_site_hse06_ddec_charge
 _atom_site_hse06_ddec_spin_density
 _atom_site_hse06_ddec_sum_bond_order
 _atom_site_hse06_magmom
 _atom_site_pbe_cm5_charge
 _atom_site_pbe_ddec_charge
 _atom_site_pbe_ddec_spin_density
 _atom_site_pbe_ddec_sum_bond_order
 _atom_site_pbe_magmom
Mn  Mn0  1  0.50648691  0.52011296  0.85592543  1  0.972396  4.753753  2.109038  4.611  0.816996  4.652478  2.634778  4.45  0.870882  4.724239  2.573457  4.536  0.639021  0.773712  4.576589  2.681053  4.36
Mn  Mn1  1  0.49272281  0.47994286  0.14662786  1  0.967395  -4.747071  2.137142  -4.599  0.811288  -4.623371  2.670399  -4.426  0.866538  -4.714595  2.606258  -4.522  0.641693  0.765074  -4.519444  2.721097  -4.319
Mn  Mn2  1  0.99968059  0.49979160  0.49780043  1  0.96014  4.716846  2.200887  4.585  0.816687  4.597346  2.733934  4.408  0.868207  4.681879  2.669555  4.507  0.655338  0.775028  4.500553  2.783881  4.298
H  H3  1  0.13137956  0.46043632  0.89897532  1  0.071903  0.000246  0.941529  0.0  0.080702  0.000624  1.004876  0.0  0.08262  0.000471  1.003328  0.0  0.115582  0.079197  0.000775  1.006181  0.001
H  H4  1  0.86846978  0.53967598  0.10089224  1  0.072272  -0.000286  0.940864  0.0  0.081036  -0.000667  1.004258  0.0  0.082921  -0.000525  1.00274  0.0  0.115452  0.079597  -0.0008  1.005495  -0.001
H  H5  1  0.88750655  0.32049547  0.83078714  1  0.117409  -4.3e-05  0.978631  0.0  0.12425  -2e-06  1.043577  0.0  0.126589  -6.4e-05  1.044019  0.0  0.109078  0.122435  6.1e-05  1.043627  0.0
H  H6  1  0.11247689  0.67962816  0.16894113  1  0.117541  -2.1e-05  0.979282  0.0  0.12475  -2.2e-05  1.043562  0.0  0.127103  1.7e-05  1.043937  0.0  0.109415  0.122932  -5.5e-05  1.043632  0.0
H  H7  1  0.21669983  0.11000442  0.68516664  1  0.113392  0.000199  0.94971  0.0  0.120383  0.000265  1.015334  0.0  0.123064  0.000203  1.014955  0.0  0.106055  0.118467  0.000336  1.01579  0.0
H  H8  1  0.78361417  0.89016150  0.31478511  1  0.113524  -0.000202  0.949551  0.0  0.120516  -0.000249  1.015097  0.0  0.123169  -0.000195  1.014723  0.0  0.10603  0.118635  -0.000305  1.015542  0.0
H  H9  1  0.44570927  0.25896033  0.75910982  1  0.070087  0.000166  0.998077  0.0  0.07082  0.000597  1.077165  0.0  0.072214  0.000411  1.075675  0.0  0.108908  0.069774  0.000788  1.078212  0.0
H  H10  1  0.55447772  0.74123873  0.24097152  1  0.069743  0.000339  0.998508  0.0  0.07046  0.000119  1.077701  0.0  0.071874  0.000232  1.076162  0.0  0.108799  0.069436  9e-06  1.078759  0.0
H  H11  1  0.55541482  0.79445567  0.88139086  1  0.07643  0.000159  0.964964  0.0  0.079109  0.00062  1.039406  0.0  0.080652  0.000443  1.037604  0.0  0.113603  0.077863  0.000804  1.040894  0.001
H  H12  1  0.44459152  0.20548805  0.11873941  1  0.075952  -2.5e-05  0.965353  0.0  0.07884  -0.000326  1.039624  0.0  0.080359  -0.000187  1.037841  0.0  0.113695  0.077632  -0.00046  1.041095  0.0
H  H13  1  0.77629103  0.96502899  0.89535786  1  0.125291  0.000192  0.93868  0.0  0.134088  0.000219  0.997418  0.0  0.137103  0.000173  0.996628  0.0  0.112348  0.131979  0.000267  0.998061  0.0
H  H14  1  0.22374108  0.03495501  0.10451553  1  0.125508  -0.000191  0.939233  0.0  0.134395  -0.000224  0.997748  0.0  0.137419  -0.000175  0.996931  0.0  0.112567  0.132247  -0.000272  0.998439  0.0
H  H15  1  0.12066433  0.72492635  0.85612398  1  0.120498  2.9e-05  0.963005  0.0  0.127623  5e-05  1.02588  0.0  0.129752  -1.6e-05  1.0269  0.0  0.110285  0.125975  0.000119  1.025487  0.0
H  H16  1  0.87935548  0.27499244  0.14353355  1  0.11982  -0.000114  0.963935  0.0  0.127137  -7.3e-05  1.02656  0.0  0.129261  -5.1e-05  1.027507  0.0  0.110137  0.125507  -9.2e-05  1.026212  0.0
H  H17  1  0.88528116  0.56446718  0.84328823  1  0.074612  8.5e-05  0.949631  0.0  0.081178  0.000605  1.018559  0.0  0.083146  0.000374  1.016608  0.0  0.115974  0.07968  0.000837  1.02005  0.001
H  H18  1  0.11455489  0.43546739  0.15644487  1  0.074351  -0.000311  0.948827  0.0  0.081104  -0.00074  1.017548  0.0  0.082988  -0.000619  1.015706  0.0  0.116032  0.079687  -0.000846  1.018943  0.0
H  H19  1  0.95344837  0.23789978  0.44447423  1  0.072069  1e-06  0.981187  0.0  0.072966  0.000443  1.060156  0.0  0.075103  0.000261  1.056902  0.0  0.111111  0.071376  0.000624  1.062559  0.0
H  H20  1  0.04665965  0.76185148  0.55529216  1  0.072135  0.000191  0.980315  0.0  0.073083  0.000669  1.059139  0.0  0.075172  0.000443  1.055969  0.0  0.111193  0.071531  0.000912  1.061508  0.0
H  H21  1  0.11265194  0.07964114  0.39345394  1  0.121055  0.000217  0.95827  0.0  0.123554  0.000225  1.029248  0.0  0.127831  0.000172  1.027458  0.0  0.107519  0.120584  0.000286  1.030582  0.0
H  H22  1  0.88755667  0.92003996  0.60674926  1  0.120462  0.000215  0.958925  0.0  0.123229  0.000246  1.029649  0.0  0.127513  0.000187  1.027863  0.0  0.107413  0.120245  0.000315  1.030983  0.0
H  H23  1  0.54863216  0.31703942  0.49309865  1  0.116425  6.1e-05  0.987977  0.0  0.119431  0.000198  1.059712  0.0  0.122134  5.4e-05  1.059872  0.0  0.10825  0.117382  0.00035  1.059924  0.0
H  H24  1  0.45140261  0.68278549  0.50733292  1  0.116215  -0.00023  0.986603  0.0  0.119351  -0.000298  1.058317  0.0  0.121935  -0.000393  1.058589  0.0  0.108255  0.117378  -0.000195  1.058492  0.0
H  H25  1  0.37062477  0.46300076  0.54351665  1  0.076248  -0.000201  0.945163  0.0  0.084107  0.000114  1.011381  0.0  0.085445  -1.6e-05  1.010739  0.0  0.120256  0.08307  0.000251  1.011968  0.0
H  H26  1  0.62919957  0.53687338  0.45657837  1  0.07552  0.00025  0.94675  0.0  0.083626  0.000706  1.012809  0.0  0.084902  0.000565  1.012223  0.0  0.120265  0.082658  0.000841  1.013363  0.001
C  C27  1  0.14460388  0.38206577  0.84994819  1  0.151676  0.001612  3.718181  0.002  0.123632  0.003544  3.972981  0.003  0.13239  0.002918  3.991005  0.003  0.048754  0.117662  0.00432  3.960909  0.003
C  C28  1  0.85536955  0.61808219  0.14989612  1  0.150684  -0.002193  3.718724  -0.002  0.122477  -0.004116  3.973802  -0.003  0.131256  -0.003586  3.99191  -0.003  0.048501  0.116445  -0.004755  3.961558  -0.003
C  C29  1  0.00921919  0.30453470  0.81181968  1  -0.206226  -0.00076  3.701991  0.0  -0.227962  -0.000507  3.955236  0.0  -0.238023  -0.000903  3.975779  -0.001  -0.093861  -0.221653  -0.000183  3.942059  0.0
C  C30  1  0.99081601  0.69558274  0.18797857  1  -0.207225  0.000363  3.703431  0.001  -0.22903  -3.7e-05  3.956651  0.0  -0.23907  0.000306  3.977176  0.001  -0.094172  -0.222733  -0.000242  3.943502  0.0
C  C31  1  0.03379547  0.20530899  0.74955041  1  0.252517  0.001403  3.828502  0.001  0.248345  0.002647  4.093734  0.002  0.261298  0.002241  4.110316  0.002  0.115385  0.23964  0.003352  4.082522  0.003
C  C32  1  0.96638866  0.79479608  0.25031158  1  0.253189  -0.001881  3.828503  -0.002  0.249057  -0.003087  4.093677  -0.002  0.262007  -0.002781  4.110231  -0.002  0.11573  0.240367  -0.003677  4.082487  -0.003
C  C33  1  0.19333721  0.18664923  0.73243119  1  -0.200525  -0.000637  3.72539  0.0  -0.223625  -0.000339  3.982455  0.0  -0.232793  -0.000786  4.003648  0.0  -0.093655  -0.217739  0.000108  3.968411  0.0
C  C34  1  0.80688991  0.81353250  0.26747129  1  -0.201196  0.000743  3.724317  0.001  -0.224437  0.000502  3.981583  0.0  -0.233529  0.000905  4.002732  0.001  -0.093877  -0.218634  0.000184  3.9676  0.0
C  C35  1  0.32053070  0.26966893  0.77323204  1  0.135982  0.002263  3.71828  0.002  0.108185  0.004171  3.971245  0.004  0.115716  0.003538  3.991178  0.003  0.041235  0.103154  0.004928  3.957706  0.004
C  C36  1  0.67963165  0.73053980  0.22676453  1  0.136547  -0.002039  3.717614  -0.002  0.108711  -0.00358  3.970414  -0.003  0.116231  -0.003073  3.990377  -0.003  0.041418  0.103636  -0.004191  3.956838  -0.004
C  C37  1  0.68211642  0.78201187  0.87758848  1  0.146874  0.002578  3.697514  0.003  0.117599  0.004599  3.951334  0.004  0.125472  0.003999  3.970522  0.003  0.048251  0.112346  0.00532  3.938171  0.004
C  C38  1  0.31788680  0.21793448  0.12251853  1  0.147035  -0.002394  3.697552  -0.002  0.117418  -0.004248  3.951482  -0.004  0.125322  -0.003761  3.970738  -0.003  0.048172  0.11207  -0.004754  3.93822  -0.004
C  C39  1  0.80495330  0.87723123  0.88525686  1  -0.196566  -0.000931  3.698134  -0.001  -0.221431  -0.000615  3.956931  0.0  -0.229537  -0.001086  3.975691  -0.001  -0.089265  -0.21619  -0.000247  3.94437  0.0
C  C40  1  0.19506235  0.12272481  0.11471902  1  -0.196271  0.000845  3.698684  0.001  -0.221114  0.000646  3.957789  0.0  -0.229156  0.001086  3.976467  0.001  -0.089122  -0.215918  0.000313  3.945376  0.0
C  C41  1  0.96664217  0.85826681  0.87791855  1  0.24953  0.002014  3.836366  0.002  0.247228  0.003188  4.099031  0.003  0.259959  0.002908  4.115936  0.003  0.117161  0.238764  0.003666  4.087411  0.003
C  C42  1  0.03336296  0.14164655  0.12200335  1  0.250487  -0.001846  3.836362  -0.002  0.247502  -0.00296  4.099836  -0.003  0.260235  -0.002768  4.116719  -0.002  0.117526  0.238963  -0.003269  4.088346  -0.003
C  C43  1  0.99733399  0.74382267  0.86271596  1  -0.213687  -0.001198  3.716855  -0.001  -0.233566  -0.000853  3.967747  -0.001  -0.244408  -0.001344  3.990136  -0.001  -0.09435  -0.226653  -0.000443  3.9531  0.0
C  C44  1  0.00266518  0.25609774  0.13712935  1  -0.213652  0.000817  3.719246  0.001  -0.233525  0.0006  3.97043  0.001  -0.244328  0.000966  3.992874  0.001  -0.094401  -0.226626  0.000354  3.955749  0.0
C  C45  1  0.86614685  0.65436151  0.85649184  1  0.149574  0.002639  3.718402  0.003  0.11899  0.004678  3.974833  0.004  0.127628  0.004053  3.993084  0.004  0.050432  0.11319  0.005408  3.962414  0.005
C  C46  1  0.13376204  0.34557374  0.14342274  1  0.149537  -0.002654  3.718985  -0.003  0.119105  -0.004521  3.975076  -0.004  0.127741  -0.004082  3.993485  -0.003  0.050645  0.113274  -0.00495  3.962455  -0.004
C  C47  1  0.08535729  0.25180279  0.45418225  1  0.145368  0.003333  3.719438  0.003  0.1145  0.00516  3.974847  0.004  0.122938  0.004517  3.992999  0.004  0.047687  0.108811  0.006014  3.962473  0.005
C  C48  1  0.91474327  0.74792924  0.54565942  1  0.14553  0.0032  3.718114  0.003  0.114798  0.00521  3.973506  0.004  0.123285  0.004473  3.991651  0.004  0.047686  0.109026  0.006153  3.961122  0.005
C  C49  1  0.17326028  0.16413679  0.42565681  1  -0.197366  -0.001782  3.694811  -0.001  -0.214202  -0.001257  3.944028  -0.001  -0.223241  -0.001746  3.962907  -0.001  -0.08865  -0.208366  -0.000921  3.931501  -0.001
C  C50  1  0.82690413  0.83560374  0.57440919  1  -0.196331  -0.00144  3.69365  -0.001  -0.213359  -0.000957  3.94272  -0.001  -0.222413  -0.001433  3.96161  -0.001  -0.088245  -0.207475  -0.000567  3.930171  0.0
C  C51  1  0.34298640  0.18758048  0.43748776  1  0.247749  0.002856  3.834534  0.003  0.245571  0.004174  4.092673  0.003  0.257412  0.003751  4.111289  0.003  0.115074  0.237597  0.004988  4.080109  0.004
C  C52  1  0.65716723  0.81226548  0.56266067  1  0.248631  0.002273  3.833972  0.002  0.246256  0.003516  4.092377  0.003  0.258095  0.003082  4.111019  0.003  0.115929  0.238285  0.004286  4.07978  0.004
C  C53  1  0.41711121  0.29632494  0.48109424  1  -0.209168  -0.001162  3.711327  -0.001  -0.229257  -0.000369  3.966746  -0.001  -0.239455  -0.000919  3.987984  -0.001  -0.093485  -0.222858  4.3e-05  3.953116  -0.001
C  C54  1  0.58292908  0.70352367  0.51911504  1  -0.208585  -0.001341  3.710735  -0.001  -0.228715  -0.00077  3.966336  -0.001  -0.238817  -0.001349  3.9876  -0.001  -0.093531  -0.222343  -0.00025  3.952651  0.0
C  C55  1  0.31796301  0.37760418  0.50842484  1  0.150313  0.003387  3.703208  0.003  0.120618  0.005179  3.957457  0.005  0.128733  0.004583  3.97669  0.004  0.051583  0.115028  0.005939  3.944545  0.005
C  C56  1  0.68198666  0.62226210  0.49157777  1  0.150188  0.002998  3.703802  0.003  0.120534  0.004911  3.957915  0.004  0.128642  0.004272  3.977242  0.004  0.051604  0.114946  0.005667  3.944896  0.005
N  N57  1  0.61562193  0.42137263  0.99549500  1  -0.601019  -0.000102  2.803602  0.001  -0.565083  0.000256  3.133247  0.002  -0.594169  -2e-06  3.135956  0.001  -0.303933  -0.542037  0.00061  3.130924  0.002
N  N58  1  0.38332361  0.57872986  0.00556065  1  -0.600702  0.000111  2.802652  -0.002  -0.564645  0.000447  3.131989  -0.002  -0.5939  -6e-06  3.135012  -0.002  -0.304002  -0.541163  0.000954  3.128888  -0.002
N  N59  1  0.64668755  0.32494061  0.97627594  1  0.39825  3.7e-05  4.211837  0.0  0.434834  0.000644  4.495866  0.0  0.451859  0.000545  4.525998  0.0  0.08713  0.422675  0.0007  4.474274  0.0
N  N60  1  0.35286105  0.67536120  0.02459879  1  0.396989  0.000311  4.210747  0.0  0.433426  0.000584  4.495104  0.001  0.450439  0.000353  4.525339  0.0  0.086308  0.42128  0.000939  4.473264  0.001
N  N61  1  0.67791205  0.23213209  0.95641870  1  -0.40275  -0.000793  2.40645  -0.001  -0.419987  -0.000498  2.650112  -0.001  -0.42714  -0.000559  2.660184  -0.001  -0.20994  -0.414129  -0.000452  2.642966  -0.001
N  N62  1  0.32218069  0.76832099  0.04445630  1  -0.401792  0.004126  2.405098  0.004  -0.418763  0.003641  2.648786  0.003  -0.426049  0.003362  2.658922  0.003  -0.208696  -0.412576  0.004496  2.641477  0.004
N  N63  1  0.37485697  0.62411398  0.74070503  1  -0.508988  0.04112  2.629583  0.025  -0.50308  0.052476  2.936936  0.028  -0.522903  0.043228  2.943222  0.02  -0.264362  -0.487477  0.061726  2.932253  0.035
N  N64  1  0.62372347  0.37756864  0.26011718  1  -0.499098  0.048447  2.639405  0.063  -0.494223  0.036994  2.95023  0.054  -0.513963  0.04391  2.955706  0.061  -0.26228  -0.478121  0.032948  2.946191  0.05
N  N65  1  0.24117132  0.59509345  0.70079787  1  0.392921  0.013121  4.233432  0.016  0.430264  0.026519  4.514517  0.03  0.44732  0.021113  4.546188  0.025  0.087469  0.418234  0.031673  4.491649  0.034
N  N66  1  0.75807383  0.40560501  0.29925309  1  0.390566  0.00034  4.218923  0.001  0.428318  -0.000194  4.499265  0.0  0.445378  0.000282  4.531176  0.001  0.087132  0.416049  -0.0008  4.475769  0.0
N  N67  1  0.10676372  0.56687603  0.66365243  1  -0.47484  0.049003  2.669848  0.033  -0.463261  0.057959  2.970679  0.034  -0.481392  0.048929  2.977403  0.026  -0.240043  -0.448973  0.067416  2.965897  0.042
N  N68  1  0.89317581  0.43325238  0.33558305  1  -0.473495  -0.048694  2.687701  -0.065  -0.462767  -0.036541  2.993047  -0.054  -0.480928  -0.043835  2.998813  -0.061  -0.244275  -0.448436  -0.031844  2.989183  -0.049
N  N69  1  0.64364603  0.43509202  0.73349822  1  -0.482545  0.058801  2.692552  0.041  -0.463206  0.064448  2.99692  0.038  -0.482047  0.057432  3.002267  0.033  -0.237417  -0.448236  0.072015  2.992967  0.044
N  N70  1  0.35866326  0.56518752  0.26636110  1  -0.480844  0.034712  2.712271  0.051  -0.461756  0.028293  3.022285  0.047  -0.480549  0.033664  3.026457  0.052  -0.240952  -0.446869  0.025452  3.019911  0.044
N  N71  1  0.72592249  0.41325864  0.65846771  1  0.402068  0.011592  4.244566  0.014  0.437822  0.023129  4.524068  0.026  0.45499  0.018605  4.555447  0.022  0.0928  0.425748  0.027352  4.501437  0.03
N  N72  1  0.27482325  0.58618473  0.34086177  1  0.400327  0.003746  4.234617  0.004  0.434981  0.006166  4.515263  0.006  0.452112  0.004691  4.546861  0.004  0.091664  0.422759  0.007606  4.492346  0.008
N  N73  1  0.80586825  0.38711046  0.58277542  1  -0.509249  0.027495  2.646537  0.012  -0.499179  0.042636  2.950545  0.02  -0.518678  0.033284  2.956756  0.012  -0.261163  -0.483731  0.05174  2.945936  0.028
N  N74  1  0.19329968  0.61157085  0.41599794  1  -0.502462  -0.032969  2.656176  -0.049  -0.493088  -0.026239  2.963355  -0.045  -0.512093  -0.033309  2.968889  -0.051  -0.2605  -0.478217  -0.021729  2.959487  -0.04
N  N75  1  0.29866074  0.36765889  0.82993351  1  -0.335871  0.026028  3.218777  0.016  -0.269104  0.030014  3.486881  0.016  -0.290126  0.027045  3.504672  0.014  -0.321696  -0.25389  0.032808  3.47446  0.019
N  N76  1  0.70140106  0.63252899  0.17006812  1  -0.335091  -0.026116  3.219052  -0.015  -0.268025  -0.029924  3.486785  -0.016  -0.289303  -0.027164  3.504718  -0.014  -0.321132  -0.252199  -0.032205  3.474083  -0.018
N  N77  1  0.90872775  0.12197030  0.70184384  1  -0.256039  -0.000116  3.000923  0.0  -0.243147  0.000181  3.282291  0.0  -0.262219  -1.2e-05  3.296285  0.0  -0.147643  -0.230048  0.000356  3.27263  0.0
N  N78  1  0.09150451  0.87805626  0.29803833  1  -0.256316  9.9e-05  3.001282  0.0  -0.243565  -0.000112  3.282732  0.0  -0.26263  1e-05  3.296719  0.0  -0.148114  -0.230494  -0.000199  3.273077  0.0
N  N79  1  0.76608775  0.13990305  0.70081500  1  0.347854  -7.3e-05  3.981099  0.0  0.375254  0.000264  4.2893  0.0  0.388524  3.5e-05  4.309337  0.0  0.148391  0.365948  0.000616  4.276122  0.0
N  N80  1  0.23409176  0.86002577  0.29924976  1  0.347762  -0.00025  3.980782  0.0  0.375304  -0.000531  4.288879  0.0  0.388568  -0.00041  4.308948  0.0  0.148799  0.366015  -0.000705  4.275678  0.0
N  N81  1  0.62900280  0.14065032  0.69078445  1  -0.169009  0.000698  2.416834  0.001  -0.179313  0.001334  2.657785  0.001  -0.176468  0.001105  2.664549  0.001  -0.05769  -0.181342  0.001862  2.653743  0.002
N  N82  1  0.37112893  0.85914240  0.30945577  1  -0.169156  -0.000889  2.417706  -0.001  -0.179594  -0.001523  2.658855  -0.001  -0.176764  -0.001337  2.665621  -0.001  -0.05801  -0.181616  -0.001961  2.654804  -0.002
N  N83  1  0.71053119  0.67142498  0.86404811  1  -0.330184  0.02697  3.233176  0.015  -0.260971  0.03059  3.504862  0.014  -0.28227  0.027539  3.522253  0.012  -0.321279  -0.24535  0.033256  3.492425  0.017
N  N84  1  0.28939713  0.32850224  0.13608180  1  -0.329374  -0.026975  3.234584  -0.015  -0.259798  -0.02999  3.506411  -0.014  -0.281394  -0.027276  3.523703  -0.012  -0.321021  -0.243613  -0.032088  3.494166  -0.016
N  N85  1  0.08692700  0.95670548  0.88508174  1  -0.244566  -0.000134  3.020273  0.0  -0.233476  0.000152  3.300216  0.0  -0.252477  -4e-05  3.315952  0.0  -0.14523  -0.220361  0.000317  3.289216  0.0
N  N86  1  0.91308977  0.04323924  0.11487257  1  -0.244224  0.000118  3.020571  0.0  -0.232767  -0.000138  3.300555  0.0  -0.251745  3e-05  3.31629  0.0  -0.144897  -0.219699  -0.00031  3.289619  0.0
N  N87  1  0.23126264  0.94866815  0.87100637  1  0.339365  0.000152  3.983931  0.0  0.36983  0.000421  4.286429  0.0  0.382836  0.000237  4.307622  0.0  0.146709  0.360808  0.000672  4.272281  0.001
N  N88  1  0.76876263  0.05125478  0.12893847  1  0.339149  -0.000118  3.98346  0.0  0.369539  -0.000325  4.285904  0.0  0.382545  -0.000177  4.307099  0.0  0.146432  0.360526  -0.00051  4.271777  0.0
N  N89  1  0.36866489  0.95921310  0.85906312  1  -0.168336  0.000903  2.36913  0.001  -0.177483  0.001463  2.594326  0.001  -0.175928  0.001355  2.601851  0.001  -0.055823  -0.178495  0.001757  2.589631  0.001
N  N90  1  0.63137344  0.04079260  0.14091982  1  -0.168218  -0.000781  2.368492  -0.001  -0.177367  -0.001288  2.593614  -0.001  -0.175803  -0.001202  2.601132  -0.001  -0.055872  -0.178444  -0.001474  2.588956  -0.001
N  N91  1  0.15496887  0.35763059  0.49389817  1  -0.331985  0.02629  3.24686  0.014  -0.263055  0.029892  3.514859  0.015  -0.284112  0.026913  3.532519  0.012  -0.32228  -0.247431  0.032343  3.502312  0.017
N  N92  1  0.84501381  0.64220454  0.50576193  1  -0.332107  0.026561  3.246171  0.015  -0.263619  0.030087  3.514802  0.015  -0.284648  0.027193  3.53234  0.012  -0.322471  -0.24805  0.032468  3.502437  0.017
N  N93  1  0.42807634  0.09810483  0.40469718  1  -0.248958  -0.000244  3.038004  0.0  -0.23896  0.000102  3.321551  0.0  -0.260029  -0.0001  3.33919  0.0  -0.146415  -0.224581  0.000271  3.309374  0.0
N  N94  1  0.57213908  0.90178906  0.59541025  1  -0.249036  -0.00029  3.038963  0.0  -0.238881  3.1e-05  3.322334  0.0  -0.260003  -0.000188  3.340091  0.0  -0.14658  -0.224513  0.000246  3.31016  0.0
N  N95  1  0.57770330  0.11200294  0.40640041  1  0.351273  0.000172  3.997407  0.0  0.376705  0.000546  4.308433  0.0  0.390149  0.000305  4.329557  0.0  0.149653  0.367349  0.000976  4.29441  0.001
N  N96  1  0.42250355  0.88794769  0.59362053  1  0.350828  -1.7e-05  3.999615  0.0  0.376205  0.000328  4.310803  0.0  0.389671  6.5e-05  4.33192  0.0  0.149744  0.366821  0.000797  4.296804  0.001
N  N97  1  0.71412064  0.10795175  0.40207770  1  -0.187237  0.00125  2.378428  0.001  -0.187849  0.00195  2.601051  0.002  -0.185257  0.00169  2.607681  0.002  -0.064511  -0.189826  0.002674  2.597221  0.002
N  N98  1  0.28608486  0.89203476  0.59775787  1  -0.186868  0.001039  2.379527  0.001  -0.187482  0.001686  2.602186  0.002  -0.184895  0.001421  2.60881  0.001  -0.064438  -0.189392  0.002391  2.59832  0.002
