# generated using pymatgen
data_CdH26C28(N5O3)2
_symmetry_space_group_name_H-M   'P 1'
_cell_length_a   7.35559173
_cell_length_b   7.80558548
_cell_length_c   12.36088761
_cell_angle_alpha   87.19594784
_cell_angle_beta   84.02759649
_cell_angle_gamma   78.93560964
_symmetry_Int_Tables_number   1
_chemical_formula_structural   CdH26C28(N5O3)2
_chemical_formula_sum   'Cd1 H26 C28 N10 O6'
_cell_volume   692.41956715
_cell_formula_units_Z   1
loop_
 _symmetry_equiv_pos_site_id
 _symmetry_equiv_pos_as_xyz
  1  'x, y, z'
loop_
 _atom_site_type_symbol
 _atom_site_label
 _atom_site_symmetry_multiplicity
 _atom_site_fract_x
 _atom_site_fract_y
 _atom_site_fract_z
 _atom_site_occupancy
 _atom_site_hle17_bader_spin_density
 _atom_site_hle17_ddec_charge
 _atom_site_hle17_ddec_spin_density
 _atom_site_hle17_ddec_sum_bond_order
 _atom_site_hle17_magmom
 _atom_site_hse06_10hf_bader_spin_density
 _atom_site_hse06_10hf_ddec_charge
 _atom_site_hse06_10hf_ddec_spin_density
 _atom_site_hse06_10hf_ddec_sum_bond_order
 _atom_site_hse06_10hf_magmom
 _atom_site_hse06_bader_spin_density
 _atom_site_hse06_ddec_charge
 _atom_site_hse06_ddec_spin_density
 _atom_site_hse06_ddec_sum_bond_order
 _atom_site_hse06_magmom
 _atom_site_pbe_bader_spin_density
 _atom_site_pbe_cm5_charge
 _atom_site_pbe_ddec_charge
 _atom_site_pbe_ddec_spin_density
 _atom_site_pbe_ddec_sum_bond_order
 _atom_site_pbe_magmom
Cd  Cd0  1  0.00000104  0.50000074  0.00000016  1  0  1.139264  0  1.679688  0  0  0.955584  0  2.125521  0  0  1.011107  0  2.072854  0  0  0.76391  0.916282  0  2.161412  0
H  H1  1  0.41109102  0.38201241  0.88730073  1  0  0.084691  0  0.944694  0  0  0.095314  0  1.005026  0  0  0.097337  0  1.0032  0  0  0.118426  0.093735  0  1.006484  0
H  H2  1  0.58890806  0.61798737  0.11269729  1  0  0.084664  0  0.944729  0  0  0.095302  0  1.005018  0  0  0.097323  0  1.003195  0  0  0.118398  0.093724  0  1.006476  0
H  H3  1  0.07384594  0.54334525  0.56372355  1  0  0.10932  0  0.959933  0  0  0.116199  0  1.028809  0  0  0.120015  0  1.026356  0  0  0.107651  0.113479  0  1.03068  0
H  H4  1  0.92615043  0.45665450  0.43627626  1  0  0.109336  0  0.959928  0  0  0.116218  0  1.028804  0  0  0.120016  0  1.026398  0  0  0.107658  0.113498  0  1.030675  0
H  H5  1  0.13299543  0.74746764  0.38299827  1  0  0.078087  0  0.950494  0  0  0.080707  0  1.026091  0  0  0.084276  0  1.022122  0  0  0.110305  0.078135  0  1.028937  0
H  H6  1  0.86700583  0.25253481  0.61700357  1  0  0.078107  0  0.950458  0  0  0.08071  0  1.026083  0  0  0.084273  0  1.022133  0  0  0.110304  0.078137  0  1.028929  0
H  H7  1  0.93707872  0.63237010  0.74942846  1  0  0.078763  0  0.955253  0  0  0.084258  0  1.023192  0  0  0.087471  0  1.020028  0  0  0.112848  0.081864  0  1.025577  0
H  H8  1  0.06291901  0.36762966  0.25057127  1  0  0.078729  0  0.955272  0  0  0.084225  0  1.023207  0  0  0.087438  0  1.02004  0  0  0.112835  0.081831  0  1.025593  0
H  H9  1  0.56357005  0.27109819  0.70791977  1  0  0.116035  0  0.953142  0  0  0.123797  0  1.018592  0  0  0.127388  0  1.016576  0  0  0.110985  0.121214  0  1.020178  0
H  H10  1  0.43642796  0.72890026  0.29207837  1  0  0.11605  0  0.953096  0  0  0.123816  0  1.018559  0  0  0.127405  0  1.016544  0  0  0.111002  0.121234  0  1.020145  0
H  H11  1  0.69714480  0.16274402  0.17703699  1  0  0.118787  0  0.953733  0  0  0.127416  0  1.014977  0  0  0.131008  0  1.013679  0  0  0.112043  0.124797  0  1.016105  0
H  H12  1  0.30285731  0.83725451  0.82296411  1  0  0.118759  0  0.953699  0  0  0.127368  0  1.014972  0  0  0.130959  0  1.013675  0  0  0.112026  0.124749  0  1.0161  0
H  H13  1  0.96386852  0.95845765  0.08737502  1  0  0.085776  0  0.948599  0  0  0.094662  0  1.010199  0  0  0.097467  0  1.007507  0  0  0.117044  0.092541  0  1.012296  0
H  H14  1  0.03613330  0.04154219  0.91262525  1  0  0.08576  0  0.94861  0  0  0.094641  0  1.010218  0  0  0.097446  0  1.007526  0  0  0.117037  0.092519  0  1.012315  0
H  H15  1  0.86447368  0.93719659  0.48604803  1  0  0.112831  0  0.952959  0  0  0.120938  0  1.01509  0  0  0.124433  0  1.014  0  0  0.108067  0.118473  0  1.015944  0
H  H16  1  0.13552786  0.06280455  0.51395302  1  0  0.112851  0  0.952911  0  0  0.120971  0  1.015035  0  0  0.12447  0  1.013934  0  0  0.108088  0.118505  0  1.015889  0
H  H17  1  0.41654882  0.25543442  0.26965429  1  0  0.312597  0  0.935511  0  0  0.28686  0  1.005807  0  0  0.29631  0  0.997738  0  0  0.315558  0.28017  0  1.011541  0
H  H18  1  0.58345328  0.74456410  0.73034439  1  0  0.312512  0  0.935553  0  0  0.286778  0  1.005852  0  0  0.296232  0  0.997779  0  0  0.315523  0.280067  0  1.011619  0
H  H19  1  0.48117890  0.04740106  0.87887709  1  0  0.090616  0  0.958122  0  0  0.102327  0  1.02642  0  0  0.104066  0  1.026847  0  0  0.092007  0.101111  0  1.02619  0
H  H20  1  0.51882263  0.95260008  0.12112154  1  0  0.09067  0  0.95806  0  0  0.102366  0  1.026371  0  0  0.104107  0  1.026797  0  0  0.092017  0.101151  0  1.02614  0
H  H21  1  0.65551843  0.09893836  0.95524485  1  0  0.110649  0  0.934895  0  0  0.12619  0  0.99379  0  0  0.128429  0  0.99276  0  0  0.099495  0.124527  0  0.99471  0
H  H22  1  0.34448037  0.90106273  0.04475396  1  0  0.110655  0  0.934904  0  0  0.126196  0  0.993794  0  0  0.128437  0  0.992765  0  0  0.099495  0.124533  0  0.994716  0
H  H23  1  0.81751528  0.31506692  0.85792447  1  0  0.374748  0  0.952368  0  0  0.33205  0  1.036619  0  0  0.343751  0  1.020175  0  0  0.271866  0.323837  0  1.048112  0
H  H24  1  0.18248626  0.68493422  0.14207659  1  0  0.37478  0  0.952318  0  0  0.33209  0  1.036555  0  0  0.343791  0  1.020111  0  0  0.271877  0.323878  0  1.048042  0
H  H25  1  0.70758621  0.51030648  0.88755378  1  0  0.402061  0  0.911987  0  0  0.368999  0  0.980252  0  0  0.380487  0  0.963646  0  0  0.276649  0.3609  0  0.99192  0
H  H26  1  0.29241396  0.48969464  0.11244655  1  0  0.402069  0  0.911975  0  0  0.369037  0  0.980202  0  0  0.380526  0  0.963595  0  0  0.27666  0.360939  0  0.991869  0
C  C27  1  0.68446204  0.82535308  0.92506662  1  0  0.719165  0  3.821032  0  0  0.671418  0  4.122883  0  0  0.705282  0  4.114918  0  0  0.21563  0.648463  0  4.127413  0
C  C28  1  0.31553977  0.17464675  0.07493284  1  0  0.719191  0  3.820931  0  0  0.671401  0  4.12285  0  0  0.705266  0  4.114882  0  0  0.215601  0.648446  0  4.127382  0
C  C29  1  0.41059155  0.32075249  0.51646832  1  0  0.267803  0  3.809459  0  0  0.25016  0  4.086405  0  0  0.258511  0  4.103083  0  0  0.20771  0.244675  0  4.074955  0
C  C30  1  0.58940646  0.67924597  0.48353062  1  0  0.267827  0  3.809547  0  0  0.250165  0  4.086538  0  0  0.258508  0  4.10323  0  0  0.207741  0.244719  0  4.075038  0
C  C31  1  0.32952812  0.39424292  0.62079963  1  0  0.063998  0  3.770405  0  0  0.076444  0  4.0011  0  0  0.080573  0  4.021968  0  0  0.015948  0.073796  0  3.986943  0
C  C32  1  0.67046960  0.60575685  0.37919929  1  0  0.064042  0  3.770467  0  0  0.076469  0  4.00121  0  0  0.080604  0  4.022072  0  0  0.015923  0.073809  0  3.987051  0
C  C33  1  0.33975892  0.41245500  0.81385017  1  0  0.134499  0  3.708878  0  0  0.104276  0  3.963509  0  0  0.112012  0  3.981407  0  0  0.044219  0.099206  0  3.95141  0
C  C34  1  0.66023881  0.58754476  0.18614874  1  0  0.134523  0  3.708996  0  0  0.104305  0  3.963629  0  0  0.112041  0  3.981528  0  0  0.044223  0.099235  0  3.951529  0
C  C35  1  0.15345832  0.50290140  0.63304095  1  0  -0.146652  0  3.703566  0  0  -0.169131  0  3.957934  0  0  -0.176121  0  3.977981  0  0  -0.082562  -0.164635  0  3.944514  0
C  C36  1  0.84653805  0.49709834  0.36695805  1  0  -0.146785  0  3.703799  0  0  -0.169261  0  3.958172  0  0  -0.176255  0  3.978212  0  0  -0.082633  -0.164763  0  3.944756  0
C  C37  1  0.59865129  0.17443968  0.39799904  1  0  0.309194  0  3.775265  0  0  0.278146  0  4.044087  0  0  0.291027  0  4.058261  0  0  0.226025  0.269776  0  4.034173  0
C  C38  1  0.40134809  0.82555881  0.60200143  1  0  0.309258  0  3.775277  0  0  0.278148  0  4.044178  0  0  0.291076  0  4.058291  0  0  0.226032  0.269778  0  4.034263  0
C  C39  1  0.03273287  0.84052531  0.34007177  1  0  0.119019  0  3.734156  0  0  0.091216  0  3.991692  0  0  0.097514  0  4.008229  0  0  0.041987  0.087177  0  3.980398  0
C  C40  1  0.96727004  0.15947586  0.65993000  1  0  0.118966  0  3.734157  0  0  0.091182  0  3.991692  0  0  0.097477  0  4.008227  0  0  0.041986  0.087145  0  3.980395  0
C  C41  1  0.07668972  0.55387052  0.73652507  1  0  0.124491  0  3.73317  0  0  0.093444  0  3.992596  0  0  0.10043  0  4.010831  0  0  0.042488  0.088939  0  3.980169  0
C  C42  1  0.92330937  0.44612927  0.26347538  1  0  0.124619  0  3.733141  0  0  0.093591  0  3.992555  0  0  0.100579  0  4.010785  0  0  0.042526  0.089085  0  3.98013  0
C  C43  1  0.56502113  0.00440495  0.94703058  1  0  -0.246289  0  3.645946  0  0  -0.286827  0  3.898126  0  0  -0.291952  0  3.904899  0  0  -0.166878  -0.283248  0  3.893376  0
C  C44  1  0.43497767  0.99559614  0.05296822  1  0  -0.246355  0  3.645927  0  0  -0.286858  0  3.898097  0  0  -0.291989  0  3.904873  0  0  -0.166876  -0.283289  0  3.893367  0
C  C45  1  0.75749081  0.06402567  0.34000071  1  0  0.045453  0  3.79922  0  0  0.059251  0  4.034027  0  0  0.061511  0  4.054912  0  0  0.010827  0.057803  0  4.019825  0
C  C46  1  0.24251102  0.93597417  0.66000037  1  0  0.045371  0  3.799242  0  0  0.059192  0  4.034054  0  0  0.061436  0  4.054932  0  0  0.010795  0.057743  0  4.019851  0
C  C47  1  0.42532553  0.35246901  0.71378117  1  0  -0.138207  0  3.672781  0  0  -0.161553  0  3.925468  0  0  -0.168031  0  3.944601  0  0  -0.080527  -0.157425  0  3.912749  0
C  C48  1  0.57467248  0.64752944  0.28621696  1  0  -0.138204  0  3.672694  0  0  -0.161548  0  3.925383  0  0  -0.168027  0  3.944515  0  0  -0.080491  -0.157421  0  3.912668  0
C  C49  1  0.78817026  0.07109831  0.22616397  1  0  -0.147658  0  3.690263  0  0  -0.169967  0  3.942518  0  0  -0.176539  0  3.96282  0  0  -0.082238  -0.165697  0  3.929002  0
C  C50  1  0.21183185  0.92890022  0.77383714  1  0  -0.147525  0  3.690153  0  0  -0.169815  0  3.942388  0  0  -0.176386  0  3.962694  0  0  -0.082166  -0.165546  0  3.928873  0
C  C51  1  0.93963201  0.95887001  0.17572722  1  0  0.142063  0  3.695288  0  0  0.113209  0  3.950912  0  0  0.119598  0  3.967829  0  0  0.047957  0.109023  0  3.939525  0
C  C52  1  0.06036981  0.04112983  0.82427305  1  0  0.141989  0  3.695305  0  0  0.113146  0  3.95091  0  0  0.119533  0  3.967828  0  0  0.047919  0.10896  0  3.939522  0
C  C53  1  0.88470548  0.94710861  0.39769598  1  0  -0.146281  0  3.707379  0  0  -0.166226  0  3.952962  0  0  -0.172554  0  3.973288  0  0  -0.084197  -0.162123  0  3.939336  0
C  C54  1  0.11529715  0.05289386  0.60230577  1  0  -0.146341  0  3.707339  0  0  -0.16631  0  3.952936  0  0  -0.172634  0  3.973263  0  0  -0.084247  -0.162207  0  3.939308  0
N  N55  1  0.44584840  0.25817875  0.35086604  1  0  -0.212138  0  3.427178  0  0  -0.148699  0  3.664939  0  0  -0.163161  0  3.681169  0  0  -0.253964  -0.139003  0  3.653978  0
N  N56  1  0.55415097  0.74181973  0.64913281  1  0  -0.212034  0  3.42723  0  0  -0.148568  0  3.664943  0  0  -0.163046  0  3.681159  0  0  -0.253963  -0.138861  0  3.654006  0
N  N57  1  0.16591064  0.50697696  0.82624521  1  0  -0.350749  0  3.252839  0  0  -0.276013  0  3.519345  0  0  -0.296179  0  3.538239  0  0  -0.334828  -0.262253  0  3.506216  0
N  N58  1  0.83408709  0.49302280  0.17375452  1  0  -0.350746  0  3.252835  0  0  -0.276023  0  3.519341  0  0  -0.296188  0  3.538233  0  0  -0.334781  -0.262261  0  3.506213  0
N  N59  1  0.57937957  0.21120840  0.50360802  1  0  -0.448987  0  2.918672  0  0  -0.424603  0  3.192345  0  0  -0.438731  0  3.204413  0  0  -0.327409  -0.414953  0  3.183935  0
N  N60  1  0.42061953  0.78879139  0.49639161  1  0  -0.449033  0  2.918666  0  0  -0.424627  0  3.192378  0  0  -0.43877  0  3.204434  0  0  -0.327437  -0.414989  0  3.183957  0
N  N61  1  0.32408302  0.35187311  0.42453675  1  0  -0.253558  0  2.834524  0  0  -0.243976  0  3.104334  0  0  -0.251049  0  3.11926  0  0  -0.216036  -0.239033  0  3.09416  0
N  N62  1  0.67591499  0.64812534  0.57546219  1  0  -0.253649  0  2.834612  0  0  -0.244056  0  3.104418  0  0  -0.251128  0  3.119349  0  0  -0.216039  -0.239124  0  3.094227  0
N  N63  1  0.06012276  0.84427138  0.23069144  1  0  -0.324585  0  3.148609  0  0  -0.262555  0  3.394875  0  0  -0.276974  0  3.411444  0  0  -0.311928  -0.252742  0  3.383532  0
N  N64  1  0.93987907  0.15572846  0.76931044  1  0  -0.324442  0  3.148595  0  0  -0.262411  0  3.394829  0  0  -0.276828  0  3.411399  0  0  -0.311853  -0.252595  0  3.383484  0
O  O65  1  0.63489586  0.72743892  0.85757422  1  0  -0.667842  0  1.993889  0  0  -0.60516  0  2.216191  0  0  -0.630286  0  2.20436  0  0  -0.326236  -0.58752  0  2.223745  0
O  O66  1  0.36510488  0.27255958  0.14242535  1  0  -0.667819  0  1.993903  0  0  -0.605138  0  2.21624  0  0  -0.630263  0  2.204406  0  0  -0.326222  -0.587509  0  2.223792  0
O  O67  1  0.76403019  0.39482025  0.91983657  1  0  -0.827398  0  1.881575  0  0  -0.764284  0  2.081795  0  0  -0.786984  0  2.04708  0  0  -0.595094  -0.748118  0  2.105748  0
O  O68  1  0.23597135  0.60518089  0.08016367  1  0  -0.827422  0  1.881561  0  0  -0.764338  0  2.081727  0  0  -0.787039  0  2.047011  0  0  -0.595103  -0.748168  0  2.105685  0
O  O69  1  0.82433388  0.78019398  0.97910526  1  0  -0.659954  0  2.007284  0  0  -0.596114  0  2.265351  0  0  -0.625912  0  2.256122  0  0  -0.325809  -0.575061  0  2.270569  0
O  O70  1  0.17566493  0.21980712  0.02089516  1  0  -0.659982  0  2.007189  0  0  -0.59612  0  2.265269  0  0  -0.62592  0  2.256043  0  0  -0.325794  -0.575063  0  2.270482  0
