# generated using pymatgen
data_SnH12C9BrN3
_symmetry_space_group_name_H-M   'P 1'
_cell_length_a   8.63630860
_cell_length_b   10.72078610
_cell_length_c   13.55682855
_cell_angle_alpha   90.00016481
_cell_angle_beta   103.98378600
_cell_angle_gamma   89.99982543
_symmetry_Int_Tables_number   1
_chemical_formula_structural   SnH12C9BrN3
_chemical_formula_sum   'Sn4 H48 C36 Br4 N12'
_cell_volume   1218.00095771
_cell_formula_units_Z   4
loop_
 _symmetry_equiv_pos_site_id
 _symmetry_equiv_pos_as_xyz
  1  'x, y, z'
loop_
 _atom_site_type_symbol
 _atom_site_label
 _atom_site_symmetry_multiplicity
 _atom_site_fract_x
 _atom_site_fract_y
 _atom_site_fract_z
 _atom_site_occupancy
 _atom_site_hle17_bader_spin_density
 _atom_site_hle17_ddec_charge
 _atom_site_hle17_ddec_spin_density
 _atom_site_hle17_ddec_sum_bond_order
 _atom_site_hle17_magmom
 _atom_site_hse06_10hf_bader_spin_density
 _atom_site_hse06_10hf_ddec_charge
 _atom_site_hse06_10hf_ddec_spin_density
 _atom_site_hse06_10hf_ddec_sum_bond_order
 _atom_site_hse06_10hf_magmom
 _atom_site_hse06_bader_spin_density
 _atom_site_hse06_ddec_charge
 _atom_site_hse06_ddec_spin_density
 _atom_site_hse06_ddec_sum_bond_order
 _atom_site_hse06_magmom
 _atom_site_pbe_bader_spin_density
 _atom_site_pbe_cm5_charge
 _atom_site_pbe_ddec_charge
 _atom_site_pbe_ddec_spin_density
 _atom_site_pbe_ddec_sum_bond_order
 _atom_site_pbe_magmom
Sn  Sn0  1  0.41201604  0.24952165  0.18796455  1  0  1.143536  0  2.864454  0  0  0.999924  0  3.354021  0  0  1.031378  0  3.347055  0  0  0.446807  0.978444  0  3.358495  0
Sn  Sn1  1  0.08798758  0.74951733  0.31203580  1  0  1.143447  0  2.864511  0  0  0.999915  0  3.353914  0  0  1.031366  0  3.346956  0  0  0.446805  0.97844  0  3.358389  0
Sn  Sn2  1  0.58798203  0.75047558  0.81203657  1  0  1.143582  0  2.864525  0  0  1.000003  0  3.354045  0  0  1.031466  0  3.34706  0  0  0.446852  0.978518  0  3.358532  0
Sn  Sn3  1  0.91201167  0.25048363  0.68796181  1  0  1.143458  0  2.864518  0  0  0.999945  0  3.353933  0  0  1.031402  0  3.346958  0  0  0.446813  0.978469  0  3.358401  0
H  H4  1  0.36283218  0.15128297  0.36304403  1  0  0.105504  0  1.007262  0  0  0.118411  0  1.07271  0  0  0.12006  0  1.074935  0  0  0.082337  0.116993  0  1.07169  0
H  H5  1  0.13717293  0.65128255  0.13695411  1  0  0.105554  0  1.007217  0  0  0.118449  0  1.07269  0  0  0.120098  0  1.074914  0  0  0.082336  0.117031  0  1.071671  0
H  H6  1  0.63716947  0.84871519  0.63695838  1  0  0.105491  0  1.007286  0  0  0.118401  0  1.072737  0  0  0.120049  0  1.074961  0  0  0.082315  0.116983  0  1.071719  0
H  H7  1  0.86282990  0.34871561  0.86304478  1  0  0.105556  0  1.007245  0  0  0.118456  0  1.072708  0  0  0.120104  0  1.074933  0  0  0.082344  0.117037  0  1.07169  0
H  H8  1  0.36867507  0.31753478  0.37123392  1  0  0.127953  0  0.988125  0  0  0.139791  0  1.050942  0  0  0.142876  0  1.050911  0  0  0.083077  0.137203  0  1.051685  0
H  H9  1  0.13132595  0.81753434  0.12876545  1  0  0.127911  0  0.988139  0  0  0.139758  0  1.05095  0  0  0.142853  0  1.050909  0  0  0.083048  0.137171  0  1.051694  0
H  H10  1  0.63132538  0.68246432  0.62876683  1  0  0.127913  0  0.988164  0  0  0.139747  0  1.050984  0  0  0.142832  0  1.050953  0  0  0.08306  0.137159  0  1.051731  0
H  H11  1  0.86867806  0.18246475  0.87123215  1  0  0.127899  0  0.988183  0  0  0.139762  0  1.050975  0  0  0.142849  0  1.050942  0  0  0.083042  0.137175  0  1.051716  0
H  H12  1  0.08801757  0.32367064  0.25022216  1  0  0.110872  0  0.943303  0  0  0.122962  0  1.010081  0  0  0.124749  0  1.008447  0  0  0.107356  0.121658  0  1.01142  0
H  H13  1  0.41198463  0.82366809  0.24977814  1  0  0.110856  0  0.943427  0  0  0.122931  0  1.010208  0  0  0.124721  0  1.008578  0  0  0.107326  0.121627  0  1.011547  0
H  H14  1  0.91198646  0.67633032  0.74977913  1  0  0.110836  0  0.943321  0  0  0.122937  0  1.010103  0  0  0.124717  0  1.008472  0  0  0.107369  0.121648  0  1.011432  0
H  H15  1  0.58801821  0.17633100  0.75022149  1  0  0.110888  0  0.943311  0  0  0.122947  0  1.010129  0  0  0.124733  0  1.008496  0  0  0.107343  0.121657  0  1.011456  0
H  H16  1  0.08645390  0.15947000  0.24886754  1  0  0.104168  0  0.93992  0  0  0.117439  0  1.003094  0  0  0.11881  0  1.002743  0  0  0.103118  0.116473  0  1.003422  0
H  H17  1  0.41355002  0.65946745  0.25113487  1  0  0.104183  0  0.939842  0  0  0.117421  0  1.003057  0  0  0.118797  0  1.002704  0  0  0.103111  0.116455  0  1.003386  0
H  H18  1  0.91354418  0.84053190  0.75113432  1  0  0.104143  0  0.939939  0  0  0.117416  0  1.003133  0  0  0.118784  0  1.002776  0  0  0.103105  0.116448  0  1.003465  0
H  H19  1  0.58645163  0.34053258  0.74886606  1  0  0.104201  0  0.939823  0  0  0.117446  0  1.003028  0  0  0.118818  0  1.002674  0  0  0.103122  0.116479  0  1.003359  0
H  H20  1  0.26666216  0.46935170  0.13851604  1  0  0.117167  0  0.979557  0  0  0.133891  0  1.037264  0  0  0.135723  0  1.039056  0  0  0.090408  0.132195  0  1.036795  0
H  H21  1  0.23333720  0.96934907  0.36148342  1  0  0.117134  0  0.979528  0  0  0.13384  0  1.037265  0  0  0.135672  0  1.039057  0  0  0.090401  0.132141  0  1.036799  0
H  H22  1  0.73333471  0.53064459  0.86148416  1  0  0.1171  0  0.979464  0  0  0.133841  0  1.037179  0  0  0.135674  0  1.038971  0  0  0.090381  0.132157  0  1.036695  0
H  H23  1  0.76666445  0.03065283  0.63851677  1  0  0.117134  0  0.979517  0  0  0.13386  0  1.037231  0  0  0.135693  0  1.039023  0  0  0.090397  0.132144  0  1.03679  0
H  H24  1  0.42047679  0.45158217  0.07253602  1  0  0.124603  0  0.969591  0  0  0.139338  0  1.026926  0  0  0.141731  0  1.02786  0  0  0.093424  0.137442  0  1.026641  0
H  H25  1  0.07951904  0.95157922  0.42746286  1  0  0.124603  0  0.969566  0  0  0.139347  0  1.0269  0  0  0.141741  0  1.027833  0  0  0.093437  0.137451  0  1.026614  0
H  H26  1  0.57952247  0.54842065  0.92746528  1  0  0.124572  0  0.969688  0  0  0.139315  0  1.027014  0  0  0.141709  0  1.027946  0  0  0.093409  0.137419  0  1.02673  0
H  H27  1  0.92048141  0.04842080  0.57253714  1  0  0.124556  0  0.96959  0  0  0.13931  0  1.026913  0  0  0.141704  0  1.027846  0  0  0.093428  0.137415  0  1.026625  0
H  H28  1  0.24321786  0.30087489  0.95057578  1  0  0.106299  0  0.949943  0  0  0.11998  0  1.014954  0  0  0.121328  0  1.014405  0  0  0.107734  0.119013  0  1.015354  0
H  H29  1  0.25677995  0.80087573  0.54942532  1  0  0.106308  0  0.949919  0  0  0.119993  0  1.014929  0  0  0.121341  0  1.01438  0  0  0.107738  0.119026  0  1.015325  0
H  H30  1  0.75678021  0.69912513  0.04942755  1  0  0.106312  0  0.949923  0  0  0.11997  0  1.014962  0  0  0.121314  0  1.014423  0  0  0.107723  0.119005  0  1.015353  0
H  H31  1  0.74321811  0.19912150  0.45057358  1  0  0.10633  0  0.949912  0  0  0.119987  0  1.014963  0  0  0.121335  0  1.014414  0  0  0.107738  0.119022  0  1.015352  0
H  H32  1  0.08791849  0.32608981  0.01264786  1  0  0.108146  0  0.934065  0  0  0.12192  0  0.996529  0  0  0.123091  0  0.996279  0  0  0.108393  0.121187  0  0.996536  0
H  H33  1  0.41207893  0.82608533  0.48735320  1  0  0.108148  0  0.933985  0  0  0.121901  0  0.996476  0  0  0.123072  0  0.996227  0  0  0.108388  0.121166  0  0.996486  0
H  H34  1  0.91207480  0.67391208  0.98735180  1  0  0.108162  0  0.934097  0  0  0.121948  0  0.996537  0  0  0.123121  0  0.996285  0  0  0.108418  0.121213  0  0.996545  0
H  H35  1  0.58791794  0.17391097  0.51264553  1  0  0.10815  0  0.933993  0  0  0.121923  0  0.996472  0  0  0.123095  0  0.996222  0  0  0.108394  0.121189  0  0.996479  0
H  H36  1  0.78650714  0.74254314  0.33551300  1  0  0.132804  0  0.972591  0  0  0.145228  0  1.032438  0  0  0.147893  0  1.032972  0  0  0.094252  0.143395  0  1.031982  0
H  H37  1  0.71349701  0.24254227  0.16448765  1  0  0.132781  0  0.972672  0  0  0.145211  0  1.032517  0  0  0.147878  0  1.033048  0  0  0.094256  0.143376  0  1.032061  0
H  H38  1  0.21349450  0.25745968  0.66448646  1  0  0.132746  0  0.972701  0  0  0.145278  0  1.032414  0  0  0.147941  0  1.032944  0  0  0.09425  0.143445  0  1.031958  0
H  H39  1  0.28650105  0.75745682  0.83551125  1  0  0.1328  0  0.972583  0  0  0.145222  0  1.032441  0  0  0.147889  0  1.032972  0  0  0.09426  0.143389  0  1.031984  0
H  H40  1  0.79622055  0.66568196  0.22101719  1  0  0.105855  0  1.002721  0  0  0.119926  0  1.06465  0  0  0.121289  0  1.067418  0  0  0.086642  0.118939  0  1.062785  0
H  H41  1  0.70378025  0.16568246  0.27898204  1  0  0.105839  0  1.002747  0  0  0.119927  0  1.064653  0  0  0.121289  0  1.06742  0  0  0.086653  0.11894  0  1.062786  0
H  H42  1  0.20377989  0.33431994  0.77898208  1  0  0.105875  0  1.002731  0  0  0.11995  0  1.064656  0  0  0.12131  0  1.067422  0  0  0.08665  0.118961  0  1.06279  0
H  H43  1  0.29621900  0.83431664  0.72101705  1  0  0.105865  0  1.002759  0  0  0.119948  0  1.064658  0  0  0.121309  0  1.067424  0  0  0.086658  0.118961  0  1.062791  0
H  H44  1  0.95175554  0.48595916  0.34390070  1  0  0.099011  0  0.962368  0  0  0.109667  0  1.032007  0  0  0.110543  0  1.032313  0  0  0.102803  0.108869  0  1.032055  0
H  H45  1  0.54824545  0.98596089  0.15609781  1  0  0.099022  0  0.962437  0  0  0.109689  0  1.032038  0  0  0.110566  0  1.032346  0  0  0.102817  0.10889  0  1.032088  0
H  H46  1  0.04824252  0.51404180  0.65609821  1  0  0.098986  0  0.962428  0  0  0.10968  0  1.032034  0  0  0.110556  0  1.03234  0  0  0.102792  0.108879  0  1.032084  0
H  H47  1  0.45175857  0.01403820  0.84390053  1  0  0.099034  0  0.96241  0  0  0.109718  0  1.032008  0  0  0.110595  0  1.032316  0  0  0.102813  0.108919  0  1.032058  0
H  H48  1  0.87302668  0.55753440  0.43816747  1  0  0.120548  0  0.934875  0  0  0.13179  0  0.999633  0  0  0.133344  0  0.999138  0  0  0.108831  0.13055  0  1.000193  0
H  H49  1  0.62697326  0.05753337  0.06183064  1  0  0.120531  0  0.934916  0  0  0.13178  0  0.999647  0  0  0.133335  0  0.999151  0  0  0.108821  0.130537  0  1.000208  0
H  H50  1  0.12697257  0.44246656  0.56183087  1  0  0.12053  0  0.934896  0  0  0.131795  0  0.999634  0  0  0.13335  0  0.999139  0  0  0.108828  0.130551  0  1.0002  0
H  H51  1  0.37302838  0.94246572  0.93816807  1  0  0.120544  0  0.934904  0  0  0.131802  0  0.999635  0  0  0.133353  0  0.999151  0  0  0.108828  0.130562  0  1.000195  0
C  C52  1  0.31883127  0.23799954  0.32307959  1  0  -0.472971  0  3.579882  0  0  -0.484241  0  3.836975  0  0  -0.495984  0  3.851724  0  0  -0.246876  -0.475752  0  3.827387  0
C  C53  1  0.18117238  0.73799356  0.17691926  1  0  -0.472916  0  3.579868  0  0  -0.484182  0  3.836916  0  0  -0.495929  0  3.851665  0  0  -0.246791  -0.475701  0  3.827349  0
C  C54  1  0.68116799  0.76199956  0.67692171  1  0  -0.472947  0  3.579899  0  0  -0.484222  0  3.837024  0  0  -0.495983  0  3.851794  0  0  -0.246886  -0.47571  0  3.82739  0
C  C55  1  0.81882926  0.26200554  0.82308019  1  0  -0.47293  0  3.579896  0  0  -0.484223  0  3.836973  0  0  -0.495969  0  3.851725  0  0  -0.246808  -0.475742  0  3.827408  0
C  C56  1  0.13582757  0.24088103  0.29572940  1  0  -0.127916  0  3.829817  0  0  -0.160651  0  4.066221  0  0  -0.160702  0  4.077527  0  0  -0.141528  -0.160819  0  4.059063  0
C  C57  1  0.36417488  0.74088216  0.20427001  1  0  -0.12796  0  3.83002  0  0  -0.160646  0  4.06637  0  0  -0.160713  0  4.077699  0  0  -0.141532  -0.160811  0  4.059213  0
C  C58  1  0.86417289  0.75911806  0.70427282  1  0  -0.127853  0  3.829723  0  0  -0.160625  0  4.066174  0  0  -0.160648  0  4.077438  0  0  -0.141523  -0.160806  0  4.059015  0
C  C59  1  0.63582557  0.25911786  0.79573073  1  0  -0.127969  0  3.829903  0  0  -0.160647  0  4.066267  0  0  -0.160696  0  4.077569  0  0  -0.141543  -0.160824  0  4.059104  0
C  C60  1  0.07128034  0.24162189  0.38530254  1  0  0.344609  0  3.658423  0  0  0.334928  0  3.936839  0  0  0.346569  0  3.952981  0  0  0.193888  0.3268  0  3.926759  0
C  C61  1  0.42872212  0.74161974  0.11469835  1  0  0.344631  0  3.658618  0  0  0.334948  0  3.937008  0  0  0.346594  0  3.953152  0  0  0.193902  0.326822  0  3.92693  0
C  C62  1  0.92872011  0.75838000  0.61469746  1  0  0.34458  0  3.658574  0  0  0.334917  0  3.936996  0  0  0.34655  0  3.953126  0  0  0.1939  0.326787  0  3.926927  0
C  C63  1  0.57128072  0.25837935  0.88530276  1  0  0.34462  0  3.658575  0  0  0.334944  0  3.936967  0  0  0.346585  0  3.953106  0  0  0.193863  0.326817  0  3.926892  0
C  C64  1  0.31735542  0.40611085  0.09095179  1  0  -0.449648  0  3.575367  0  0  -0.46146  0  3.835428  0  0  -0.472405  0  3.849861  0  0  -0.235899  -0.453404  0  3.825928  0
C  C65  1  0.18264532  0.90610852  0.40904774  1  0  -0.449572  0  3.575315  0  0  -0.461373  0  3.835406  0  0  -0.472317  0  3.849839  0  0  -0.235896  -0.453314  0  3.825904  0
C  C66  1  0.68263549  0.59388917  0.90905045  1  0  -0.449529  0  3.575297  0  0  -0.46136  0  3.835349  0  0  -0.472304  0  3.849783  0  0  -0.235843  -0.453316  0  3.825846  0
C  C67  1  0.81735513  0.09389151  0.59095301  1  0  -0.44953  0  3.575276  0  0  -0.461348  0  3.835332  0  0  -0.472292  0  3.849769  0  0  -0.235909  -0.453278  0  3.825837  0
C  C68  1  0.19298503  0.36968156  0.99448589  1  0  -0.135849  0  3.84942  0  0  -0.173882  0  4.090679  0  0  -0.173982  0  4.102376  0  0  -0.142493  -0.173769  0  4.082459  0
C  C69  1  0.30701138  0.86968304  0.50551589  1  0  -0.135924  0  3.849338  0  0  -0.173932  0  4.090598  0  0  -0.174034  0  4.102295  0  0  -0.142497  -0.173815  0  4.082374  0
C  C70  1  0.80701542  0.63031940  0.00551337  1  0  -0.135896  0  3.849486  0  0  -0.17391  0  4.090729  0  0  -0.174015  0  4.102428  0  0  -0.14251  -0.173788  0  4.082505  0
C  C71  1  0.69298788  0.13031792  0.49448468  1  0  -0.135902  0  3.849333  0  0  -0.173941  0  4.090637  0  0  -0.174045  0  4.102337  0  0  -0.142491  -0.17382  0  4.082401  0
C  C72  1  0.13892837  0.47703184  0.92963851  1  0  0.337133  0  3.662616  0  0  0.32957  0  3.943274  0  0  0.340629  0  3.959684  0  0  0.193626  0.32199  0  3.932344  0
C  C73  1  0.36106889  0.97703250  0.57036216  1  0  0.337236  0  3.662408  0  0  0.32969  0  3.943055  0  0  0.34075  0  3.959464  0  0  0.193698  0.322109  0  3.932128  0
C  C74  1  0.86106730  0.52296912  0.07035929  1  0  0.337116  0  3.662404  0  0  0.329554  0  3.943057  0  0  0.340615  0  3.95947  0  0  0.19365  0.32197  0  3.932125  0
C  C75  1  0.63893395  0.02296660  0.42963894  1  0  0.337221  0  3.662393  0  0  0.329677  0  3.943039  0  0  0.340738  0  3.95945  0  0  0.193689  0.322096  0  3.932109  0
C  C76  1  0.85195183  0.67272630  0.30255383  1  0  -0.447582  0  3.567572  0  0  -0.457637  0  3.821575  0  0  -0.468791  0  3.836991  0  0  -0.233577  -0.449865  0  3.810741  0
C  C77  1  0.64805014  0.17272757  0.19744485  1  0  -0.447524  0  3.567627  0  0  -0.457581  0  3.821564  0  0  -0.468737  0  3.836987  0  0  -0.233584  -0.44981  0  3.810725  0
C  C78  1  0.14804742  0.32727560  0.69744525  1  0  -0.447535  0  3.567679  0  0  -0.457692  0  3.821664  0  0  -0.46884  0  3.837078  0  0  -0.23356  -0.449919  0  3.810824  0
C  C79  1  0.35194911  0.82727246  0.80255276  1  0  -0.447615  0  3.567634  0  0  -0.457653  0  3.821598  0  0  -0.468808  0  3.837019  0  0  -0.233608  -0.449881  0  3.810764  0
C  C80  1  0.85435078  0.54613119  0.35547685  1  0  -0.140407  0  3.835777  0  0  -0.171108  0  4.069962  0  0  -0.172101  0  4.081327  0  0  -0.139671  -0.17023  0  4.062255  0
C  C81  1  0.64564920  0.04613042  0.14452198  1  0  -0.140493  0  3.835908  0  0  -0.171155  0  4.069994  0  0  -0.17215  0  4.08136  0  0  -0.139685  -0.170269  0  4.062275  0
C  C82  1  0.14564848  0.45387070  0.64452224  1  0  -0.140367  0  3.835865  0  0  -0.171135  0  4.070098  0  0  -0.17213  0  4.081463  0  0  -0.139663  -0.170251  0  4.062375  0
C  C83  1  0.35435244  0.95386868  0.85547747  1  0  -0.140489  0  3.835896  0  0  -0.171211  0  4.070056  0  0  -0.172209  0  4.081422  0  0  -0.139689  -0.170332  0  4.06235  0
C  C84  1  0.70734705  0.47792082  0.31805004  1  0  0.404518  0  3.615846  0  0  0.382523  0  3.893405  0  0  0.397487  0  3.907102  0  0  0.22739  0.372354  0  3.884059  0
C  C85  1  0.79265278  0.97791832  0.18194901  1  0  0.404623  0  3.615765  0  0  0.382609  0  3.893325  0  0  0.397573  0  3.90702  0  0  0.227439  0.372441  0  3.88398  0
C  C86  1  0.29265102  0.52208200  0.68194960  1  0  0.404506  0  3.615859  0  0  0.382517  0  3.893437  0  0  0.397481  0  3.907135  0  0  0.227404  0.372348  0  3.88409  0
C  C87  1  0.20734886  0.02208171  0.81804970  1  0  0.4046  0  3.615756  0  0  0.382606  0  3.893328  0  0  0.39757  0  3.907025  0  0  0.227437  0.372439  0  3.883984  0
Br  Br88  1  0.23018774  0.06805646  0.09136688  1  0  -0.463369  0  0.903856  0  0  -0.408978  0  1.156103  0  0  -0.422786  0  1.142547  0  0  -0.171475  -0.398385  0  1.165673  0
Br  Br89  1  0.26981286  0.56805018  0.40862965  1  0  -0.463323  0  0.903887  0  0  -0.408934  0  1.156093  0  0  -0.422742  0  1.142531  0  0  -0.171446  -0.398342  0  1.165665  0
Br  Br90  1  0.76981510  0.93193983  0.90863276  1  0  -0.463369  0  0.903874  0  0  -0.409  0  1.156143  0  0  -0.422809  0  1.142583  0  0  -0.171474  -0.398409  0  1.165715  0
Br  Br91  1  0.73018043  0.43194705  0.59136853  1  0  -0.463334  0  0.903891  0  0  -0.408952  0  1.156109  0  0  -0.422762  0  1.14255  0  0  -0.171443  -0.398363  0  1.165681  0
N  N92  1  0.02122943  0.24353612  0.45789681  1  0  -0.450209  0  2.631619  0  0  -0.42094  0  2.862165  0  0  -0.433856  0  2.875342  0  0  -0.310549  -0.412069  0  2.853725  0
N  N93  1  0.47877303  0.74353545  0.04210483  1  0  -0.450212  0  2.631699  0  0  -0.420939  0  2.862235  0  0  -0.433854  0  2.875409  0  0  -0.310562  -0.412068  0  2.853796  0
N  N94  1  0.97876746  0.75646577  0.54210708  1  0  -0.450174  0  2.631837  0  0  -0.420911  0  2.862375  0  0  -0.433825  0  2.875551  0  0  -0.310568  -0.412041  0  2.853939  0
N  N95  1  0.52123101  0.25646737  0.95789794  1  0  -0.450217  0  2.631635  0  0  -0.420949  0  2.862177  0  0  -0.433865  0  2.875352  0  0  -0.31053  -0.412078  0  2.853737  0
N  N96  1  0.09652585  0.56373533  0.87810449  1  0  -0.4421  0  2.587807  0  0  -0.412418  0  2.803073  0  0  -0.424594  0  2.815723  0  0  -0.313869  -0.404321  0  2.794688  0
N  N97  1  0.40347031  0.06373757  0.62189435  1  0  -0.442185  0  2.587617  0  0  -0.412507  0  2.802891  0  0  -0.424682  0  2.815536  0  0  -0.313944  -0.404421  0  2.794524  0
N  N98  1  0.90347340  0.43626283  0.12189386  1  0  -0.442103  0  2.587486  0  0  -0.412415  0  2.802754  0  0  -0.424591  0  2.815402  0  0  -0.313904  -0.404319  0  2.79437  0
N  N99  1  0.59652894  0.93626153  0.37810474  1  0  -0.442195  0  2.587589  0  0  -0.412514  0  2.802853  0  0  -0.42469  0  2.815499  0  0  -0.31394  -0.404425  0  2.794478  0
N  N100  1  0.58944247  0.42401255  0.28421274  1  0  -0.462644  0  2.753406  0  0  -0.416008  0  3.007589  0  0  -0.432334  0  3.01961  0  0  -0.294157  -0.404927  0  2.999276  0
N  N101  1  0.91055633  0.92400988  0.21578530  1  0  -0.462735  0  2.75335  0  0  -0.416123  0  3.007559  0  0  -0.432447  0  3.019576  0  0  -0.294225  -0.405041  0  2.999248  0
N  N102  1  0.41055678  0.57598841  0.71578709  1  0  -0.462638  0  2.75343  0  0  -0.416012  0  3.007618  0  0  -0.432337  0  3.019637  0  0  -0.294174  -0.404933  0  2.999309  0
N  N103  1  0.08944531  0.07599015  0.78421268  1  0  -0.462706  0  2.753346  0  0  -0.416101  0  3.007551  0  0  -0.432426  0  3.019569  0  0  -0.294213  -0.40502  0  2.999241  0
