# generated using pymatgen
data_Al2H13C24NO14
_symmetry_space_group_name_H-M   'P 1'
_cell_length_a   6.77938202
_cell_length_b   11.16031921
_cell_length_c   17.82362523
_cell_angle_alpha   81.25909482
_cell_angle_beta   77.52494621
_cell_angle_gamma   71.68436161
_symmetry_Int_Tables_number   1
_chemical_formula_structural   Al2H13C24NO14
_chemical_formula_sum   'Al2 H13 C24 N1 O14'
_cell_volume   1244.84013115
_cell_formula_units_Z   1
loop_
 _symmetry_equiv_pos_site_id
 _symmetry_equiv_pos_as_xyz
  1  'x, y, z'
loop_
 _atom_site_type_symbol
 _atom_site_label
 _atom_site_symmetry_multiplicity
 _atom_site_fract_x
 _atom_site_fract_y
 _atom_site_fract_z
 _atom_site_occupancy
 _atom_site_pbe_bader_charge
 _atom_site_pbe_bader_spin_density
 _atom_site_pbe_cm5_charge
 _atom_site_pbe_ddec_charge
 _atom_site_pbe_ddec_spin_density
 _atom_site_pbe_ddec_sum_bond_order
 _atom_site_pbe_magmom
Al  Al0  1  0.50392212  0.49694933  0.49784760  1  2.506996  0  0.4018  1.641692  0  2.568283  0
Al  Al1  1  0.00718132  0.49437324  0.49676851  1  2.506649  0  0.402173  1.644413  0  2.556919  0
H  H2  1  0.21192273  0.64351418  0.44157045  1  0.641288  0  0.336156  0.415636  0  0.892441  0
H  H3  1  0.75365905  0.40180362  0.58592428  1  0.623072  0  0.346786  0.423165  0  0.864922  0
H  H4  1  0.12882206  0.11817900  0.52898636  1  0.113418  0  0.113545  0.119638  0  0.992347  0
H  H5  1  0.78151045  0.11072828  0.47599307  1  0.10887  0  0.123836  0.139866  0  0.982872  0
H  H6  1  0.24076193  0.87896911  0.53563758  1  0.167242  0  0.109784  0.106942  0  1.09335  0
H  H7  1  0.54974610  0.50516092  0.27622307  1  0.09609  0  0.112042  0.121808  0  1.001885  0
H  H8  1  0.59842186  0.50765240  0.13302766  1  0.114293  0  0.100372  0.111163  0  1.041402  0
H  H9  1  0.20449627  0.48099472  0.25818680  1  0.108583  0  0.117503  0.141123  0  0.989194  0
H  H10  1  0.80174421  0.51073919  0.73707547  1  0.103726  0  0.113835  0.135028  0  0.9958  0
H  H11  1  0.44853000  0.50266478  0.72135039  1  0.093668  0  0.106745  0.112164  0  1.0118  0
H  H12  1  0.39253079  0.50621512  0.86388892  1  0.138121  0  0.100027  0.110945  0  1.043106  0
H  H13  1  0.28377035  0.48672346  0.05278862  1  0.618568  0  0.317366  0.345226  0  0.92223  0
H  H14  1  0.71254767  0.51373054  0.94199870  1  0.593948  0  0.318886  0.348322  0  0.917545  0
C  C15  1  0.83809236  0.49491578  0.36038947  1  1.561192  0  0.272108  0.645628  0  4.076288  0
C  C16  1  0.63060786  0.72142088  0.50361566  1  1.595255  0  0.273632  0.650823  0  4.081593  0
C  C17  1  0.17091385  0.49683323  0.63608564  1  1.561231  0  0.268095  0.646283  0  4.077539  0
C  C18  1  0.38094693  0.27013291  0.49535221  1  1.614688  0  0.272734  0.638718  0  4.097394  0
C  C19  1  0.56812152  0.86193177  0.50751974  1  0.000536  0  -0.000187  -0.077088  0  3.924461  0
C  C20  1  0.44762331  0.12853053  0.49926613  1  -0.107675  0  0.000499  -0.010257  0  3.9536  0
C  C21  1  0.71727421  0.92930158  0.49369431  1  0.057775  0  0.090636  0.063538  0  3.963129  0
C  C22  1  0.29481888  0.06355621  0.51774725  1  0.025937  0  -0.071944  -0.08494  0  3.938773  0
C  C23  1  0.66228833  0.06052864  0.48787439  1  0.178782  0  -0.071418  -0.149917  0  3.934053  0
C  C24  1  0.35544614  0.93205743  0.52128883  1  0.029269  0  -0.074723  -0.065963  0  3.951161  0
C  C25  1  0.87340614  0.49356750  0.27494197  1  -0.022989  0  -0.008866  -0.01944  0  3.990091  0
C  C26  1  0.70269033  0.50071965  0.23986013  1  0.018309  0  -0.089388  -0.114969  0  3.996127  0
C  C27  1  0.72999655  0.50272467  0.16043485  1  -0.052956  0  -0.08507  -0.10394  0  3.973069  0
C  C28  1  0.92897202  0.49827920  0.11437880  1  0.174841  0  -0.018158  0.007671  0  4.135711  0
C  C29  1  0.10101486  0.48987899  0.15048434  1  0.439277  0  0.091758  0.276017  0  4.039483  0
C  C30  1  0.07295931  0.48728673  0.23038327  1  0.057084  0  -0.088466  -0.207446  0  3.928965  0
C  C31  1  0.96732984  0.50231071  0.03314165  1  -0.208754  0  -0.039538  -0.104927  0  4.154177  0
C  C32  1  0.02451446  0.50591639  0.96281374  1  -0.269024  0  -0.043745  -0.114615  0  4.156936  0
C  C33  1  0.06571541  0.50795456  0.88162863  1  0.096285  0  -0.016402  0.012467  0  4.135454  0
C  C34  1  0.89798748  0.51045925  0.84490312  1  0.459118  0  0.090228  0.273527  0  4.041008  0
C  C35  1  0.93033822  0.50902802  0.76516792  1  -0.009441  0  -0.090816  -0.207201  0  3.93236  0
C  C36  1  0.12996818  0.50453088  0.72116882  1  0.012134  0  -0.011492  -0.019759  0  3.986169  0
C  C37  1  0.29561651  0.50439096  0.75692020  1  0.028818  0  -0.091504  -0.113703  0  4.005643  0
C  C38  1  0.26421282  0.50632294  0.83618104  1  -0.094036  0  -0.085712  -0.104828  0  3.973104  0
N  N39  1  0.94063631  0.85938215  0.49282166  1  0.419551  0  0.0611  0.51935  0  4.224036  0
O  O40  1  0.64725047  0.51416396  0.39539048  1  -1.264276  0  -0.23283  -0.5925  0  2.364026  0
O  O41  1  0.82816697  0.66573646  0.48910228  1  -1.254813  0  -0.233469  -0.605934  0  2.414032  0
O  O42  1  0.01510671  0.50571405  0.60408881  1  -1.251075  0  -0.238642  -0.598435  0  2.328501  0
O  O43  1  0.52498450  0.32429528  0.48552530  1  -1.249971  0  -0.228445  -0.572689  0  2.327028  0
O  O44  1  0.36296465  0.47883367  0.60216402  1  -1.268946  0  -0.238658  -0.609207  0  2.362517  0
O  O45  1  0.18307125  0.32426904  0.50381992  1  -1.259009  0  -0.228252  -0.585162  0  2.363719  0
O  O46  1  0.99713493  0.47901685  0.39201777  1  -1.248018  0  -0.232152  -0.579537  0  2.315879  0
O  O47  1  0.48352173  0.67032799  0.51210986  1  -1.245516  0  -0.225495  -0.572448  0  2.349366  0
O  O48  1  0.24338094  0.55576713  0.46375016  1  -1.448351  0  -0.451115  -0.987301  0  2.157541  0
O  O49  1  0.76504644  0.43801806  0.53275920  1  -1.430239  0  -0.450181  -0.986032  0  2.164524  0
O  O50  1  0.98754582  0.81881815  0.55719151  1  -0.4373  0  -0.09564  -0.283489  0  1.947985  0
O  O51  1  0.06542409  0.84979326  0.43049448  1  -0.467724  0  -0.113139  -0.316546  0  1.899758  0
O  O52  1  0.29544438  0.48446370  0.10696449  1  -1.14867  0  -0.343371  -0.431389  0  2.296951  0
O  O53  1  0.70382235  0.51337026  0.88776412  1  -1.125832  0  -0.342827  -0.431497  0  2.30018  0
