# generated using pymatgen
data_Na3ErH10C14(NO4)4
_symmetry_space_group_name_H-M   'P 1'
_cell_length_a   8.74752890
_cell_length_b   9.03974558
_cell_length_c   14.92841616
_cell_angle_alpha   100.11540939
_cell_angle_beta   105.18494870
_cell_angle_gamma   94.70601468
_symmetry_Int_Tables_number   1
_chemical_formula_structural   Na3ErH10C14(NO4)4
_chemical_formula_sum   'Na6 Er2 H20 C28 N8 O32'
_cell_volume   1111.31396887
_cell_formula_units_Z   2
loop_
 _symmetry_equiv_pos_site_id
 _symmetry_equiv_pos_as_xyz
  1  'x, y, z'
loop_
 _atom_site_type_symbol
 _atom_site_label
 _atom_site_symmetry_multiplicity
 _atom_site_fract_x
 _atom_site_fract_y
 _atom_site_fract_z
 _atom_site_occupancy
 _atom_site_hle17_bader_spin_density
 _atom_site_hle17_ddec_charge
 _atom_site_hle17_ddec_spin_density
 _atom_site_hle17_ddec_sum_bond_order
 _atom_site_hle17_magmom
 _atom_site_hse06_10hf_bader_spin_density
 _atom_site_hse06_10hf_ddec_charge
 _atom_site_hse06_10hf_ddec_spin_density
 _atom_site_hse06_10hf_ddec_sum_bond_order
 _atom_site_hse06_10hf_magmom
 _atom_site_hse06_bader_spin_density
 _atom_site_hse06_ddec_charge
 _atom_site_hse06_ddec_spin_density
 _atom_site_hse06_ddec_sum_bond_order
 _atom_site_hse06_magmom
 _atom_site_pbe_bader_spin_density
 _atom_site_pbe_cm5_charge
 _atom_site_pbe_ddec_charge
 _atom_site_pbe_ddec_spin_density
 _atom_site_pbe_ddec_sum_bond_order
 _atom_site_pbe_magmom
Na  Na0  1  0.73806516  0.39362381  0.24468760  1  0  0.911905  0  0.403072  0  0  0.877655  0  0.553957  0  0  0.886771  0  0.532104  0  0  0.717437  0.870787  0  0.569744  0
Na  Na1  1  0.26195432  0.60635275  0.75531567  1  0  0.91192  0  0.402977  0  0  0.877628  0  0.553937  0  0  0.886794  0  0.532001  0  0  0.717381  0.870759  0  0.569723  0
Na  Na2  1  0.61540605  0.03231162  0.16382135  1  0  0.920266  0  0.335536  0  0  0.881401  0  0.473155  0  0  0.891801  0  0.451587  0  0  0.669202  0.873544  0  0.488815  0
Na  Na3  1  0.38458987  0.96769092  0.83617863  1  0  0.92026  0  0.335526  0  0  0.881386  0  0.473153  0  0  0.891788  0  0.45158  0  0  0.669162  0.873529  0  0.488815  0
Na  Na4  1  0.93477895  0.11858289  0.35932763  1  0  0.899336  0  0.395556  0  0  0.857333  0  0.549307  0  0  0.868283  0  0.526253  0  0  0.693168  0.849222  0  0.565894  0
Na  Na5  1  0.06522187  0.88142080  0.64067326  1  0  0.899342  0  0.395645  0  0  0.857375  0  0.549376  0  0  0.868319  0  0.526325  0  0  0.693251  0.849264  0  0.565962  0
Er  Er6  1  0.23177477  0.88326459  0.23455838  1  0  2.195078  0  1.756315  0  0  2.024773  0  2.26709  0  0  2.076723  0  2.224716  0  0  1.55689  1.984842  0  2.301019  0
Er  Er7  1  0.76821197  0.11674024  0.76544168  1  0  2.19513  0  1.756314  0  0  2.024764  0  2.267216  0  0  2.076714  0  2.22484  0  0  1.557015  1.984833  0  2.301155  0
H  H8  1  0.42800500  0.18270410  0.05437971  1  0  0.414114  0  0.885223  0  0  0.385804  0  0.945538  0  0  0.395993  0  0.930401  0  0  0.291151  0.378526  0  0.956348  0
H  H9  1  0.57198710  0.81729744  0.94562493  1  0  0.414243  0  0.885054  0  0  0.385923  0  0.945384  0  0  0.396119  0  0.930236  0  0  0.291174  0.378647  0  0.956189  0
H  H10  1  0.46788046  0.33126610  0.13454839  1  0  0.418096  0  0.879438  0  0  0.390349  0  0.939662  0  0  0.400047  0  0.925001  0  0  0.292166  0.383417  0  0.950144  0
H  H11  1  0.53212416  0.66873863  0.86544919  1  0  0.418073  0  0.879476  0  0  0.390317  0  0.939726  0  0  0.400018  0  0.925061  0  0  0.292133  0.383395  0  0.950203  0
H  H12  1  0.73683017  0.87909865  0.32686408  1  0  0.432408  0  0.857937  0  0  0.407473  0  0.911851  0  0  0.416018  0  0.899188  0  0  0.306259  0.4014  0  0.920879  0
H  H13  1  0.26316860  0.12089947  0.67313995  1  0  0.432495  0  0.857837  0  0  0.407542  0  0.91179  0  0  0.416087  0  0.899126  0  0  0.306254  0.401468  0  0.920819  0
H  H14  1  0.84319395  0.81695547  0.26163235  1  0  0.430616  0  0.861325  0  0  0.404634  0  0.916506  0  0  0.413843  0  0.902883  0  0  0.305772  0.398135  0  0.926128  0
H  H15  1  0.15680563  0.18304829  0.73837169  1  0  0.430746  0  0.861157  0  0  0.404783  0  0.916297  0  0  0.41399  0  0.902677  0  0  0.305864  0.398286  0  0.925916  0
H  H16  1  0.05284772  0.35340839  0.54163414  1  0  0.425213  0  0.876785  0  0  0.399766  0  0.93068  0  0  0.409656  0  0.916239  0  0  0.2852  0.392783  0  0.940868  0
H  H17  1  0.94716724  0.64659542  0.45837305  1  0  0.425194  0  0.876815  0  0  0.399748  0  0.930706  0  0  0.409638  0  0.916264  0  0  0.285164  0.392765  0  0.940893  0
H  H18  1  0.14721880  0.21923480  0.51290273  1  0  0.400539  0  0.9087  0  0  0.37011  0  0.97382  0  0  0.380773  0  0.957965  0  0  0.280526  0.362557  0  0.985039  0
H  H19  1  0.85279380  0.78077550  0.48709265  1  0  0.400599  0  0.90862  0  0  0.370178  0  0.973726  0  0  0.380841  0  0.957872  0  0  0.280562  0.362625  0  0.984946  0
H  H20  1  0.06368627  0.47075421  0.38003350  1  0  0.438785  0  0.813786  0  0  0.417924  0  0.871797  0  0  0.42604  0  0.859956  0  0  0.326146  0.41211  0  0.879825  0
H  H21  1  0.93633203  0.52924721  0.61996864  1  0  0.438795  0  0.813853  0  0  0.417943  0  0.871775  0  0  0.426058  0  0.859936  0  0  0.326145  0.412128  0  0.879855  0
H  H22  1  0.01671598  0.59555200  0.31635928  1  0  0.431718  0  0.862717  0  0  0.396658  0  0.932557  0  0  0.407702  0  0.916292  0  0  0.298397  0.388831  0  0.944069  0
H  H23  1  0.98330993  0.40445281  0.68364374  1  0  0.431815  0  0.862592  0  0  0.396737  0  0.932465  0  0  0.407784  0  0.916197  0  0  0.298455  0.388905  0  0.943989  0
H  H24  1  0.62214502  0.54369479  0.43386168  1  0  0.097319  0  0.934148  0  0  0.100244  0  1.002373  0  0  0.104668  0  0.997791  0  0  0.128268  0.0969  0  1.006004  0
H  H25  1  0.37785548  0.45631315  0.56612818  1  0  0.097369  0  0.934075  0  0  0.100321  0  1.002273  0  0  0.104763  0  0.997696  0  0  0.128269  0.096974  0  1.005902  0
H  H26  1  0.25950023  0.47675640  0.04792332  1  0  0.122301  0  0.908363  0  0  0.127189  0  0.9681  0  0  0.132065  0  0.963552  0  0  0.135568  0.123534  0  0.971633  0
H  H27  1  0.74048070  0.52325881  0.95208419  1  0  0.122388  0  0.908549  0  0  0.127241  0  0.968309  0  0  0.132126  0  0.963768  0  0  0.135614  0.123585  0  0.971842  0
C  C28  1  0.44705856  0.67179404  0.36220649  1  0  0.064428  0  3.715635  0  0  0.069706  0  3.960108  0  0  0.069109  0  3.974581  0  0  0.125892  0.069469  0  3.950697  0
C  C29  1  0.55292112  0.32819502  0.63779561  1  0  0.064294  0  3.715677  0  0  0.069734  0  3.960026  0  0  0.06914  0  3.974497  0  0  0.125938  0.069494  0  3.95062  0
C  C30  1  0.54199179  0.62794081  0.44171543  1  0  0.113538  0  3.649795  0  0  0.075708  0  3.920218  0  0  0.081791  0  3.930938  0  0  0.076342  0.071602  0  3.913407  0
C  C31  1  0.45799762  0.37204928  0.55828365  1  0  0.113464  0  3.6499  0  0  0.075601  0  3.920225  0  0  0.081656  0  3.930969  0  0  0.07634  0.071503  0  3.913408  0
C  C32  1  0.44116122  0.79352546  0.53997578  1  0  0.081987  0  3.642184  0  0  0.081601  0  3.891972  0  0  0.084662  0  3.904477  0  0  0.14425  0.079175  0  3.884139  0
C  C33  1  0.55883947  0.20646921  0.46002622  1  0  0.082415  0  3.642015  0  0  0.081828  0  3.891948  0  0  0.084893  0  3.904454  0  0  0.144444  0.079392  0  3.884115  0
C  C34  1  0.34871297  0.84267225  0.46105108  1  0  0.05219  0  3.697833  0  0  0.048304  0  3.94628  0  0  0.046105  0  3.963262  0  0  0.123754  0.04916  0  3.935411  0
C  C35  1  0.65129820  0.15733838  0.53895683  1  0  0.051914  0  3.698241  0  0  0.048122  0  3.946625  0  0  0.045924  0  3.963604  0  0  0.12371  0.049006  0  3.935716  0
C  C36  1  0.43876201  0.60829942  0.25984548  1  0  0.667675  0  3.929424  0  0  0.616853  0  4.233631  0  0  0.650984  0  4.222572  0  0  0.226166  0.593794  0  4.240371  0
C  C37  1  0.56122913  0.39172020  0.74015873  1  0  0.66823  0  3.929206  0  0  0.617263  0  4.233586  0  0  0.651394  0  4.222516  0  0  0.226354  0.594205  0  4.240331  0
C  C38  1  0.43399738  0.85101193  0.63991331  1  0  0.713576  0  3.908664  0  0  0.663076  0  4.207774  0  0  0.698207  0  4.193979  0  0  0.237  0.638968  0  4.216481  0
C  C39  1  0.56600626  0.14898602  0.36008480  1  0  0.713523  0  3.908533  0  0  0.663177  0  4.20744  0  0  0.698294  0  4.193671  0  0  0.236976  0.639072  0  4.216155  0
C  C40  1  0.24121706  0.96583529  0.46207791  1  0  0.657527  0  3.912955  0  0  0.605733  0  4.218283  0  0  0.639102  0  4.209535  0  0  0.222743  0.583177  0  4.223608  0
C  C41  1  0.75878657  0.03418104  0.53793134  1  0  0.657554  0  3.912887  0  0  0.605818  0  4.21812  0  0  0.639183  0  4.209368  0  0  0.222717  0.583254  0  4.223452  0
C  C42  1  0.01024507  0.22571566  0.09140111  1  0  0.08931  0  3.640448  0  0  0.089032  0  3.889345  0  0  0.091666  0  3.902206  0  0  0.151193  0.086848  0  3.881447  0
C  C43  1  0.98975293  0.77428459  0.90859765  1  0  0.089174  0  3.640566  0  0  0.088938  0  3.889443  0  0  0.091555  0  3.902332  0  0  0.151102  0.086757  0  3.881547  0
C  C44  1  0.90350170  0.17425100  0.00047479  1  0  0.071846  0  3.664756  0  0  0.068234  0  3.90901  0  0  0.066273  0  3.925822  0  0  0.137062  0.069008  0  3.898157  0
C  C45  1  0.09648183  0.82575606  0.99952364  1  0  0.071843  0  3.664797  0  0  0.068194  0  3.909002  0  0  0.066237  0  3.925811  0  0  0.137047  0.068968  0  3.898147  0
C  C46  1  0.06177994  0.32747987  0.94159745  1  0  0.073728  0  3.729612  0  0  0.076775  0  3.978089  0  0  0.075339  0  3.995102  0  0  0.129483  0.077211  0  3.966766  0
C  C47  1  0.93821866  0.67250794  0.05840154  1  0  0.073724  0  3.729561  0  0  0.076842  0  3.977905  0  0  0.075409  0  3.994918  0  0  0.129542  0.077271  0  3.966587  0
C  C48  1  0.16012693  0.38646220  0.03377860  1  0  0.101041  0  3.612726  0  0  0.067486  0  3.87729  0  0  0.07217  0  3.889831  0  0  0.076668  0.064474  0  3.869092  0
C  C49  1  0.83987869  0.61351654  0.96621997  1  0  0.1009  0  3.613046  0  0  0.067321  0  3.877655  0  0  0.071991  0  3.890201  0  0  0.076509  0.064314  0  3.869452  0
C  C50  1  0.99407227  0.16271132  0.17596583  1  0  0.725595  0  3.90153  0  0  0.675988  0  4.19812  0  0  0.711579  0  4.182991  0  0  0.240651  0.651477  0  4.2079  0
C  C51  1  0.00590616  0.83731841  0.82403397  1  0  0.725792  0  3.900767  0  0  0.676076  0  4.197538  0  0  0.711678  0  4.182397  0  0  0.240672  0.651552  0  4.207342  0
C  C52  1  0.75200479  0.06235448  0.97326733  1  0  0.675293  0  3.894346  0  0  0.626048  0  4.193238  0  0  0.659554  0  4.184414  0  0  0.228942  0.603401  0  4.198492  0
C  C53  1  0.24799246  0.93764138  0.02673691  1  0  0.67527  0  3.894076  0  0  0.626195  0  4.192712  0  0  0.659707  0  4.18388  0  0  0.229023  0.603547  0  4.197967  0
C  C54  1  0.08742917  0.37154545  0.85365085  1  0  0.642617  0  3.911946  0  0  0.593346  0  4.209821  0  0  0.625565  0  4.201581  0  0  0.223159  0.5715  0  4.21482  0
C  C55  1  0.91255352  0.62843897  0.14634660  1  0  0.642752  0  3.911725  0  0  0.593576  0  4.209402  0  0  0.6258  0  4.201151  0  0  0.223332  0.571731  0  4.214409  0
N  N56  1  0.35417826  0.77934823  0.37413986  1  0  -0.387043  0  3.367165  0  0  -0.343788  0  3.623199  0  0  -0.351956  0  3.64143  0  0  -0.376188  -0.337598  0  3.610893  0
N  N57  1  0.64580692  0.22064656  0.62586569  1  0  -0.38708  0  3.367551  0  0  -0.343909  0  3.623564  0  0  -0.352074  0  3.641791  0  0  -0.37627  -0.337728  0  3.611258  0
N  N58  1  0.53869804  0.68807333  0.52959972  1  0  -0.24614  0  2.991885  0  0  -0.224001  0  3.261538  0  0  -0.230314  0  3.271546  0  0  -0.282507  -0.219705  0  3.255046  0
N  N59  1  0.46128735  0.31190550  0.47040097  1  0  -0.246297  0  2.992032  0  0  -0.224145  0  3.261783  0  0  -0.230456  0  3.271796  0  0  -0.282675  -0.21985  0  3.255294  0
N  N60  1  0.93435259  0.22540034  0.92744571  1  0  -0.371674  0  3.343112  0  0  -0.330599  0  3.602011  0  0  -0.339096  0  3.620854  0  0  -0.371934  -0.324204  0  3.58921  0
N  N61  1  0.06565792  0.77458741  0.07255184  1  0  -0.371594  0  3.342898  0  0  -0.330556  0  3.601766  0  0  -0.339055  0  3.620606  0  0  -0.371905  -0.324161  0  3.588966  0
N  N62  1  0.13537709  0.33379915  0.10785394  1  0  -0.239267  0  2.974554  0  0  -0.220277  0  3.243967  0  0  -0.225872  0  3.254573  0  0  -0.281736  -0.216654  0  3.237178  0
N  N63  1  0.86464084  0.66616467  0.89213713  1  0  -0.239134  0  2.974563  0  0  -0.220132  0  3.243956  0  0  -0.22572  0  3.25457  0  0  -0.281595  -0.216509  0  3.237159  0
O  O64  1  0.35453900  0.67531280  0.19941752  1  0  -0.718601  0  2.018889  0  0  -0.67594  0  2.277254  0  0  -0.701126  0  2.266269  0  0  -0.397261  -0.657912  0  2.284125  0
O  O65  1  0.64546702  0.32470216  0.80058261  1  0  -0.718898  0  2.018717  0  0  -0.676172  0  2.277122  0  0  -0.70137  0  2.266153  0  0  -0.397351  -0.658137  0  2.283984  0
O  O66  1  0.51176638  0.49819706  0.24287058  1  0  -0.646955  0  1.963728  0  0  -0.604016  0  2.197959  0  0  -0.626167  0  2.184704  0  0  -0.378166  -0.588594  0  2.206736  0
O  O67  1  0.48825806  0.50182245  0.75713229  1  0  -0.647024  0  1.964145  0  0  -0.60405  0  2.198478  0  0  -0.626205  0  2.185216  0  0  -0.378225  -0.588628  0  2.207266  0
O  O68  1  0.54110648  0.95703717  0.69207339  1  0  -0.74635  0  2.07289  0  0  -0.693874  0  2.337796  0  0  -0.721859  0  2.326525  0  0  -0.408597  -0.673269  0  2.344546  0
O  O69  1  0.45891037  0.04294489  0.30792329  1  0  -0.746298  0  2.072676  0  0  -0.693863  0  2.337496  0  0  -0.721845  0  2.326233  0  0  -0.408441  -0.673246  0  2.344217  0
O  O70  1  0.32247278  0.78847549  0.66467637  1  0  -0.715576  0  1.941648  0  0  -0.678905  0  2.186251  0  0  -0.701569  0  2.171743  0  0  -0.413166  -0.662523  0  2.195668  0
O  O71  1  0.67750654  0.21151654  0.33530854  1  0  -0.715665  0  1.94186  0  0  -0.679045  0  2.186406  0  0  -0.701689  0  2.171899  0  0  -0.413308  -0.662667  0  2.195828  0
O  O72  1  0.23461405  0.04184947  0.54028763  1  0  -0.650152  0  1.96796  0  0  -0.595875  0  2.191603  0  0  -0.62036  0  2.182266  0  0  -0.310193  -0.578943  0  2.197747  0
O  O73  1  0.76539395  0.95816331  0.45971596  1  0  -0.650079  0  1.967742  0  0  -0.595831  0  2.191313  0  0  -0.620332  0  2.18202  0  0  -0.310153  -0.578899  0  2.197463  0
O  O74  1  0.16468068  0.98456389  0.38023652  1  0  -0.746501  0  2.034717  0  0  -0.69789  0  2.29144  0  0  -0.720715  0  2.279029  0  0  -0.410404  -0.681763  0  2.299526  0
O  O75  1  0.83531790  0.01545016  0.61977171  1  0  -0.746516  0  2.034628  0  0  -0.697928  0  2.291317  0  0  -0.720753  0  2.27891  0  0  -0.410417  -0.681801  0  2.299411  0
O  O76  1  0.08160570  0.06178732  0.19734169  1  0  -0.751325  0  2.08605  0  0  -0.699464  0  2.352725  0  0  -0.727805  0  2.340935  0  0  -0.416049  -0.678599  0  2.359921  0
O  O77  1  0.91839129  0.93821921  0.80263674  1  0  -0.751335  0  2.086616  0  0  -0.6994  0  2.353301  0  0  -0.727728  0  2.341483  0  0  -0.416003  -0.678541  0  2.360515  0
O  O78  1  0.90111396  0.21497021  0.22091305  1  0  -0.736663  0  1.991345  0  0  -0.700682  0  2.242332  0  0  -0.723517  0  2.227443  0  0  -0.452735  -0.684191  0  2.252086  0
O  O79  1  0.09888010  0.78503436  0.77907745  1  0  -0.736841  0  1.989949  0  0  -0.700853  0  2.241056  0  0  -0.723717  0  2.226167  0  0  -0.452823  -0.684347  0  2.250813  0
O  O80  1  0.72245728  0.98690882  0.03154640  1  0  -0.64465  0  1.896402  0  0  -0.596075  0  2.113545  0  0  -0.619809  0  2.104266  0  0  -0.351497  -0.579556  0  2.119566  0
O  O81  1  0.27755209  0.01307888  0.96844895  1  0  -0.644669  0  1.896122  0  0  -0.596148  0  2.113195  0  0  -0.619873  0  2.103883  0  0  -0.351569  -0.579627  0  2.119217  0
O  O82  1  0.66512070  0.05284954  0.88841113  1  0  -0.764002  0  2.061112  0  0  -0.712136  0  2.313274  0  0  -0.736045  0  2.300323  0  0  -0.426645  -0.695076  0  2.321552  0
O  O83  1  0.33489242  0.94714844  0.11158850  1  0  -0.763967  0  2.061094  0  0  -0.71217  0  2.313174  0  0  -0.736083  0  2.30022  0  0  -0.426632  -0.695113  0  2.321451  0
O  O84  1  0.99233087  0.29051201  0.77358677  1  0  -0.779132  0  2.047422  0  0  -0.712945  0  2.287108  0  0  -0.740313  0  2.276216  0  0  -0.382945  -0.693352  0  2.293959  0
O  O85  1  0.00764283  0.70948497  0.22641446  1  0  -0.779247  0  2.047213  0  0  -0.713111  0  2.286853  0  0  -0.740477  0  2.275955  0  0  -0.382983  -0.69352  0  2.293707  0
O  O86  1  0.19343832  0.47593498  0.86094615  1  0  -0.589079  0  1.928456  0  0  -0.55348  0  2.151516  0  0  -0.573605  0  2.142078  0  0  -0.353773  -0.539651  0  2.157852  0
O  O87  1  0.80653378  0.52405852  0.13905181  1  0  -0.589084  0  1.928498  0  0  -0.553545  0  2.151501  0  0  -0.573657  0  2.142063  0  0  -0.353892  -0.539716  0  2.157843  0
O  O88  1  0.51571610  0.24895415  0.10415575  1  0  -0.897345  0  1.781066  0  0  -0.861176  0  1.937358  0  0  -0.87521  0  1.904704  0  0  -0.671668  -0.851091  0  1.960493  0
O  O89  1  0.48428067  0.75103831  0.89584809  1  0  -0.897461  0  1.780923  0  0  -0.861259  0  1.937178  0  0  -0.875308  0  1.904517  0  0  -0.671639  -0.851195  0  1.960284  0
O  O90  1  0.76599049  0.88817055  0.26883260  1  0  -0.893592  0  1.75726  0  0  -0.853277  0  1.912546  0  0  -0.867869  0  1.882145  0  0  -0.673354  -0.842911  0  1.933853  0
O  O91  1  0.23399549  0.11182071  0.73116737  1  0  -0.893782  0  1.757109  0  0  -0.8535  0  1.912439  0  0  -0.868077  0  1.881999  0  0  -0.673428  -0.843136  0  1.933747  0
O  O92  1  0.08383717  0.29589521  0.48750076  1  0  -0.895399  0  1.752762  0  0  -0.849873  0  1.906728  0  0  -0.866909  0  1.873953  0  0  -0.675172  -0.837624  0  1.929742  0
O  O93  1  0.91619986  0.70413792  0.51250477  1  0  -0.895444  0  1.75278  0  0  -0.849942  0  1.906727  0  0  -0.866972  0  1.873947  0  0  -0.675215  -0.837692  0  1.929745  0
O  O94  1  0.98541108  0.53879686  0.36157052  1  0  -0.848661  0  1.798387  0  0  -0.794938  0  1.959374  0  0  -0.812408  0  1.928515  0  0  -0.595531  -0.782648  0  1.980693  0
O  O95  1  0.01460784  0.46119994  0.63842792  1  0  -0.848741  0  1.798377  0  0  -0.795002  0  1.959342  0  0  -0.812477  0  1.928473  0  0  -0.595557  -0.782703  0  1.980705  0
