# generated using pymatgen
data_CdH14C15N2O5
_symmetry_space_group_name_H-M   'P 1'
_cell_length_a   7.65097103
_cell_length_b   8.33260298
_cell_length_c   13.57661817
_cell_angle_alpha   77.24319149
_cell_angle_beta   73.86551023
_cell_angle_gamma   63.33037310
_symmetry_Int_Tables_number   1
_chemical_formula_structural   CdH14C15N2O5
_chemical_formula_sum   'Cd2 H28 C30 N4 O10'
_cell_volume   738.32391991
_cell_formula_units_Z   2
loop_
 _symmetry_equiv_pos_site_id
 _symmetry_equiv_pos_as_xyz
  1  'x, y, z'
loop_
 _atom_site_type_symbol
 _atom_site_label
 _atom_site_symmetry_multiplicity
 _atom_site_fract_x
 _atom_site_fract_y
 _atom_site_fract_z
 _atom_site_occupancy
 _atom_site_hle17_bader_spin_density
 _atom_site_hle17_ddec_charge
 _atom_site_hle17_ddec_spin_density
 _atom_site_hle17_ddec_sum_bond_order
 _atom_site_hle17_magmom
 _atom_site_hse06_10hf_bader_spin_density
 _atom_site_hse06_10hf_ddec_charge
 _atom_site_hse06_10hf_ddec_spin_density
 _atom_site_hse06_10hf_ddec_sum_bond_order
 _atom_site_hse06_10hf_magmom
 _atom_site_hse06_bader_spin_density
 _atom_site_hse06_ddec_charge
 _atom_site_hse06_ddec_spin_density
 _atom_site_hse06_ddec_sum_bond_order
 _atom_site_hse06_magmom
 _atom_site_pbe_bader_spin_density
 _atom_site_pbe_cm5_charge
 _atom_site_pbe_ddec_charge
 _atom_site_pbe_ddec_spin_density
 _atom_site_pbe_ddec_sum_bond_order
 _atom_site_pbe_magmom
Cd  Cd0  1  0.23614972  0.83755407  0.56810141  1  0  1.208365  0  1.628973  0  0  1.020462  0  2.082179  0  0  1.079691  0  2.023116  0  0  0.780534  0.978202  0  2.122694  0
Cd  Cd1  1  0.76384984  0.16244450  0.43189765  1  0  1.208384  0  1.628952  0  0  1.020476  0  2.082163  0  0  1.079705  0  2.0231  0  0  0.780549  0.978211  0  2.122678  0
H  H2  1  0.58346440  0.84503500  0.41481831  1  0  0.432442  0  0.866974  0  0  0.401463  0  0.929377  0  0  0.412855  0  0.91299  0  0  0.288038  0.393388  0  0.940951  0
H  H3  1  0.41653525  0.15496627  0.58518113  1  0  0.432409  0  0.867017  0  0  0.401438  0  0.929405  0  0  0.41283  0  0.913019  0  0  0.288026  0.393365  0  0.940978  0
H  H4  1  0.52940604  0.68325719  0.40579155  1  0  0.420518  0  0.891803  0  0  0.386658  0  0.960474  0  0  0.398655  0  0.943274  0  0  0.282364  0.378124  0  0.972691  0
H  H5  1  0.47059560  0.31674276  0.59420702  1  0  0.420506  0  0.89183  0  0  0.386645  0  0.960504  0  0  0.398643  0  0.943302  0  0  0.282369  0.378112  0  0.972719  0
H  H6  1  0.83197493  0.50344228  0.59493510  1  0  0.113876  0  0.938818  0  0  0.129075  0  0.996215  0  0  0.131044  0  0.995319  0  0  0.101925  0.127632  0  0.996936  0
H  H7  1  0.16802677  0.49656032  0.40506607  1  0  0.113877  0  0.938798  0  0  0.1291  0  0.99618  0  0  0.131054  0  0.995297  0  0  0.101919  0.127649  0  0.996897  0
H  H8  1  0.07913403  0.46429019  0.59759410  1  0  0.123456  0  0.929825  0  0  0.138191  0  0.989015  0  0  0.140746  0  0.987794  0  0  0.107618  0.13635  0  0.99  0
H  H9  1  0.92086603  0.53570424  0.40240909  1  0  0.123465  0  0.92983  0  0  0.138216  0  0.989009  0  0  0.140769  0  0.987785  0  0  0.107622  0.136368  0  0.98999  0
H  H10  1  0.80001395  0.80922264  0.64013894  1  0  0.0872  0  0.93215  0  0  0.097581  0  0.991947  0  0  0.099393  0  0.990564  0  0  0.120994  0.096165  0  0.99313  0
H  H11  1  0.19999038  0.19077731  0.35986070  1  0  0.087177  0  0.932174  0  0  0.09757  0  0.991955  0  0  0.099376  0  0.990578  0  0  0.120999  0.096152  0  0.993141  0
H  H12  1  0.48182767  0.33360587  0.80914434  1  0  0.112461  0  0.921265  0  0  0.131154  0  0.976318  0  0  0.132989  0  0.975883  0  0  0.105665  0.129914  0  0.97664  0
H  H13  1  0.51817248  0.66638870  0.19085145  1  0  0.112432  0  0.92132  0  0  0.131119  0  0.97637  0  0  0.132951  0  0.975941  0  0  0.105647  0.129878  0  0.976693  0
H  H14  1  0.66928382  0.25924220  0.70004778  1  0  0.12255  0  0.949459  0  0  0.13674  0  1.010098  0  0  0.138762  0  1.010371  0  0  0.104714  0.135316  0  1.009984  0
H  H15  1  0.33072001  0.74076187  0.29994847  1  0  0.122521  0  0.949533  0  0  0.136671  0  1.010233  0  0  0.138694  0  1.010504  0  0  0.10469  0.135247  0  1.010122  0
H  H16  1  0.56216110  0.36135837  0.95307406  1  0  0.084087  0  0.977746  0  0  0.089968  0  1.050353  0  0  0.092801  0  1.048936  0  0  0.093074  0.087919  0  1.051471  0
H  H17  1  0.43783320  0.63864553  0.04692732  1  0  0.084115  0  0.977776  0  0  0.089993  0  1.050359  0  0  0.092825  0  1.048937  0  0  0.093099  0.087942  0  1.051488  0
H  H18  1  0.19150850  0.39842104  0.74898554  1  0  0.094227  0  0.988661  0  0  0.103552  0  1.053443  0  0  0.106584  0  1.052088  0  0  0.095046  0.101339  0  1.05452  0
H  H19  1  0.80849429  0.60157344  0.25101576  1  0  0.094223  0  0.988674  0  0  0.103542  0  1.053461  0  0  0.106572  0  1.052106  0  0  0.095042  0.101327  0  1.054537  0
H  H20  1  0.52239132  0.84882458  0.79428654  1  0  0.139792  0  0.94163  0  0  0.146564  0  1.003286  0  0  0.151332  0  0.999804  0  0  0.117852  0.143092  0  1.005987  0
H  H21  1  0.47761543  0.15116721  0.20571525  1  0  0.13982  0  0.941605  0  0  0.146567  0  1.003295  0  0  0.151335  0  0.999815  0  0  0.117846  0.143092  0  1.005998  0
H  H22  1  0.12688649  0.92351316  0.79087027  1  0  0.090949  0  0.930988  0  0  0.099591  0  0.992407  0  0  0.102321  0  0.990252  0  0  0.12034  0.097563  0  0.994051  0
H  H23  1  0.87311080  0.07649892  0.20912963  1  0  0.090983  0  0.930952  0  0  0.099639  0  0.992357  0  0  0.10237  0  0.990199  0  0  0.120352  0.097607  0  0.994003  0
H  H24  1  0.85517880  0.97951121  0.95130024  1  0  0.117665  0  0.956128  0  0  0.123567  0  1.020916  0  0  0.126881  0  1.019867  0  0  0.11336  0.121134  0  1.02188  0
H  H25  1  0.14481968  0.02049548  0.04869869  1  0  0.117678  0  0.956142  0  0  0.12356  0  1.020953  0  0  0.126884  0  1.019894  0  0  0.113361  0.121127  0  1.021919  0
H  H26  1  0.80131009  0.36323207  0.04315030  1  0  0.08378  0  0.956112  0  0  0.096585  0  1.014117  0  0  0.099197  0  1.013283  0  0  0.09585  0.094712  0  1.014748  0
H  H27  1  0.19868415  0.63676916  0.95684922  1  0  0.083777  0  0.956126  0  0  0.096587  0  1.014124  0  0  0.0992  0  1.013291  0  0  0.095849  0.094706  0  1.014778  0
H  H28  1  0.12278671  0.37554270  0.94080064  1  0  0.079044  0  0.969479  0  0  0.088967  0  1.034935  0  0  0.091112  0  1.034872  0  0  0.091702  0.087444  0  1.035039  0
H  H29  1  0.87721207  0.62445441  0.05920313  1  0  0.079071  0  0.969459  0  0  0.088915  0  1.035016  0  0  0.09106  0  1.034953  0  0  0.091675  0.087393  0  1.035118  0
C  C30  1  0.04681032  0.22961118  0.58203601  1  0  0.721286  0  3.829174  0  0  0.669818  0  4.13263  0  0  0.704077  0  4.124952  0  0  0.214293  0.646511  0  4.137003  0
C  C31  1  0.95318673  0.77039281  0.41796200  1  0  0.721385  0  3.829159  0  0  0.669891  0  4.132658  0  0  0.704148  0  4.124976  0  0  0.214347  0.646577  0  4.137037  0
C  C32  1  0.96520818  0.40951037  0.62572087  1  0  -0.314418  0  3.675991  0  0  -0.354775  0  3.913764  0  0  -0.360606  0  3.921351  0  0  -0.162728  -0.350714  0  3.908649  0
C  C33  1  0.03479205  0.59048948  0.37428234  1  0  -0.314418  0  3.675983  0  0  -0.354824  0  3.913769  0  0  -0.360659  0  3.921404  0  0  -0.162745  -0.350715  0  3.908576  0
C  C34  1  0.80759867  0.84540549  0.71065290  1  0  0.162459  0  3.678172  0  0  0.129482  0  3.936231  0  0  0.137503  0  3.954205  0  0  0.058338  0.124149  0  3.924215  0
C  C35  1  0.19240762  0.15459307  0.28934883  1  0  0.162496  0  3.678101  0  0  0.129528  0  3.936143  0  0  0.137554  0  3.954115  0  0  0.058354  0.124191  0  3.924125  0
C  C36  1  0.73878225  0.38047894  0.80051381  1  0  0.072754  0  3.728179  0  0  0.086177  0  3.962372  0  0  0.08615  0  3.987697  0  0  -0.013075  0.086245  0  3.945151  0
C  C37  1  0.26121649  0.61951553  0.19948663  1  0  0.072721  0  3.728226  0  0  0.086151  0  3.962367  0  0  0.086126  0  3.987689  0  0  -0.013074  0.086218  0  3.945151  0
C  C38  1  0.47680262  0.53975356  0.68584434  1  0  0.687657  0  3.856015  0  0  0.639518  0  4.156846  0  0  0.672404  0  4.151448  0  0  0.199581  0.617206  0  4.159566  0
C  C39  1  0.52320036  0.46024637  0.31415550  1  0  0.687738  0  3.855895  0  0  0.639597  0  4.156705  0  0  0.672484  0  4.151302  0  0  0.199665  0.617283  0  4.15943  0
C  C40  1  0.59430277  0.36891612  0.74975961  1  0  -0.313087  0  3.705749  0  0  -0.352487  0  3.941465  0  0  -0.358605  0  3.950129  0  0  -0.164834  -0.348292  0  3.93545  0
C  C41  1  0.40569689  0.63108517  0.25023908  1  0  -0.313038  0  3.705871  0  0  -0.35241  0  3.941553  0  0  -0.358526  0  3.950216  0  0  -0.16481  -0.348224  0  3.935551  0
C  C42  1  0.91772717  0.39200788  0.74261542  1  0  0.071902  0  3.697803  0  0  0.087367  0  3.934079  0  0  0.086574  0  3.958804  0  0  -0.009773  0.087871  0  3.917335  0
C  C43  1  0.08227166  0.60798931  0.25738466  1  0  0.071814  0  3.697868  0  0  0.087334  0  3.934101  0  0  0.086539  0  3.958819  0  0  -0.009805  0.08783  0  3.917352  0
C  C44  1  0.69962871  0.37196489  0.90812706  1  0  -0.126197  0  3.771976  0  0  -0.144511  0  4.021294  0  0  -0.147745  0  4.04333  0  0  -0.098079  -0.142197  0  4.006212  0
C  C45  1  0.30036626  0.62803772  0.09187144  1  0  -0.126174  0  3.77211  0  0  -0.144476  0  4.021443  0  0  -0.147706  0  4.043476  0  0  -0.098094  -0.142163  0  4.006361  0
C  C46  1  0.66619928  0.92334386  0.88343892  1  0  0.186713  0  3.797497  0  0  0.19144  0  4.045075  0  0  0.194994  0  4.067986  0  0  0.103654  0.18925  0  4.029579  0
C  C47  1  0.33380568  0.07665473  0.11656080  1  0  0.186818  0  3.797353  0  0  0.191563  0  4.044922  0  0  0.195117  0  4.067835  0  0  0.103712  0.18937  0  4.029425  0
C  C48  1  0.05406348  0.38885927  0.79453615  1  0  -0.123356  0  3.750341  0  0  -0.144875  0  4.000519  0  0  -0.147125  0  4.021768  0  0  -0.100849  -0.143188  0  3.986013  0
C  C49  1  0.94593523  0.61113516  0.20546650  1  0  -0.12336  0  3.750266  0  0  -0.144892  0  4.000425  0  0  -0.147133  0  4.021663  0  0  -0.100862  -0.143206  0  3.985924  0
C  C50  1  0.65158046  0.87009562  0.79648411  1  0  -0.144624  0  3.629493  0  0  -0.168261  0  3.878841  0  0  -0.175682  0  3.898107  0  0  -0.062142  -0.163575  0  3.866193  0
C  C51  1  0.34842709  0.12990024  0.20351777  1  0  -0.144626  0  3.629391  0  0  -0.168275  0  3.878785  0  0  -0.175691  0  3.898035  0  0  -0.062113  -0.163588  0  3.866136  0
C  C52  1  0.98905898  0.91080726  0.79539670  1  0  0.127036  0  3.708192  0  0  0.097193  0  3.960252  0  0  0.10295  0  3.980562  0  0  0.045473  0.093446  0  3.946553  0
C  C53  1  0.01094283  0.08919808  0.20460264  1  0  0.126902  0  3.708182  0  0  0.097054  0  3.960248  0  0  0.10281  0  3.980562  0  0  0.04542  0.093308  0  3.946551  0
C  C54  1  0.83987171  0.94153481  0.88357983  1  0  -0.166559  0  3.70587  0  0  -0.186046  0  3.952638  0  0  -0.193995  0  3.975943  0  0  -0.072595  -0.181006  0  3.937214  0
C  C55  1  0.16012548  0.05847455  0.11642042  1  0  -0.166624  0  3.705937  0  0  -0.186104  0  3.952737  0  0  -0.194063  0  3.976036  0  0  -0.072654  -0.181065  0  3.937312  0
C  C56  1  0.83517479  0.37112877  0.95910197  1  0  -0.084214  0  3.810108  0  0  -0.097407  0  4.058892  0  0  -0.09911  0  4.080426  0  0  -0.102638  -0.09606  0  4.044042  0
C  C57  1  0.16482187  0.62886431  0.04089969  1  0  -0.084272  0  3.810348  0  0  -0.097473  0  4.059127  0  0  -0.099179  0  4.080665  0  0  -0.102625  -0.096128  0  4.04428  0
C  C58  1  0.01468600  0.37765121  0.90188410  1  0  -0.080942  0  3.811795  0  0  -0.096409  0  4.066766  0  0  -0.098555  0  4.089175  0  0  -0.104163  -0.094832  0  4.05133  0
C  C59  1  0.98530877  0.62234594  0.09811660  1  0  -0.080862  0  3.811669  0  0  -0.096268  0  4.066647  0  0  -0.098414  0  4.089057  0  0  -0.104109  -0.094691  0  4.051212  0
N  N60  1  0.97252580  0.86576734  0.70976560  1  0  -0.34457  0  3.255268  0  0  -0.268525  0  3.522978  0  0  -0.290038  0  3.543883  0  0  -0.325044  -0.253857  0  3.508533  0
N  N61  1  0.02747462  0.13423794  0.29023690  1  0  -0.344513  0  3.254989  0  0  -0.268459  0  3.522692  0  0  -0.289977  0  3.543605  0  0  -0.325039  -0.25379  0  3.508244  0
N  N62  1  0.50143075  0.95449261  0.96787755  1  0  -0.130977  0  2.962479  0  0  -0.108378  0  3.242018  0  0  -0.107188  0  3.247383  0  0  -0.127434  -0.109167  0  3.238443  0
N  N63  1  0.49857087  0.04550729  0.03212324  1  0  -0.131003  0  2.962532  0  0  -0.108395  0  3.242065  0  0  -0.107207  0  3.247429  0  0  -0.127422  -0.109182  0  3.238487  0
O  O64  1  0.39244701  0.51949223  0.62211146  1  0  -0.671857  0  2.020572  0  0  -0.600185  0  2.260965  0  0  -0.629941  0  2.249797  0  0  -0.328311  -0.579281  0  2.267953  0
O  O65  1  0.60755880  0.48051049  0.37788540  1  0  -0.671922  0  2.020616  0  0  -0.600226  0  2.260982  0  0  -0.629979  0  2.249811  0  0  -0.328361  -0.579323  0  2.267973  0
O  O66  1  0.21769101  0.10927435  0.59852970  1  0  -0.670583  0  2.018579  0  0  -0.591814  0  2.255825  0  0  -0.621977  0  2.243478  0  0  -0.322428  -0.570654  0  2.26356  0
O  O67  1  0.78230998  0.89072433  0.40146398  1  0  -0.670631  0  2.018547  0  0  -0.591863  0  2.255845  0  0  -0.62202  0  2.24349  0  0  -0.322485  -0.570705  0  2.263581  0
O  O68  1  0.46962760  0.81227525  0.42205467  1  0  -0.854926  0  1.880111  0  0  -0.78482  0  2.085859  0  0  -0.810282  0  2.050499  0  0  -0.593039  -0.766696  0  2.11036  0
O  O69  1  0.53037267  0.18772465  0.57794559  1  0  -0.854899  0  1.880159  0  0  -0.784795  0  2.085893  0  0  -0.810256  0  2.050531  0  0  -0.593032  -0.76667  0  2.110388  0
O  O70  1  0.45847909  0.69306014  0.69730504  1  0  -0.634198  0  1.93381  0  0  -0.57615  0  2.16685  0  0  -0.603006  0  2.158258  0  0  -0.320748  -0.55721  0  2.17198  0
O  O71  1  0.54151911  0.30693840  0.30269496  1  0  -0.634232  0  1.933714  0  0  -0.576197  0  2.166774  0  0  -0.603054  0  2.15818  0  0  -0.320772  -0.557249  0  2.171886  0
O  O72  1  0.94508904  0.20234932  0.53380436  1  0  -0.679715  0  2.02667  0  0  -0.616481  0  2.301121  0  0  -0.645162  0  2.287489  0  0  -0.33255  -0.596248  0  2.309695  0
O  O73  1  0.05490319  0.79765322  0.46619677  1  0  -0.679733  0  2.026651  0  0  -0.616489  0  2.30113  0  0  -0.645178  0  2.287515  0  0  -0.332528  -0.596244  0  2.309677  0
