# generated using pymatgen
data_Cu2H6C7(IN)2
_symmetry_space_group_name_H-M   'P 1'
_cell_length_a   4.05158835
_cell_length_b   15.69135047
_cell_length_c   16.67619448
_cell_angle_alpha   110.32604925
_cell_angle_beta   89.99867696
_cell_angle_gamma   90.00212202
_symmetry_Int_Tables_number   1
_chemical_formula_structural   Cu2H6C7(IN)2
_chemical_formula_sum   'Cu8 H24 C28 I8 N8'
_cell_volume   994.17058537
_cell_formula_units_Z   4
loop_
 _symmetry_equiv_pos_site_id
 _symmetry_equiv_pos_as_xyz
  1  'x, y, z'
loop_
 _atom_site_type_symbol
 _atom_site_label
 _atom_site_symmetry_multiplicity
 _atom_site_fract_x
 _atom_site_fract_y
 _atom_site_fract_z
 _atom_site_occupancy
 _atom_site_hle17_bader_spin_density
 _atom_site_hle17_ddec_charge
 _atom_site_hle17_ddec_spin_density
 _atom_site_hle17_ddec_sum_bond_order
 _atom_site_hle17_magmom
 _atom_site_hse06_10hf_bader_spin_density
 _atom_site_hse06_10hf_ddec_charge
 _atom_site_hse06_10hf_ddec_spin_density
 _atom_site_hse06_10hf_ddec_sum_bond_order
 _atom_site_hse06_10hf_magmom
 _atom_site_hse06_bader_spin_density
 _atom_site_hse06_ddec_charge
 _atom_site_hse06_ddec_spin_density
 _atom_site_hse06_ddec_sum_bond_order
 _atom_site_hse06_magmom
 _atom_site_pbe_bader_spin_density
 _atom_site_pbe_cm5_charge
 _atom_site_pbe_ddec_charge
 _atom_site_pbe_ddec_spin_density
 _atom_site_pbe_ddec_sum_bond_order
 _atom_site_pbe_magmom
Cu  Cu0  1  0.42705844  0.67323155  0.70930618  1  0  0.264847  0  2.151737  0  0  0.186994  0  2.632372  0  0  0.200432  0  2.575894  0  0  0.243153  0.179112  0  2.671131  0
Cu  Cu1  1  0.92705384  0.32678315  0.79069002  1  0  0.264883  0  2.15172  0  0  0.187021  0  2.632347  0  0  0.200448  0  2.575871  0  0  0.243141  0.179136  0  2.671134  0
Cu  Cu2  1  0.57293126  0.32677081  0.29068643  1  0  0.264818  0  2.151806  0  0  0.186931  0  2.632408  0  0  0.200377  0  2.57596  0  0  0.243072  0.17904  0  2.671181  0
Cu  Cu3  1  0.07297041  0.67321290  0.20931965  1  0  0.264893  0  2.151607  0  0  0.187042  0  2.632223  0  0  0.200469  0  2.575762  0  0  0.243091  0.179149  0  2.671012  0
Cu  Cu4  1  0.92381920  0.57624306  0.73559517  1  0  0.166033  0  2.261826  0  0  0.110687  0  2.730042  0  0  0.128434  0  2.668416  0  0  0.136124  0.09922  0  2.773277  0
Cu  Cu5  1  0.42384375  0.42377161  0.76440104  1  0  0.165979  0  2.261886  0  0  0.1106  0  2.730155  0  0  0.128381  0  2.668455  0  0  0.136121  0.099137  0  2.773388  0
Cu  Cu6  1  0.07618037  0.42376123  0.26440828  1  0  0.166052  0  2.261832  0  0  0.110636  0  2.730037  0  0  0.128423  0  2.668439  0  0  0.136114  0.099203  0  2.773258  0
Cu  Cu7  1  0.57618296  0.57622786  0.23560798  1  0  0.166005  0  2.261849  0  0  0.110536  0  2.73018  0  0  0.128379  0  2.668447  0  0  0.136112  0.099106  0  2.773399  0
H  H8  1  0.92303622  0.71049043  0.44490598  1  0  0.288664  0  0.91544  0  0  0.270615  0  0.984347  0  0  0.277469  0  0.979658  0  0  0.291606  0.2656  0  0.98805  0
H  H9  1  0.42301308  0.28950902  0.05508828  1  0  0.288616  0  0.915608  0  0  0.27057  0  0.984513  0  0  0.27743  0  0.979821  0  0  0.291589  0.265555  0  0.98822  0
H  H10  1  0.07698062  0.28952211  0.55509183  1  0  0.288608  0  0.915554  0  0  0.270598  0  0.984476  0  0  0.277448  0  0.979783  0  0  0.291599  0.265578  0  0.988187  0
H  H11  1  0.57695686  0.71047889  0.94491687  1  0  0.288563  0  0.915747  0  0  0.270555  0  0.984632  0  0  0.2774  0  0.979944  0  0  0.291688  0.265541  0  0.988346  0
H  H12  1  0.63985382  0.87717112  0.72829635  1  0  0.098607  0  0.976623  0  0  0.106169  0  1.047171  0  0  0.109137  0  1.045303  0  0  0.090892  0.103998  0  1.048593  0
H  H13  1  0.13981707  0.12284504  0.77168887  1  0  0.098556  0  0.976463  0  0  0.106142  0  1.04706  0  0  0.109073  0  1.045231  0  0  0.090889  0.103986  0  1.048459  0
H  H14  1  0.36015315  0.12284276  0.27170371  1  0  0.098532  0  0.97642  0  0  0.106059  0  1.047064  0  0  0.109037  0  1.045186  0  0  0.090837  0.103897  0  1.048467  0
H  H15  1  0.86019237  0.87714092  0.22830724  1  0  0.098543  0  0.976441  0  0  0.106136  0  1.04707  0  0  0.109035  0  1.045296  0  0  0.090912  0.103991  0  1.048446  0
H  H16  1  0.63129033  0.02263975  0.69879022  1  0  0.083016  0  0.979174  0  0  0.094228  0  1.041853  0  0  0.096184  0  1.042497  0  0  0.092932  0.092824  0  1.041478  0
H  H17  1  0.13130084  0.97737963  0.80120572  1  0  0.082932  0  0.979208  0  0  0.094135  0  1.0419  0  0  0.096095  0  1.042548  0  0  0.092915  0.092728  0  1.041523  0
H  H18  1  0.36866234  0.97737748  0.30121515  1  0  0.083011  0  0.979064  0  0  0.094189  0  1.041794  0  0  0.096147  0  1.042439  0  0  0.092979  0.092786  0  1.041422  0
H  H19  1  0.86866911  0.02260499  0.19878874  1  0  0.082869  0  0.979162  0  0  0.094137  0  1.041796  0  0  0.096099  0  1.042437  0  0  0.092938  0.092728  0  1.041423  0
H  H20  1  0.35291950  0.03311765  0.57118068  1  0  0.077974  0  0.989288  0  0  0.08833  0  1.054806  0  0  0.090591  0  1.05432  0  0  0.087864  0.086746  0  1.055144  0
H  H21  1  0.85295462  0.96689150  0.92882250  1  0  0.078013  0  0.989223  0  0  0.088388  0  1.054748  0  0  0.090651  0  1.054255  0  0  0.087834  0.086802  0  1.055087  0
H  H22  1  0.64701590  0.96689141  0.42882376  1  0  0.077957  0  0.989274  0  0  0.088321  0  1.054814  0  0  0.090584  0  1.054323  0  0  0.087789  0.086741  0  1.055156  0
H  H23  1  0.14700546  0.03309718  0.07117451  1  0  0.077908  0  0.989534  0  0  0.088293  0  1.054989  0  0  0.090552  0  1.054511  0  0  0.087769  0.08671  0  1.055326  0
H  H24  1  0.06823928  0.89867840  0.46690236  1  0  0.1037  0  0.965495  0  0  0.114411  0  1.027334  0  0  0.117155  0  1.026282  0  0  0.095132  0.112325  0  1.028406  0
H  H25  1  0.56823152  0.10132718  0.03309488  1  0  0.103702  0  0.965617  0  0  0.114406  0  1.027437  0  0  0.117169  0  1.026362  0  0  0.095129  0.112313  0  1.028507  0
H  H26  1  0.93173807  0.10132593  0.53309869  1  0  0.103713  0  0.96551  0  0  0.114477  0  1.027252  0  0  0.117234  0  1.026185  0  0  0.095152  0.112361  0  1.028351  0
H  H27  1  0.43174090  0.89866489  0.96690327  1  0  0.103738  0  0.965565  0  0  0.114459  0  1.027347  0  0  0.11722  0  1.026274  0  0  0.095178  0.112352  0  1.028435  0
H  H28  1  0.05067649  0.60516793  0.52861800  1  0  0.076714  0  0.959824  0  0  0.085464  0  1.030187  0  0  0.087318  0  1.027236  0  0  0.111348  0.083767  0  1.032751  0
H  H29  1  0.55063225  0.39483568  0.97137794  1  0  0.076938  0  0.959569  0  0  0.085639  0  1.03  0  0  0.087479  0  1.027065  0  0  0.111478  0.083979  0  1.032537  0
H  H30  1  0.94936256  0.39483717  0.47137372  1  0  0.076906  0  0.959635  0  0  0.085645  0  1.030021  0  0  0.087484  0  1.027085  0  0  0.111483  0.083964  0  1.032571  0
H  H31  1  0.44935991  0.60515976  0.02862434  1  0  0.076843  0  0.9597  0  0  0.0856  0  1.030055  0  0  0.087438  0  1.027122  0  0  0.111435  0.08392  0  1.032612  0
C  C32  1  0.35216482  0.80717549  0.61479274  1  0  0.136648  0  3.784441  0  0  0.137954  0  4.022956  0  0  0.140251  0  4.04671  0  0  0.079633  0.136374  0  4.006983  0
C  C33  1  0.85211486  0.19283508  0.88520432  1  0  0.136598  0  3.784172  0  0  0.13764  0  4.023072  0  0  0.139936  0  4.046826  0  0  0.079761  0.136064  0  4.007107  0
C  C34  1  0.64787671  0.19282469  0.38521292  1  0  0.136295  0  3.784794  0  0  0.137696  0  4.023115  0  0  0.13999  0  4.04687  0  0  0.079617  0.136116  0  4.007143  0
C  C35  1  0.14790198  0.80716514  0.11479776  1  0  0.136371  0  3.784474  0  0  0.137501  0  4.023168  0  0  0.139798  0  4.046909  0  0  0.079635  0.135923  0  4.00721  0
C  C36  1  0.51385423  0.88230921  0.67245512  1  0  -0.130508  0  3.733024  0  0  -0.148607  0  3.980312  0  0  -0.150545  0  3.999541  0  0  -0.093935  -0.147288  0  3.967491  0
C  C37  1  0.01383401  0.11770843  0.82753494  1  0  -0.130514  0  3.732546  0  0  -0.148627  0  3.979978  0  0  -0.150532  0  3.999233  0  0  -0.094085  -0.147313  0  3.96716  0
C  C38  1  0.48617249  0.11770191  0.32754761  1  0  -0.130364  0  3.732905  0  0  -0.148478  0  3.980134  0  0  -0.150423  0  3.99936  0  0  -0.093923  -0.147161  0  3.967318  0
C  C39  1  0.98619270  0.88228229  0.17246335  1  0  -0.130229  0  3.732701  0  0  -0.148395  0  3.980075  0  0  -0.150287  0  3.999336  0  0  -0.093959  -0.147086  0  3.967256  0
C  C40  1  0.50782301  0.96287591  0.65514095  1  0  -0.072087  0  3.780668  0  0  -0.085456  0  4.027974  0  0  -0.08806  0  4.051087  0  0  -0.098312  -0.083633  0  4.012267  0
C  C41  1  0.00781810  0.03714230  0.84485414  1  0  -0.071743  0  3.780635  0  0  -0.085048  0  4.027884  0  0  -0.087653  0  4.050985  0  0  -0.098119  -0.083223  0  4.01217  0
C  C42  1  0.49215434  0.03713931  0.34486136  1  0  -0.07192  0  3.780572  0  0  -0.085263  0  4.027895  0  0  -0.087871  0  4.051009  0  0  -0.09829  -0.083447  0  4.012198  0
C  C43  1  0.99216419  0.96284432  0.15514458  1  0  -0.071647  0  3.780473  0  0  -0.085004  0  4.027737  0  0  -0.087607  0  4.050829  0  0  -0.098227  -0.083175  0  4.012029  0
C  C44  1  0.34855579  0.96870420  0.58222953  1  0  -0.073981  0  3.787439  0  0  -0.088167  0  4.038533  0  0  -0.090232  0  4.060746  0  0  -0.099923  -0.086673  0  4.023332  0
C  C45  1  0.84856867  0.03130771  0.91776680  1  0  -0.074251  0  3.787826  0  0  -0.088482  0  4.038924  0  0  -0.090547  0  4.061146  0  0  -0.09999  -0.086977  0  4.023709  0
C  C46  1  0.65140428  0.03130966  0.41777292  1  0  -0.074136  0  3.787442  0  0  -0.088348  0  4.038565  0  0  -0.090409  0  4.060779  0  0  -0.099865  -0.086854  0  4.023358  0
C  C47  1  0.15139634  0.96868236  0.08222827  1  0  -0.074372  0  3.787572  0  0  -0.088604  0  4.038672  0  0  -0.090672  0  4.060896  0  0  -0.099945  -0.087099  0  4.023457  0
C  C48  1  0.19026268  0.89431586  0.52351365  1  0  -0.153243  0  3.767472  0  0  -0.170419  0  4.017377  0  0  -0.173615  0  4.03805  0  0  -0.101438  -0.168197  0  4.00345  0
C  C49  1  0.69026249  0.10568495  0.97648591  1  0  -0.153197  0  3.767392  0  0  -0.170364  0  4.01725  0  0  -0.173577  0  4.037911  0  0  -0.101409  -0.168137  0  4.003324  0
C  C50  1  0.80974183  0.10569185  0.47648914  1  0  -0.153171  0  3.767154  0  0  -0.170399  0  4.016986  0  0  -0.17361  0  4.037649  0  0  -0.10142  -0.168151  0  4.003064  0
C  C51  1  0.30974695  0.89430168  0.02351161  1  0  -0.153128  0  3.767215  0  0  -0.170343  0  4.017002  0  0  -0.173552  0  4.037662  0  0  -0.101417  -0.168107  0  4.003088  0
C  C52  1  0.19296431  0.81389252  0.54153609  1  0  0.150554  0  3.792937  0  0  0.14353  0  4.033677  0  0  0.147162  0  4.056837  0  0  0.0875  0.14105  0  4.018025  0
C  C53  1  0.69291925  0.18611312  0.95846087  1  0  0.150578  0  3.792483  0  0  0.143634  0  4.033222  0  0  0.147272  0  4.056392  0  0  0.087357  0.141157  0  4.017573  0
C  C54  1  0.80707475  0.18611459  0.45845930  1  0  0.150573  0  3.793027  0  0  0.143604  0  4.033681  0  0  0.147234  0  4.056836  0  0  0.087389  0.141113  0  4.018018  0
C  C55  1  0.30706304  0.81388097  0.04154035  1  0  0.150565  0  3.792739  0  0  0.143745  0  4.033294  0  0  0.147374  0  4.056451  0  0  0.087421  0.141269  0  4.017653  0
C  C56  1  0.13241107  0.67514452  0.54638260  1  0  0.248962  0  3.675551  0  0  0.189234  0  3.950439  0  0  0.205598  0  3.96186  0  0  0.139229  0.178523  0  3.942584  0
C  C57  1  0.63235455  0.32485989  0.95361132  1  0  0.248591  0  3.675429  0  0  0.188842  0  3.950325  0  0  0.20522  0  3.961768  0  0  0.139055  0.178099  0  3.94247  0
C  C58  1  0.86763786  0.32486195  0.45360838  1  0  0.248792  0  3.675263  0  0  0.189043  0  3.950205  0  0  0.205411  0  3.961637  0  0  0.139108  0.178312  0  3.942344  0
C  C59  1  0.36765488  0.67513220  0.04638564  1  0  0.248868  0  3.675009  0  0  0.189096  0  3.949961  0  0  0.205463  0  3.961395  0  0  0.139229  0.178372  0  3.942111  0
I  I60  1  0.89862412  0.74883440  0.81661349  1  0  -0.303196  0  1.778074  0  0  -0.253502  0  2.23241  0  0  -0.26561  0  2.188605  0  0  -0.146353  -0.245503  0  2.264521  0
I  I61  1  0.39863391  0.25117929  0.68338794  1  0  -0.303203  0  1.77826  0  0  -0.253491  0  2.232575  0  0  -0.265596  0  2.188743  0  0  -0.146332  -0.245492  0  2.264703  0
I  I62  1  0.10136064  0.25116718  0.18338844  1  0  -0.303187  0  1.778193  0  0  -0.253463  0  2.232487  0  0  -0.265581  0  2.188684  0  0  -0.146317  -0.245483  0  2.26463  0
I  I63  1  0.60132616  0.74882094  0.31661354  1  0  -0.303207  0  1.778299  0  0  -0.253464  0  2.23259  0  0  -0.265573  0  2.188752  0  0  -0.146326  -0.245481  0  2.264733  0
I  I64  1  0.41704431  0.49303428  0.63527097  1  0  -0.251005  0  2.034071  0  0  -0.197681  0  2.531586  0  0  -0.21215  0  2.481534  0  0  -0.141666  -0.188303  0  2.568486  0
I  I65  1  0.91707087  0.50698101  0.86472488  1  0  -0.250988  0  2.034054  0  0  -0.197653  0  2.531566  0  0  -0.212121  0  2.481492  0  0  -0.141646  -0.188282  0  2.568495  0
I  I66  1  0.58295032  0.50696452  0.36473603  1  0  -0.250997  0  2.034138  0  0  -0.197608  0  2.531571  0  0  -0.212119  0  2.481559  0  0  -0.141624  -0.188254  0  2.568476  0
I  I67  1  0.08294103  0.49301852  0.13527756  1  0  -0.251006  0  2.034026  0  0  -0.197619  0  2.531501  0  0  -0.212128  0  2.481455  0  0  -0.141657  -0.188272  0  2.56843  0
N  N68  1  0.31010898  0.71905046  0.61546716  1  0  -0.375533  0  3.306581  0  0  -0.308972  0  3.609272  0  0  -0.327063  0  3.618407  0  0  -0.388297  -0.296992  0  3.60262  0
N  N69  1  0.81007528  0.28095703  0.88452493  1  0  -0.375504  0  3.306443  0  0  -0.308746  0  3.609001  0  0  -0.326833  0  3.618129  0  0  -0.388278  -0.296767  0  3.602384  0
N  N70  1  0.68992267  0.28095591  0.38453338  1  0  -0.375477  0  3.306266  0  0  -0.308799  0  3.608731  0  0  -0.326893  0  3.617872  0  0  -0.388266  -0.296816  0  3.602091  0
N  N71  1  0.18994156  0.71903918  0.11546981  1  0  -0.375597  0  3.306187  0  0  -0.30888  0  3.608746  0  0  -0.326975  0  3.617895  0  0  -0.38828  -0.296896  0  3.602117  0
N  N72  1  0.05850483  0.72874707  0.50002490  1  0  -0.33618  0  3.433  0  0  -0.274839  0  3.663932  0  0  -0.292496  0  3.678488  0  0  -0.385519  -0.262984  0  3.654081  0
N  N73  1  0.55846197  0.27125729  0.99997124  1  0  -0.335989  0  3.432936  0  0  -0.274614  0  3.663747  0  0  -0.292285  0  3.678306  0  0  -0.385403  -0.26276  0  3.653918  0
N  N74  1  0.94153423  0.27126136  0.49997453  1  0  -0.336013  0  3.432509  0  0  -0.274844  0  3.663534  0  0  -0.292484  0  3.678068  0  0  -0.385441  -0.262972  0  3.653686  0
N  N75  1  0.44154006  0.72873756  0.00002304  1  0  -0.335957  0  3.432464  0  0  -0.274752  0  3.663389  0  0  -0.292385  0  3.677923  0  0  -0.385568  -0.262896  0  3.653564  0
