# generated using pymatgen
data_CdH13C10(NO2)2
_symmetry_space_group_name_H-M   'P 1'
_cell_length_a   8.34827244
_cell_length_b   9.33220923
_cell_length_c   14.91252733
_cell_angle_alpha   100.97338174
_cell_angle_beta   90.00021463
_cell_angle_gamma   90.00030790
_symmetry_Int_Tables_number   1
_chemical_formula_structural   CdH13C10(NO2)2
_chemical_formula_sum   'Cd4 H52 C40 N8 O16'
_cell_volume   1140.55985102
_cell_formula_units_Z   4
loop_
 _symmetry_equiv_pos_site_id
 _symmetry_equiv_pos_as_xyz
  1  'x, y, z'
loop_
 _atom_site_type_symbol
 _atom_site_label
 _atom_site_symmetry_multiplicity
 _atom_site_fract_x
 _atom_site_fract_y
 _atom_site_fract_z
 _atom_site_occupancy
 _atom_site_hle17_bader_spin_density
 _atom_site_hle17_ddec_charge
 _atom_site_hle17_ddec_spin_density
 _atom_site_hle17_ddec_sum_bond_order
 _atom_site_hle17_magmom
 _atom_site_hse06_10hf_bader_spin_density
 _atom_site_hse06_10hf_ddec_charge
 _atom_site_hse06_10hf_ddec_spin_density
 _atom_site_hse06_10hf_ddec_sum_bond_order
 _atom_site_hse06_10hf_magmom
 _atom_site_hse06_bader_spin_density
 _atom_site_hse06_ddec_charge
 _atom_site_hse06_ddec_spin_density
 _atom_site_hse06_ddec_sum_bond_order
 _atom_site_hse06_magmom
 _atom_site_pbe_bader_spin_density
 _atom_site_pbe_cm5_charge
 _atom_site_pbe_ddec_charge
 _atom_site_pbe_ddec_spin_density
 _atom_site_pbe_ddec_sum_bond_order
 _atom_site_pbe_magmom
Cd  Cd0  1  0.99346987  0.24999483  0.74999938  1  0  1.181325  0  1.534035  0  0  1.003247  0  1.957523  0  0  1.071546  0  1.896771  0  0  0.750911  0.954138  0  1.999085  0
Cd  Cd1  1  0.00653378  0.75000498  0.25000178  1  0  1.18133  0  1.534006  0  0  1.003254  0  1.957491  0  0  1.071556  0  1.89674  0  0  0.750822  0.954056  0  1.999056  0
Cd  Cd2  1  0.99999839  0.99999695  0.50000003  1  0  1.172274  0  1.723427  0  0  0.987774  0  2.175902  0  0  1.037387  0  2.128712  0  0  0.800657  0.952382  0  2.208502  0
Cd  Cd3  1  0.00000030  0.50000162  0.00000116  1  0  1.172298  0  1.723464  0  0  0.987823  0  2.175952  0  0  1.037433  0  2.128758  0  0  0.800725  0.952501  0  2.208509  0
H  H4  1  0.70525242  0.79877955  0.69477101  1  0  0.096515  0  0.947764  0  0  0.112648  0  1.006701  0  0  0.114873  0  1.005758  0  0  0.097036  0.110741  0  1.008038  0
H  H5  1  0.70525250  0.70122157  0.80522912  1  0  0.096526  0  0.947733  0  0  0.112646  0  1.006651  0  0  0.114871  0  1.005712  0  0  0.097081  0.110774  0  1.007965  0
H  H6  1  0.29474524  0.20122027  0.30522947  1  0  0.096499  0  0.947774  0  0  0.112631  0  1.006702  0  0  0.114859  0  1.005758  0  0  0.09706  0.110726  0  1.008047  0
H  H7  1  0.29474756  0.29878043  0.19477163  1  0  0.096493  0  0.947732  0  0  0.112606  0  1.006661  0  0  0.114832  0  1.005719  0  0  0.097027  0.11068  0  1.008019  0
H  H8  1  0.68322492  0.85374635  0.58740688  1  0  0.100476  0  0.944964  0  0  0.114207  0  1.009987  0  0  0.116684  0  1.00863  0  0  0.097232  0.112354  0  1.011144  0
H  H9  1  0.68323017  0.64625027  0.91259333  1  0  0.100456  0  0.945011  0  0  0.114137  0  1.010069  0  0  0.116613  0  1.008711  0  0  0.097214  0.112301  0  1.011198  0
H  H10  1  0.31677274  0.14625346  0.41259427  1  0  0.100432  0  0.944995  0  0  0.11416  0  1.010025  0  0  0.116637  0  1.008667  0  0  0.097183  0.112271  0  1.011188  0
H  H11  1  0.31677108  0.35375064  0.08740662  1  0  0.100437  0  0.945038  0  0  0.114148  0  1.010056  0  0  0.116623  0  1.0087  0  0  0.097166  0.112251  0  1.011194  0
H  H12  1  0.41937295  0.83159346  0.67425077  1  0  0.06474  0  0.939113  0  0  0.082833  0  1.000254  0  0  0.083418  0  1.001866  0  0  0.088296  0.082328  0  0.999324  0
H  H13  1  0.41937536  0.66840603  0.82574924  1  0  0.064738  0  0.939117  0  0  0.082845  0  1.000258  0  0  0.083431  0  1.001869  0  0  0.088303  0.08236  0  0.999313  0
H  H14  1  0.58062591  0.16840854  0.32574998  1  0  0.064744  0  0.939072  0  0  0.082835  0  1.000221  0  0  0.083416  0  1.001832  0  0  0.088277  0.082322  0  0.99929  0
H  H15  1  0.58062470  0.33159488  0.17425205  1  0  0.06476  0  0.93912  0  0  0.08286  0  1.000269  0  0  0.083445  0  1.001881  0  0  0.088295  0.082337  0  0.999358  0
H  H16  1  0.48500881  0.97852444  0.75868318  1  0  0.067379  0  0.946203  0  0  0.083432  0  1.010074  0  0  0.085296  0  1.008856  0  0  0.08928  0.082009  0  1.011186  0
H  H17  1  0.48500498  0.52147651  0.74131715  1  0  0.067348  0  0.946255  0  0  0.083422  0  1.010116  0  0  0.085287  0  1.008899  0  0  0.089294  0.081998  0  1.011237  0
H  H18  1  0.51499005  0.02147756  0.24131690  1  0  0.06739  0  0.9462  0  0  0.083438  0  1.010089  0  0  0.085303  0  1.008871  0  0  0.089288  0.082026  0  1.011192  0
H  H19  1  0.51499627  0.47852549  0.25868360  1  0  0.067381  0  0.94626  0  0  0.083451  0  1.010121  0  0  0.085316  0  1.008904  0  0  0.089293  0.082019  0  1.011246  0
H  H20  1  0.50809687  0.13420719  0.63546754  1  0  0.110968  0  0.906255  0  0  0.132456  0  0.953676  0  0  0.134123  0  0.953733  0  0  0.105277  0.131059  0  0.95406  0
H  H21  1  0.50809713  0.36579390  0.86453426  1  0  0.110944  0  0.906317  0  0  0.132481  0  0.953689  0  0  0.134149  0  0.953744  0  0  0.105323  0.131123  0  0.954078  0
H  H22  1  0.49190199  0.86579371  0.36453307  1  0  0.110965  0  0.906305  0  0  0.132495  0  0.953667  0  0  0.134163  0  0.953722  0  0  0.10529  0.131118  0  0.954038  0
H  H23  1  0.49190293  0.63420592  0.13546555  1  0  0.110922  0  0.906318  0  0  0.132453  0  0.953686  0  0  0.134122  0  0.953739  0  0  0.105295  0.131079  0  0.954063  0
H  H24  1  0.42917625  0.98841857  0.55594166  1  0  0.09419  0  0.946474  0  0  0.109605  0  1.009363  0  0  0.11152  0  1.008756  0  0  0.09679  0.108175  0  1.010034  0
H  H25  1  0.42917372  0.51158316  0.94405864  1  0  0.094245  0  0.946398  0  0  0.109668  0  1.009289  0  0  0.111585  0  1.008681  0  0  0.096808  0.108272  0  1.009927  0
H  H26  1  0.57082501  0.01158343  0.44405909  1  0  0.094239  0  0.946404  0  0  0.109637  0  1.009313  0  0  0.111553  0  1.008706  0  0  0.096783  0.108211  0  1.009986  0
H  H27  1  0.57082394  0.48841557  0.05594104  1  0  0.094203  0  0.946425  0  0  0.109608  0  1.00933  0  0  0.111522  0  1.008726  0  0  0.096787  0.108183  0  1.010009  0
H  H28  1  0.03146400  0.83080100  0.69018435  1  0  0.101253  0  0.972463  0  0  0.113187  0  1.030933  0  0  0.114585  0  1.031488  0  0  0.117012  0.112318  0  1.030365  0
H  H29  1  0.03146391  0.66919629  0.80981592  1  0  0.101261  0  0.972505  0  0  0.113213  0  1.030941  0  0  0.114606  0  1.031492  0  0  0.116892  0.11217  0  1.030426  0
H  H30  1  0.96853486  0.16919880  0.30981881  1  0  0.101232  0  0.972453  0  0  0.113185  0  1.030901  0  0  0.114579  0  1.031452  0  0  0.117002  0.112319  0  1.030338  0
H  H31  1  0.96853734  0.33080572  0.19018215  1  0  0.10121  0  0.972446  0  0  0.113162  0  1.030896  0  0  0.114556  0  1.031448  0  0  0.116981  0.112248  0  1.030361  0
H  H32  1  0.16556750  0.55209638  0.67454716  1  0  0.135483  0  0.990677  0  0  0.140566  0  1.058058  0  0  0.144524  0  1.05513  0  0  0.122861  0.137853  0  1.060086  0
H  H33  1  0.16556800  0.94789949  0.82545255  1  0  0.135469  0  0.990707  0  0  0.140568  0  1.058077  0  0  0.144528  0  1.055141  0  0  0.122808  0.137806  0  1.06017  0
H  H34  1  0.83443136  0.44790125  0.32545440  1  0  0.135468  0  0.990667  0  0  0.140568  0  1.058034  0  0  0.144526  0  1.055104  0  0  0.122818  0.137845  0  1.060073  0
H  H35  1  0.83443206  0.05210143  0.17454673  1  0  0.135474  0  0.990705  0  0  0.140561  0  1.058092  0  0  0.144526  0  1.055145  0  0  0.122814  0.137812  0  1.060138  0
H  H36  1  0.18177159  0.68210708  0.41787961  1  0  0.111781  0  0.980752  0  0  0.117751  0  1.051879  0  0  0.120956  0  1.047275  0  0  0.133002  0.115433  0  1.055127  0
H  H37  1  0.18177447  0.81789188  0.08212096  1  0  0.111758  0  0.980758  0  0  0.117711  0  1.051901  0  0  0.120913  0  1.047301  0  0  0.132941  0.115303  0  1.055185  0
H  H38  1  0.81822967  0.31789600  0.58212395  1  0  0.111804  0  0.980705  0  0  0.117754  0  1.051851  0  0  0.120956  0  1.047252  0  0  0.133042  0.115434  0  1.05511  0
H  H39  1  0.81822918  0.18210576  0.91787792  1  0  0.111763  0  0.980812  0  0  0.117762  0  1.051893  0  0  0.120967  0  1.047291  0  0  0.133005  0.115449  0  1.05517  0
H  H40  1  0.25584484  0.42778665  0.42069450  1  0  0.081182  0  0.933035  0  0  0.094498  0  1.001278  0  0  0.095411  0  1.001082  0  0  0.110732  0.093593  0  1.001843  0
H  H41  1  0.25584862  0.07221494  0.07930529  1  0  0.081218  0  0.932996  0  0  0.094535  0  1.001241  0  0  0.095448  0  1.001044  0  0  0.11076  0.093632  0  1.001803  0
H  H42  1  0.74415282  0.57221427  0.57930545  1  0  0.081245  0  0.933092  0  0  0.094555  0  1.001303  0  0  0.095468  0  1.001107  0  0  0.110765  0.093642  0  1.001893  0
H  H43  1  0.74415023  0.92778379  0.92069506  1  0  0.081257  0  0.933121  0  0  0.094569  0  1.001337  0  0  0.095482  0  1.001141  0  0  0.110742  0.093626  0  1.001912  0
H  H44  1  0.21259768  0.35327671  0.52003332  1  0  0.096731  0  0.941068  0  0  0.108797  0  1.007218  0  0  0.110047  0  1.006773  0  0  0.110988  0.107944  0  1.007611  0
H  H45  1  0.21259859  0.14672054  0.97996539  1  0  0.096704  0  0.941115  0  0  0.108782  0  1.007244  0  0  0.110032  0  1.0068  0  0  0.110961  0.107897  0  1.007633  0
H  H46  1  0.78740118  0.64672420  0.47996729  1  0  0.096762  0  0.940988  0  0  0.108786  0  1.007171  0  0  0.110037  0  1.006726  0  0  0.110952  0.107899  0  1.007555  0
H  H47  1  0.78740266  0.85327601  0.02003336  1  0  0.096781  0  0.941007  0  0  0.108816  0  1.007173  0  0  0.110068  0  1.006729  0  0  0.110944  0.107924  0  1.00755  0
H  H48  1  0.46505167  0.45900454  0.59342302  1  0  0.073709  0  0.935867  0  0  0.093377  0  0.994844  0  0  0.094259  0  0.994751  0  0  0.09431  0.092599  0  0.995219  0
H  H49  1  0.46505026  0.04099522  0.90657786  1  0  0.073687  0  0.935856  0  0  0.093356  0  0.994843  0  0  0.094238  0  0.99475  0  0  0.094294  0.092568  0  0.995227  0
H  H50  1  0.53494719  0.54099527  0.40657880  1  0  0.073678  0  0.935795  0  0  0.093374  0  0.994771  0  0  0.094258  0  0.994674  0  0  0.094296  0.092594  0  0.995143  0
H  H51  1  0.53494979  0.95900460  0.09342128  1  0  0.073672  0  0.935794  0  0  0.093351  0  0.994776  0  0  0.094233  0  0.994683  0  0  0.094286  0.092563  0  0.995154  0
H  H52  1  0.49752234  0.33273221  0.49138704  1  0  0.073139  0  0.937102  0  0  0.094857  0  0.993655  0  0  0.094776  0  0.995312  0  0  0.096057  0.094807  0  0.992663  0
H  H53  1  0.49752382  0.16726637  0.00861289  1  0  0.073134  0  0.937083  0  0  0.094854  0  0.993639  0  0  0.094773  0  0.995295  0  0  0.096059  0.094805  0  0.992668  0
H  H54  1  0.50247772  0.66726869  0.50861425  1  0  0.073119  0  0.937123  0  0  0.094855  0  0.99368  0  0  0.094773  0  0.995337  0  0  0.096056  0.094798  0  0.99269  0
H  H55  1  0.50247623  0.83273235  0.99138679  1  0  0.073123  0  0.9371  0  0  0.094842  0  0.993658  0  0  0.094761  0  0.995314  0  0  0.096059  0.094795  0  0.99267  0
C  C56  1  0.77966308  0.01685882  0.69439145  1  0  0.697449  0  3.850852  0  0  0.653421  0  4.143405  0  0  0.68737  0  4.138039  0  0  0.198913  0.630448  0  4.145824  0
C  C57  1  0.77966604  0.48314274  0.80560562  1  0  0.69736  0  3.850787  0  0  0.653293  0  4.143383  0  0  0.687241  0  4.138018  0  0  0.198882  0.630333  0  4.145767  0
C  C58  1  0.22033578  0.98314099  0.30560903  1  0  0.697675  0  3.850742  0  0  0.653513  0  4.143483  0  0  0.687461  0  4.138115  0  0  0.19892  0.630483  0  4.145944  0
C  C59  1  0.22033641  0.51685817  0.19439366  1  0  0.69742  0  3.850629  0  0  0.653341  0  4.143234  0  0  0.687287  0  4.137869  0  0  0.198861  0.630342  0  4.14566  0
C  C60  1  0.66898760  0.88909936  0.66151678  1  0  -0.269928  0  3.668535  0  0  -0.310058  0  3.921876  0  0  -0.31617  0  3.929607  0  0  -0.168451  -0.305639  0  3.916478  0
C  C61  1  0.66898975  0.61089937  0.83848231  1  0  -0.269903  0  3.668538  0  0  -0.30994  0  3.921841  0  0  -0.316059  0  3.929589  0  0  -0.168456  -0.305548  0  3.916408  0
C  C62  1  0.33101007  0.11090155  0.33848383  1  0  -0.269878  0  3.668357  0  0  -0.309953  0  3.921714  0  0  -0.316074  0  3.92946  0  0  -0.168455  -0.305523  0  3.916305  0
C  C63  1  0.33101390  0.38910154  0.16151830  1  0  -0.269908  0  3.66859  0  0  -0.309921  0  3.921811  0  0  -0.316041  0  3.929561  0  0  -0.168475  -0.30552  0  3.916384  0
C  C64  1  0.49400429  0.93057899  0.68561044  1  0  -0.054323  0  3.678896  0  0  -0.096346  0  3.93918  0  0  -0.0959  0  3.951931  0  0  -0.164626  -0.096471  0  3.930203  0
C  C65  1  0.49400484  0.56942093  0.81438978  1  0  -0.054234  0  3.678867  0  0  -0.096309  0  3.939228  0  0  -0.095866  0  3.951981  0  0  -0.164606  -0.096426  0  3.930253  0
C  C66  1  0.50599457  0.06942411  0.31438977  1  0  -0.054269  0  3.678759  0  0  -0.096309  0  3.939084  0  0  -0.095858  0  3.951827  0  0  -0.164561  -0.096423  0  3.930095  0
C  C67  1  0.50599642  0.43057998  0.18561017  1  0  -0.054345  0  3.679003  0  0  -0.09644  0  3.939358  0  0  -0.095995  0  3.952109  0  0  -0.164707  -0.096601  0  3.930418  0
C  C68  1  0.42946592  0.03761826  0.62898446  1  0  -0.261908  0  3.671432  0  0  -0.299362  0  3.923621  0  0  -0.30537  0  3.932206  0  0  -0.167039  -0.295213  0  3.917794  0
C  C69  1  0.42946560  0.46238240  0.87101578  1  0  -0.262054  0  3.671357  0  0  -0.299588  0  3.923641  0  0  -0.305595  0  3.932228  0  0  -0.167053  -0.295408  0  3.91779  0
C  C70  1  0.57053534  0.96238265  0.37101548  1  0  -0.262099  0  3.671459  0  0  -0.299579  0  3.923661  0  0  -0.305585  0  3.932238  0  0  -0.167067  -0.295426  0  3.917838  0
C  C71  1  0.57053326  0.53761743  0.12898336  1  0  -0.261921  0  3.671415  0  0  -0.299401  0  3.923656  0  0  -0.305407  0  3.932238  0  0  -0.167044  -0.295254  0  3.917837  0
C  C72  1  0.26295268  0.09615807  0.65394703  1  0  0.704093  0  3.852736  0  0  0.654699  0  4.151988  0  0  0.688844  0  4.146258  0  0  0.199912  0.631421  0  4.155285  0
C  C73  1  0.26295185  0.40384167  0.84604941  1  0  0.704201  0  3.852475  0  0  0.654853  0  4.15169  0  0  0.688991  0  4.145962  0  0  0.199953  0.631589  0  4.155006  0
C  C74  1  0.73704618  0.90384394  0.34605305  1  0  0.704203  0  3.852693  0  0  0.654828  0  4.151916  0  0  0.688972  0  4.146184  0  0  0.199974  0.631561  0  4.155242  0
C  C75  1  0.73704701  0.59615709  0.15394625  1  0  0.704075  0  3.852769  0  0  0.654694  0  4.152017  0  0  0.688839  0  4.146288  0  0  0.199922  0.63145  0  4.155322  0
C  C76  1  0.08104870  0.75863484  0.63128374  1  0  -0.008246  0  3.763206  0  0  -0.041687  0  4.030127  0  0  -0.040167  0  4.052704  0  0  -0.008892  -0.042488  0  4.014413  0
C  C77  1  0.08105183  0.74135837  0.86871613  1  0  -0.008291  0  3.763278  0  0  -0.041734  0  4.030218  0  0  -0.040207  0  4.052789  0  0  -0.009078  -0.042665  0  4.014631  0
C  C78  1  0.91895136  0.24136278  0.36871848  1  0  -0.008296  0  3.763172  0  0  -0.041755  0  4.030125  0  0  -0.040229  0  4.052693  0  0  -0.008904  -0.042581  0  4.014449  0
C  C79  1  0.91894942  0.25864146  0.13128234  1  0  -0.008278  0  3.763152  0  0  -0.041724  0  4.030093  0  0  -0.0402  0  4.052665  0  0  -0.00901  -0.042589  0  4.014401  0
C  C80  1  0.14662590  0.62186417  0.62487351  1  0  -0.074739  0  3.649147  0  0  -0.114571  0  3.907745  0  0  -0.11348  0  3.925853  0  0  -0.000453  -0.115139  0  3.895452  0
C  C81  1  0.14662871  0.87813158  0.87512682  1  0  -0.07476  0  3.649234  0  0  -0.114603  0  3.907807  0  0  -0.113513  0  3.925919  0  0  -0.000474  -0.115257  0  3.89564  0
C  C82  1  0.85337176  0.37813344  0.37512939  1  0  -0.074699  0  3.649129  0  0  -0.114531  0  3.907706  0  0  -0.113441  0  3.925815  0  0  -0.000356  -0.11505  0  3.895405  0
C  C83  1  0.85337135  0.12186825  0.12487032  1  0  -0.074696  0  3.649089  0  0  -0.114533  0  3.907663  0  0  -0.113442  0  3.925778  0  0  -0.000401  -0.115119  0  3.895354  0
C  C84  1  0.15762194  0.68828244  0.48992610  1  0  0.155111  0  3.64145  0  0  0.094086  0  3.902977  0  0  0.108216  0  3.915637  0  0  0.1386  0.084848  0  3.894071  0
C  C85  1  0.15762430  0.81171420  0.01007414  1  0  0.155181  0  3.641364  0  0  0.09418  0  3.902892  0  0  0.108311  0  3.915551  0  0  0.138609  0.084936  0  3.894  0
C  C86  1  0.84237692  0.31171737  0.51007572  1  0  0.155213  0  3.641394  0  0  0.094214  0  3.902924  0  0  0.108345  0  3.915582  0  0  0.138638  0.084989  0  3.89401  0
C  C87  1  0.84237576  0.18828564  0.98992299  1  0  0.155232  0  3.64156  0  0  0.094211  0  3.903043  0  0  0.10834  0  3.915705  0  0  0.138774  0.08498  0  3.894205  0
C  C88  1  0.27319603  0.44227439  0.49489892  1  0  -0.013972  0  3.612134  0  0  -0.075832  0  3.869388  0  0  -0.072341  0  3.881142  0  0  -0.05532  -0.078009  0  3.861235  0
C  C89  1  0.27319683  0.05772619  0.00510078  1  0  -0.013975  0  3.612213  0  0  -0.07584  0  3.869471  0  0  -0.07235  0  3.88123  0  0  -0.055363  -0.078052  0  3.861349  0
C  C90  1  0.72680283  0.55772541  0.50510357  1  0  -0.014123  0  3.612239  0  0  -0.075918  0  3.869477  0  0  -0.07243  0  3.881231  0  0  -0.055366  -0.078102  0  3.861304  0
C  C91  1  0.72680442  0.94227473  0.99489648  1  0  -0.014186  0  3.612369  0  0  -0.075973  0  3.869537  0  0  -0.072486  0  3.881294  0  0  -0.055388  -0.07817  0  3.861349  0
C  C92  1  0.45131799  0.44292304  0.51870176  1  0  -0.12275  0  3.679424  0  0  -0.165754  0  3.943855  0  0  -0.166851  0  3.957708  0  0  -0.162363  -0.164705  0  3.933969  0
C  C93  1  0.45131718  0.05707773  0.98129855  1  0  -0.122737  0  3.679402  0  0  -0.165758  0  3.943839  0  0  -0.166855  0  3.957693  0  0  -0.162343  -0.164677  0  3.93397  0
C  C94  1  0.54868326  0.55707895  0.48130033  1  0  -0.122642  0  3.679353  0  0  -0.165728  0  3.943823  0  0  -0.166823  0  3.957676  0  0  -0.162328  -0.164653  0  3.933901  0
C  C95  1  0.54868407  0.94292209  0.01869992  1  0  -0.122632  0  3.67935  0  0  -0.165656  0  3.943768  0  0  -0.166751  0  3.957622  0  0  -0.162323  -0.164593  0  3.933874  0
N  N96  1  0.08875193  0.79892465  0.54680394  1  0  -0.401515  0  3.273926  0  0  -0.31941  0  3.553933  0  0  -0.342124  0  3.572962  0  0  -0.366533  -0.303641  0  3.540514  0
N  N97  1  0.08875538  0.70107077  0.95319690  1  0  -0.401542  0  3.274001  0  0  -0.319453  0  3.554033  0  0  -0.342165  0  3.573055  0  0  -0.366652  -0.303802  0  3.540664  0
N  N98  1  0.91125173  0.20107188  0.45319816  1  0  -0.401503  0  3.273892  0  0  -0.319388  0  3.553866  0  0  -0.342105  0  3.572904  0  0  -0.366501  -0.303616  0  3.540415  0
N  N99  1  0.91124827  0.29893124  0.04680184  1  0  -0.401517  0  3.273916  0  0  -0.319427  0  3.553934  0  0  -0.34214  0  3.572958  0  0  -0.366545  -0.303663  0  3.540538  0
N  N100  1  0.19350823  0.57927046  0.53486161  1  0  -0.050668  0  3.568046  0  0  0.045054  0  3.783682  0  0  0.030576  0  3.810427  0  0  -0.242158  0.054784  0  3.765321  0
N  N101  1  0.19350949  0.92072775  0.96513844  1  0  -0.050632  0  3.568092  0  0  0.045087  0  3.78373  0  0  0.030607  0  3.810478  0  0  -0.242213  0.054788  0  3.765388  0
N  N102  1  0.80649183  0.42072826  0.46513941  1  0  -0.050737  0  3.568263  0  0  0.044962  0  3.7839  0  0  0.030485  0  3.810646  0  0  -0.242247  0.054678  0  3.765531  0
N  N103  1  0.80649176  0.07927209  0.03485869  1  0  -0.050704  0  3.568274  0  0  0.044989  0  3.78393  0  0  0.03051  0  3.810679  0  0  -0.24226  0.054739  0  3.765522  0
O  O104  1  0.84355295  0.08383061  0.63528914  1  0  -0.701982  0  2.058082  0  0  -0.623898  0  2.321752  0  0  -0.656186  0  2.309649  0  0  -0.337554  -0.600887  0  2.328937  0
O  O105  1  0.84356190  0.41617461  0.86470717  1  0  -0.701923  0  2.058136  0  0  -0.623846  0  2.321831  0  0  -0.656137  0  2.309735  0  0  -0.33737  -0.600636  0  2.328914  0
O  O106  1  0.15644591  0.91617139  0.36471161  1  0  -0.702056  0  2.058075  0  0  -0.623931  0  2.321814  0  0  -0.656219  0  2.309712  0  0  -0.337503  -0.600842  0  2.328978  0
O  O107  1  0.15643816  0.58382413  0.13529117  1  0  -0.701951  0  2.058015  0  0  -0.623878  0  2.321729  0  0  -0.656166  0  2.309628  0  0  -0.337537  -0.600841  0  2.328878  0
O  O108  1  0.80489745  0.05788318  0.77915792  1  0  -0.64049  0  1.918094  0  0  -0.586033  0  2.155417  0  0  -0.614297  0  2.146624  0  0  -0.327389  -0.566308  0  2.160966  0
O  O109  1  0.80489601  0.44211635  0.72083895  1  0  -0.640472  0  1.917943  0  0  -0.585968  0  2.15524  0  0  -0.614227  0  2.146446  0  0  -0.327376  -0.566241  0  2.160776  0
O  O110  1  0.19510141  0.94211772  0.22084404  1  0  -0.640611  0  1.918174  0  0  -0.586097  0  2.15555  0  0  -0.614359  0  2.146755  0  0  -0.327419  -0.566366  0  2.161109  0
O  O111  1  0.19510644  0.55788456  0.27916099  1  0  -0.640474  0  1.917893  0  0  -0.585972  0  2.155204  0  0  -0.614234  0  2.14641  0  0  -0.327396  -0.566279  0  2.160772  0
O  O112  1  0.18723041  0.15495135  0.59567698  1  0  -0.699925  0  1.988893  0  0  -0.6384  0  2.250383  0  0  -0.666242  0  2.238459  0  0  -0.350154  -0.619007  0  2.258276  0
O  O113  1  0.18722243  0.34504903  0.90432072  1  0  -0.699984  0  1.988708  0  0  -0.638492  0  2.250219  0  0  -0.666317  0  2.238254  0  0  -0.350191  -0.619074  0  2.258099  0
O  O114  1  0.81277084  0.84504737  0.40432404  1  0  -0.699996  0  1.988849  0  0  -0.63845  0  2.250281  0  0  -0.666297  0  2.238362  0  0  -0.350101  -0.61895  0  2.258141  0
O  O115  1  0.81277044  0.65494972  0.09567494  1  0  -0.699957  0  1.988915  0  0  -0.638436  0  2.250409  0  0  -0.666281  0  2.238488  0  0  -0.35008  -0.618956  0  2.258265  0
O  O116  1  0.20724559  0.08856655  0.73244576  1  0  -0.640551  0  2.000311  0  0  -0.56966  0  2.241044  0  0  -0.600843  0  2.233069  0  0  -0.32106  -0.548382  0  2.246135  0
O  O117  1  0.20725386  0.41142960  0.76754945  1  0  -0.640549  0  2.000343  0  0  -0.569648  0  2.241013  0  0  -0.600826  0  2.233041  0  0  -0.320986  -0.54836  0  2.246113  0
O  O118  1  0.79275567  0.91143327  0.26755472  1  0  -0.640562  0  2.000332  0  0  -0.569655  0  2.241018  0  0  -0.600835  0  2.233043  0  0  -0.32105  -0.548372  0  2.24612  0
O  O119  1  0.79275099  0.58856916  0.23244554  1  0  -0.640433  0  2.000229  0  0  -0.569575  0  2.240992  0  0  -0.600755  0  2.23302  0  0  -0.321013  -0.548315  0  2.2461  0
