# generated using pymatgen
data_ZnH12C21SN2O7
_symmetry_space_group_name_H-M   'P 1'
_cell_length_a   13.73148254
_cell_length_b   14.09055423
_cell_length_c   14.99000739
_cell_angle_alpha   87.46798292
_cell_angle_beta   90.25154326
_cell_angle_gamma   82.44481323
_symmetry_Int_Tables_number   1
_chemical_formula_structural   ZnH12C21SN2O7
_chemical_formula_sum   'Zn2 H24 C42 S2 N4 O14'
_cell_volume   2872.19153957
_cell_formula_units_Z   2
loop_
 _symmetry_equiv_pos_site_id
 _symmetry_equiv_pos_as_xyz
  1  'x, y, z'
loop_
 _atom_site_type_symbol
 _atom_site_label
 _atom_site_symmetry_multiplicity
 _atom_site_fract_x
 _atom_site_fract_y
 _atom_site_fract_z
 _atom_site_occupancy
 _atom_site_pbe_bader_charge
 _atom_site_pbe_bader_spin_density
 _atom_site_pbe_cm5_charge
 _atom_site_pbe_ddec_charge
 _atom_site_pbe_ddec_spin_density
 _atom_site_pbe_ddec_sum_bond_order
 _atom_site_pbe_magmom
Zn  Zn0  1  0.49111660  0.60781021  0.48951705  1  1.308112  0  0.688017  0.877735  0  2.280783  0
Zn  Zn1  1  0.51400583  0.38887285  0.51976270  1  1.320545  0  0.696661  0.873452  0  2.313929  0
H  H2  1  0.98043601  0.55183468  0.39771283  1  0.135815  0  0.124388  0.134169  0  0.953429  0
H  H3  1  0.39450938  0.27396786  0.42822262  1  0.140167  0  0.125209  0.106542  0  0.995076  0
H  H4  1  0.67567093  0.85806679  0.64097218  1  0.082959  0  0.11497  0.1186  0  0.974342  0
H  H5  1  0.30555579  0.14352589  0.36294004  1  0.06222  0  0.115548  0.119394  0  0.976456  0
H  H6  1  0.68392636  0.02941453  0.65987092  1  0.061707  0  0.107475  0.103485  0  1.012006  0
H  H7  1  0.29848108  0.97434245  0.34265736  1  0.036261  0  0.109147  0.10169  0  1.004489  0
H  H8  1  0.65558681  0.59185227  0.32856670  1  0.642738  0  0.303838  0.370997  0  0.961993  0
H  H9  1  0.30048567  0.59442933  0.66085280  1  0.64743  0  0.332809  0.393776  0  0.8754  0
H  H10  1  0.33703329  0.84803202  0.31272633  1  0.446338  0  0.319814  0.257102  0  0.95666  0
H  H11  1  0.38903421  0.72999346  0.22201947  1  0.05123  0  0.111078  0.120024  0  0.968516  0
H  H12  1  0.36984513  0.65037511  0.31472293  1  0.122587  0  0.100409  0.123732  0  1.028441  0
H  H13  1  0.02344414  0.46439169  0.58920269  1  0.13195  0  0.127135  0.135546  0  0.949368  0
H  H14  1  0.48774499  0.68692467  0.29681205  1  0.091873  0  0.104823  0.120266  0  1.018304  0
H  H15  1  0.64971669  0.17856331  0.68162257  1  0.408701  0  0.305617  0.251054  0  0.940699  0
H  H16  1  0.77620002  0.14855351  0.56749442  1  0.02184  0  0.084602  0.077308  0  1.011185  0
H  H17  1  0.78097855  0.25940866  0.62141982  1  0.033455  0  0.106441  0.121298  0  0.972809  0
H  H18  1  0.72564091  0.26110773  0.51486466  1  0.108383  0  0.11028  0.136759  0  0.989299  0
H  H19  1  0.39549527  0.45092741  0.24468276  1  0.088733  0  0.109441  0.117255  0  0.990472  0
H  H20  1  0.61649962  0.54618362  0.76133684  1  0.077444  0  0.11011  0.119084  0  0.98468  0
H  H21  1  0.75824178  0.53376954  0.05183821  1  0.148864  0  0.109372  0.131108  0  1.034851  0
H  H22  1  0.24853655  0.48835085  0.95649769  1  0.097124  0  0.111252  0.121508  0  1.008253  0
H  H23  1  0.72644433  0.55274096  0.89064898  1  0.074568  0  0.109457  0.111615  0  0.981789  0
H  H24  1  0.28215769  0.46189708  0.11664097  1  0.078924  0  0.109149  0.111661  0  0.981737  0
H  H25  1  0.59975693  0.72946045  0.56451836  1  0.144199  0  0.121696  0.107003  0  1.024301  0
C  C26  1  0.46230237  0.52512444  0.66993514  1  1.611787  0  0.217768  0.596535  0  4.206469  0
C  C27  1  0.34066276  0.47761233  0.07149124  1  -0.074168  0  -0.083643  -0.12348  0  4.000237  0
C  C28  1  0.43129487  0.82173990  0.41521765  1  1.016031  0  0.241737  0.331763  0  4.016666  0
C  C29  1  0.57012311  0.17881437  0.56928543  1  0.909747  0  0.224205  0.310055  0  3.987357  0
C  C30  1  0.55180048  0.78586394  0.52781495  1  0.439219  0  0.049716  0.05835  0  3.907346  0
C  C31  1  0.44088015  0.21669736  0.46525863  1  0.517051  0  0.059455  0.065127  0  3.881909  0
C  C32  1  0.55574939  0.88169647  0.54406244  1  0.05717  0  -0.017565  0.007427  0  4.084051  0
C  C33  1  0.42832561  0.12032029  0.45710849  1  -0.027894  0  -0.003393  0.027384  0  4.051818  0
C  C34  1  0.48816832  0.95127343  0.49613817  1  -0.013286  0  0.012859  0.037472  0  3.949534  0
C  C35  1  0.49200789  0.05034489  0.50796026  1  0.021861  0  0.017483  0.042165  0  3.918745  0
C  C36  1  0.42198854  0.92213747  0.43356407  1  -0.040197  0  -0.00873  -0.061158  0  4.000654  0
C  C37  1  0.54746681  0.47325317  0.33758615  1  1.624974  0  0.224875  0.603661  0  4.156483  0
C  C38  1  0.56344147  0.07955979  0.56634774  1  0.026217  0  -0.001223  -0.038729  0  3.99498  0
C  C39  1  0.62475110  0.91236685  0.60467241  1  -0.063107  0  -0.076858  -0.1043  0  4.000941  0
C  C40  1  0.35716026  0.08966988  0.39898216  1  0.043572  0  -0.077342  -0.111653  0  3.98921  0
C  C41  1  0.32092675  0.50300891  0.46618129  1  1.668312  0  0.219044  0.666378  0  4.247549  0
C  C42  1  0.68284602  0.49924356  0.53864385  1  1.670776  0  0.226895  0.673292  0  4.23691  0
C  C43  1  0.62893782  0.00758468  0.61527140  1  -0.027715  0  -0.09451  -0.13616  0  4.033989  0
C  C44  1  0.35446754  0.99405904  0.38760775  1  -0.050065  0  -0.086945  -0.121725  0  4.028967  0
C  C45  1  0.78763540  0.49962946  0.54381001  1  0.164085  0  -0.038993  -0.193888  0  3.926378  0
C  C46  1  0.21623540  0.51093789  0.45340669  1  0.181768  0  -0.05113  -0.209785  0  3.955129  0
C  C47  1  0.97867775  0.49331595  0.53124042  1  0.085779  0  -0.059002  -0.053727  0  4.053744  0
C  C48  1  0.51350524  0.50252417  0.05096475  1  -0.008362  0  0.005286  0.001198  0  3.897487  0
C  C49  1  0.02412906  0.52264129  0.45617690  1  0.054354  0  -0.064973  -0.065772  0  4.052886  0
C  C50  1  0.12673049  0.51713497  0.45250536  1  -0.461713  0  -0.023097  0.021721  0  4.144269  0
C  C51  1  0.87653272  0.49759476  0.53827526  1  -0.440838  0  -0.0181  0.02407  0  4.130599  0
C  C52  1  0.45423100  0.46771055  0.20031866  1  0.05523  0  -0.081274  -0.14687  0  3.942813  0
C  C53  1  0.55572304  0.53810332  0.80653562  1  -0.026252  0  -0.079803  -0.144313  0  3.924998  0
C  C54  1  0.54563685  0.47680047  0.23696508  1  -0.083218  0  -0.010814  -0.031012  0  3.99029  0
C  C55  1  0.46303612  0.53129492  0.77033508  1  0.040752  0  -0.008065  -0.016666  0  3.985245  0
C  C56  1  0.62348991  0.49725379  0.18113521  1  -0.094492  0  -0.014598  -0.17207  0  3.868642  0
C  C57  1  0.38383381  0.52218558  0.82733683  1  -0.164832  0  -0.012018  -0.168311  0  3.883135  0
C  C58  1  0.60956433  0.50930042  0.08724861  1  -0.017703  0  0.004672  0.084344  0  3.977674  0
C  C59  1  0.49467878  0.51529212  0.95721703  1  0.018312  0  0.004858  -0.000706  0  3.906526  0
C  C60  1  0.39848281  0.51093328  0.92141931  1  0.044924  0  0.004389  0.081902  0  3.978946  0
C  C61  1  0.40848895  0.71018028  0.29204516  1  0.239015  0  -0.139204  -0.224583  0  3.922374  0
C  C62  1  0.73642587  0.22037296  0.57874389  1  0.241957  0  -0.143382  -0.2149  0  3.941666  0
C  C63  1  0.43582133  0.48214606  0.10845724  1  -0.094679  0  -0.004931  0.083195  0  4.068342  0
C  C64  1  0.57279606  0.53222663  0.89868646  1  -0.030722  0  -0.003747  0.08402  0  4.067369  0
C  C65  1  0.68543805  0.52834559  0.02570252  1  -0.076582  0  -0.089231  -0.132966  0  3.979799  0
C  C66  1  0.32199916  0.49259583  0.98213291  1  0.015647  0  -0.082118  -0.11712  0  3.974429  0
C  C67  1  0.66740231  0.53907370  0.93603204  1  -0.011351  0  -0.083106  -0.120229  0  4.006037  0
S  S68  1  0.73802268  0.50410496  0.23838101  1  3.08263  0  0.528373  1.153465  0  6.031887  0
S  S69  1  0.25943341  0.53069023  0.78735372  1  3.061818  0  0.531341  1.161238  0  6.02648  0
N  N70  1  0.49178383  0.75571333  0.46616193  1  -1.224786  0  -0.329665  -0.32129  0  3.448005  0
N  N71  1  0.50953608  0.24397738  0.51887368  1  -1.252281  0  -0.31488  -0.272837  0  3.518402  0
N  N72  1  0.38206511  0.79440581  0.34434988  1  -1.215979  0  -0.420398  -0.267928  0  3.574762  0
N  N73  1  0.64031550  0.21555048  0.62158468  1  -1.092026  0  -0.462004  -0.364104  0  3.450268  0
O  O74  1  0.43633164  0.60143363  0.62135613  1  -1.18257  0  -0.325311  -0.579912  0  2.275211  0
O  O75  1  0.81700201  0.51773664  0.17861900  1  -1.301895  0  -0.314782  -0.520903  0  2.143865  0
O  O76  1  0.71292027  0.60208781  0.28705603  1  -1.225411  0  -0.375744  -0.542103  0  2.159757  0
O  O77  1  0.22049027  0.44207095  0.80533699  1  -1.291096  0  -0.320094  -0.523207  0  2.082871  0
O  O78  1  0.20896813  0.61904644  0.81879225  1  -1.288448  0  -0.329429  -0.546522  0  2.080387  0
O  O79  1  0.26784175  0.53871953  0.68120905  1  -1.195632  0  -0.351116  -0.51502  0  2.224919  0
O  O80  1  0.52006508  0.40177814  0.37813269  1  -1.160232  0  -0.294722  -0.517482  0  2.309724  0
O  O81  1  0.49449946  0.44305307  0.64425757  1  -1.150224  0  -0.297733  -0.51785  0  2.341798  0
O  O82  1  0.56663556  0.54982824  0.37487787  1  -1.187705  0  -0.311496  -0.589139  0  2.42089  0
O  O83  1  0.36143418  0.57753171  0.44391165  1  -1.160283  0  -0.315255  -0.555616  0  2.332804  0
O  O84  1  0.65427951  0.41935692  0.52437998  1  -1.13789  0  -0.287589  -0.510293  0  2.348016  0
O  O85  1  0.36353468  0.42395636  0.49911742  1  -1.143517  0  -0.298805  -0.5298  0  2.299306  0
O  O86  1  0.62869177  0.57926436  0.54724852  1  -1.158867  0  -0.314333  -0.559376  0  2.313728  0
O  O87  1  0.74966322  0.42522087  0.30393943  1  -1.281144  0  -0.320547  -0.533418  0  2.119743  0
