# generated using pymatgen
data_Ag5H2C8N5O9
_symmetry_space_group_name_H-M   'P 1'
_cell_length_a   8.59109642
_cell_length_b   8.76773777
_cell_length_c   10.05764207
_cell_angle_alpha   79.12436966
_cell_angle_beta   78.50816621
_cell_angle_gamma   79.09399128
_symmetry_Int_Tables_number   1
_chemical_formula_structural   Ag5H2C8N5O9
_chemical_formula_sum   'Ag10 H4 C16 N10 O18'
_cell_volume   719.96114657
_cell_formula_units_Z   2
loop_
 _symmetry_equiv_pos_site_id
 _symmetry_equiv_pos_as_xyz
  1  'x, y, z'
loop_
 _atom_site_type_symbol
 _atom_site_label
 _atom_site_symmetry_multiplicity
 _atom_site_fract_x
 _atom_site_fract_y
 _atom_site_fract_z
 _atom_site_occupancy
 _atom_site_hle17_bader_spin_density
 _atom_site_hle17_ddec_charge
 _atom_site_hle17_ddec_spin_density
 _atom_site_hle17_ddec_sum_bond_order
 _atom_site_hle17_magmom
 _atom_site_hse06_10hf_bader_spin_density
 _atom_site_hse06_10hf_ddec_charge
 _atom_site_hse06_10hf_ddec_spin_density
 _atom_site_hse06_10hf_ddec_sum_bond_order
 _atom_site_hse06_10hf_magmom
 _atom_site_hse06_bader_spin_density
 _atom_site_hse06_ddec_charge
 _atom_site_hse06_ddec_spin_density
 _atom_site_hse06_ddec_sum_bond_order
 _atom_site_hse06_magmom
 _atom_site_pbe_bader_spin_density
 _atom_site_pbe_cm5_charge
 _atom_site_pbe_ddec_charge
 _atom_site_pbe_ddec_spin_density
 _atom_site_pbe_ddec_sum_bond_order
 _atom_site_pbe_magmom
Ag  Ag0  1  0.50219032  0.84297577  0.08518332  1  0  0.522867  0  1.659145  0  0  0.42205  0  2.105019  0  0  0.445532  0  2.054442  0  0  0.43782  0.405832  0  2.139919  0
Ag  Ag1  1  0.49781202  0.15703500  0.91481177  1  0  0.522831  0  1.659188  0  0  0.42206  0  2.105003  0  0  0.445539  0  2.054425  0  0  0.437841  0.40584  0  2.139905  0
Ag  Ag2  1  0.39638055  0.52829212  0.13431418  1  0  0.433898  0  2.114481  0  0  0.353867  0  2.611506  0  0  0.365815  0  2.564643  0  0  0.356029  0.345975  0  2.643504  0
Ag  Ag3  1  0.60362369  0.47170568  0.86567779  1  0  0.43397  0  2.114438  0  0  0.35393  0  2.61149  0  0  0.365879  0  2.56462  0  0  0.356068  0.346042  0  2.643479  0
Ag  Ag4  1  0.49148759  0.59939292  0.36451214  1  0  0.507591  0  1.75233  0  0  0.395556  0  2.231039  0  0  0.419198  0  2.180305  0  0  0.419463  0.378422  0  2.267123  0
Ag  Ag5  1  0.50852088  0.40059190  0.63547933  1  0  0.507572  0  1.75235  0  0  0.395503  0  2.23109  0  0  0.419165  0  2.180321  0  0  0.419443  0.37837  0  2.267173  0
Ag  Ag6  1  0.11656673  0.37876650  0.31737648  1  0  0.645118  0  1.512401  0  0  0.568597  0  1.950277  0  0  0.589119  0  1.901643  0  0  0.492497  0.553589  0  1.984834  0
Ag  Ag7  1  0.88342938  0.62123737  0.68262472  1  0  0.645065  0  1.512409  0  0  0.568537  0  1.950288  0  0  0.589066  0  1.901653  0  0  0.492468  0.553529  0  1.98485  0
Ag  Ag8  1  0.11640193  0.77907247  0.06034854  1  0  0.656179  0  1.410453  0  0  0.569894  0  1.833016  0  0  0.58863  0  1.787022  0  0  0.449564  0.55592  0  1.865577  0
Ag  Ag9  1  0.88359996  0.22092312  0.93966107  1  0  0.656216  0  1.410426  0  0  0.569922  0  1.832971  0  0  0.588661  0  1.786978  0  0  0.449564  0.55595  0  1.86553  0
H  H10  1  0.22753391  0.01359545  0.44580280  1  0  0.144991  0  0.942761  0  0  0.149366  0  1.009205  0  0  0.154242  0  1.005064  0  0  0.119534  0.14592  0  1.012216  0
H  H11  1  0.77245371  0.98640864  0.55420766  1  0  0.145002  0  0.942483  0  0  0.149305  0  1.009044  0  0  0.15418  0  1.004905  0  0  0.119505  0.145857  0  1.012061  0
H  H12  1  0.24817618  0.80133536  0.64937412  1  0  0.146812  0  0.939619  0  0  0.155037  0  0.999346  0  0  0.15899  0  0.996408  0  0  0.122162  0.151921  0  1.001928  0
H  H13  1  0.75180954  0.19866639  0.35062908  1  0  0.146789  0  0.939666  0  0  0.155026  0  0.999403  0  0  0.158979  0  0.996465  0  0  0.122183  0.151911  0  1.001982  0
C  C14  1  0.33342155  0.17029672  0.53329270  1  0  0.246066  0  3.803981  0  0  0.237591  0  4.048818  0  0  0.246664  0  4.06595  0  0  0.129812  0.231515  0  4.037368  0
C  C15  1  0.66657697  0.82970711  0.46670713  1  0  0.245959  0  3.803758  0  0  0.23739  0  4.04876  0  0  0.24646  0  4.065895  0  0  0.129773  0.231323  0  4.037279  0
C  C16  1  0.27691432  0.02975979  0.53298148  1  0  -0.069204  0  3.611457  0  0  -0.098275  0  3.870216  0  0  -0.099651  0  3.883903  0  0  -0.054824  -0.098519  0  3.86218  0
C  C17  1  0.72307561  0.97025475  0.46701495  1  0  -0.069168  0  3.61139  0  0  -0.098129  0  3.870161  0  0  -0.099505  0  3.883852  0  0  -0.054763  -0.098377  0  3.862126  0
C  C18  1  0.28959632  0.91252866  0.64419186  1  0  -0.047331  0  3.577375  0  0  -0.07013  0  3.823607  0  0  -0.070266  0  3.837472  0  0  -0.043692  -0.070181  0  3.815936  0
C  C19  1  0.71039123  0.08747658  0.35581345  1  0  -0.047362  0  3.577753  0  0  -0.070188  0  3.824033  0  0  -0.070325  0  3.837897  0  0  -0.043726  -0.070238  0  3.816359  0
C  C20  1  0.35544932  0.94060312  0.75365028  1  0  0.242171  0  3.764505  0  0  0.237319  0  4.000309  0  0  0.245395  0  4.016793  0  0  0.134792  0.230379  0  3.990793  0
C  C21  1  0.64454936  0.05940774  0.24635034  1  0  0.242316  0  3.764649  0  0  0.237369  0  4.000623  0  0  0.24545  0  4.017102  0  0  0.134769  0.230425  0  3.991105  0
C  C22  1  0.32658993  0.30032420  0.42527401  1  0  -0.077888  0  3.873849  0  0  -0.070818  0  4.145954  0  0  -0.072558  0  4.170817  0  0  -0.093379  -0.069678  0  4.129486  0
C  C23  1  0.67340537  0.69966912  0.57472410  1  0  -0.077788  0  3.873799  0  0  -0.070669  0  4.145891  0  0  -0.07241  0  4.170758  0  0  -0.093332  -0.069531  0  4.129422  0
C  C24  1  0.37070333  0.41870616  0.34354501  1  0  -0.440037  0  3.688955  0  0  -0.395253  0  4.059843  0  0  -0.405069  0  4.069044  0  0  -0.27394  -0.389252  0  4.053929  0
C  C25  1  0.62928981  0.58128602  0.65645065  1  0  -0.440057  0  3.688838  0  0  -0.395272  0  4.059725  0  0  -0.405088  0  4.068923  0  0  -0.27395  -0.389277  0  4.05383  0
C  C26  1  0.36479622  0.82703437  0.87302620  1  0  -0.003028  0  3.782095  0  0  0.007842  0  4.018645  0  0  0.005326  0  4.046922  0  0  -0.049094  0.009714  0  4.000648  0
C  C27  1  0.63520259  0.17296823  0.12696583  1  0  -0.003102  0  3.782193  0  0  0.007794  0  4.018793  0  0  0.005277  0  4.047064  0  0  -0.049078  0.009664  0  4.000795  0
C  C28  1  0.38063264  0.71487654  0.96980846  1  0  -0.491481  0  3.756348  0  0  -0.432602  0  4.097081  0  0  -0.442869  0  4.104985  0  0  -0.285343  -0.427076  0  4.092709  0
C  C29  1  0.61937194  0.28513535  0.03018510  1  0  -0.491417  0  3.756321  0  0  -0.432538  0  4.09703  0  0  -0.442808  0  4.104947  0  0  -0.285365  -0.427013  0  4.092656  0
N  N30  1  0.85043121  0.86162625  0.88403259  1  0  0.694335  0  4.126999  0  0  0.722978  0  4.414112  0  0  0.753894  0  4.419485  0  0  0.087239  0.701835  0  4.409904  0
N  N31  1  0.14957316  0.13836926  0.11597068  1  0  0.694227  0  4.127025  0  0  0.722812  0  4.414217  0  0  0.753729  0  4.419587  0  0  0.087167  0.701668  0  4.410007  0
N  N32  1  0.40301915  0.18812759  0.63821351  1  0  -0.165738  0  3.183903  0  0  -0.100131  0  3.446382  0  0  -0.111863  0  3.461777  0  0  -0.207648  -0.091878  0  3.436384  0
N  N33  1  0.59698060  0.81186798  0.36178252  1  0  -0.16563  0  3.183686  0  0  -0.100022  0  3.44622  0  0  -0.11175  0  3.461614  0  0  -0.207667  -0.091772  0  3.436222  0
N  N34  1  0.41186098  0.07688629  0.74717701  1  0  -0.144907  0  3.144676  0  0  -0.084308  0  3.403395  0  0  -0.093019  0  3.416536  0  0  -0.191891  -0.078466  0  3.395099  0
N  N35  1  0.58814704  0.92311734  0.25282234  1  0  -0.144991  0  3.144882  0  0  -0.084331  0  3.40359  0  0  -0.093045  0  3.416733  0  0  -0.191822  -0.078488  0  3.395294  0
N  N36  1  0.90769809  0.21222712  0.62561606  1  0  0.688115  0  4.1373  0  0  0.735206  0  4.402782  0  0  0.750834  0  4.430195  0  0  0.090891  0.715584  0  4.396807  0
N  N37  1  0.09230357  0.78777079  0.37438723  1  0  0.688205  0  4.137268  0  0  0.735233  0  4.402808  0  0  0.750832  0  4.430274  0  0  0.090858  0.715614  0  4.396831  0
N  N38  1  0.84104725  0.52936652  0.17717476  1  0  0.707251  0  4.075501  0  0  0.753973  0  4.3306  0  0  0.767491  0  4.362815  0  0  0.094557  0.733332  0  4.324899  0
N  N39  1  0.15895795  0.47063246  0.82282084  1  0  0.70755  0  4.074917  0  0  0.754209  0  4.330102  0  0  0.767761  0  4.362275  0  0  0.094679  0.733569  0  4.324408  0
O  O40  1  0.78803696  0.46455433  0.29711125  1  0  -0.45785  0  1.823689  0  0  -0.44195  0  2.059935  0  0  -0.455286  0  2.058513  0  0  -0.188155  -0.428294  0  2.065471  0
O  O41  1  0.21197293  0.53544457  0.70288760  1  0  -0.458017  0  1.823649  0  0  -0.442061  0  2.059866  0  0  -0.455405  0  2.058432  0  0  -0.188172  -0.428406  0  2.065404  0
O  O42  1  0.97292350  0.81412678  0.80134321  1  0  -0.435682  0  1.831093  0  0  -0.41869  0  2.072964  0  0  -0.436025  0  2.065267  0  0  -0.180789  -0.405857  0  2.078005  0
O  O43  1  0.02708148  0.18586404  0.19866372  1  0  -0.435702  0  1.831065  0  0  -0.418677  0  2.072926  0  0  -0.436011  0  2.065226  0  0  -0.180822  -0.405845  0  2.077967  0
O  O44  1  0.86705358  0.90794960  0.99321735  1  0  -0.493112  0  1.912414  0  0  -0.47085  0  2.186316  0  0  -0.489541  0  2.173975  0  0  -0.209028  -0.457216  0  2.194696  0
O  O45  1  0.13294690  0.09204834  0.00678614  1  0  -0.493107  0  1.912462  0  0  -0.47079  0  2.186344  0  0  -0.489479  0  2.173996  0  0  -0.208978  -0.457166  0  2.194742  0
O  O46  1  0.00053346  0.25457616  0.69123507  1  0  -0.47374  0  1.839943  0  0  -0.466653  0  2.087668  0  0  -0.480376  0  2.085566  0  0  -0.199033  -0.45305  0  2.092111  0
O  O47  1  0.99946337  0.74542187  0.30877295  1  0  -0.473767  0  1.839896  0  0  -0.466697  0  2.087678  0  0  -0.480411  0  2.085589  0  0  -0.199003  -0.453089  0  2.092107  0
O  O48  1  0.93969226  0.22383732  0.49593281  1  0  -0.453509  0  1.850955  0  0  -0.434577  0  2.088662  0  0  -0.448954  0  2.08619  0  0  -0.183998  -0.420962  0  2.093737  0
O  O49  1  0.06031670  0.77615927  0.50407055  1  0  -0.453491  0  1.850962  0  0  -0.434547  0  2.088693  0  0  -0.448916  0  2.086235  0  0  -0.183996  -0.420932  0  2.093767  0
O  O50  1  0.78218717  0.15836924  0.68996203  1  0  -0.495097  0  1.864103  0  0  -0.489183  0  2.11768  0  0  -0.502538  0  2.114702  0  0  -0.19754  -0.476679  0  2.122748  0
O  O51  1  0.21781321  0.84162985  0.31003730  1  0  -0.495134  0  1.863999  0  0  -0.489197  0  2.117596  0  0  -0.502542  0  2.11464  0  0  -0.197531  -0.476697  0  2.122664  0
O  O52  1  0.74981177  0.59512615  0.09287477  1  0  -0.449025  0  1.854602  0  0  -0.443318  0  2.103612  0  0  -0.454445  0  2.102133  0  0  -0.183947  -0.430852  0  2.108738  0
O  O53  1  0.25018996  0.40487174  0.90712454  1  0  -0.449115  0  1.854481  0  0  -0.443363  0  2.103445  0  0  -0.454507  0  2.101969  0  0  -0.183973  -0.430894  0  2.108572  0
O  O54  1  0.99383091  0.52661783  0.14161110  1  0  -0.471511  0  1.969328  0  0  -0.448086  0  2.244565  0  0  -0.463377  0  2.238183  0  0  -0.204057  -0.432908  0  2.253204  0
O  O55  1  0.00617350  0.47337880  0.85838104  1  0  -0.471678  0  1.969191  0  0  -0.448258  0  2.244506  0  0  -0.463585  0  2.238133  0  0  -0.204161  -0.433072  0  2.253132  0
O  O56  1  0.71074100  0.86417897  0.86055585  1  0  -0.466266  0  1.890325  0  0  -0.44445  0  2.147237  0  0  -0.465294  0  2.140329  0  0  -0.188018  -0.429068  0  2.151229  0
O  O57  1  0.28926292  0.13582005  0.13944492  1  0  -0.466163  0  1.890318  0  0  -0.444352  0  2.147266  0  0  -0.465194  0  2.140357  0  0  -0.187965  -0.428968  0  2.151253  0
