# generated using pymatgen
data_NiH9C4NO6
_symmetry_space_group_name_H-M   'P 1'
_cell_length_a   7.69071487
_cell_length_b   9.12443976
_cell_length_c   10.88984695
_cell_angle_alpha   89.99980773
_cell_angle_beta   90.00019694
_cell_angle_gamma   89.99975476
_symmetry_Int_Tables_number   1
_chemical_formula_structural   NiH9C4NO6
_chemical_formula_sum   'Ni4 H36 C16 N4 O24'
_cell_volume   764.17828840
_cell_formula_units_Z   4
loop_
 _symmetry_equiv_pos_site_id
 _symmetry_equiv_pos_as_xyz
  1  'x, y, z'
loop_
 _atom_site_type_symbol
 _atom_site_label
 _atom_site_symmetry_multiplicity
 _atom_site_fract_x
 _atom_site_fract_y
 _atom_site_fract_z
 _atom_site_occupancy
 _atom_site_hle17_ddec_charge
 _atom_site_hle17_ddec_spin_density
 _atom_site_hle17_ddec_sum_bond_order
 _atom_site_hle17_magmom
 _atom_site_hse06_10hf_ddec_charge
 _atom_site_hse06_10hf_ddec_spin_density
 _atom_site_hse06_10hf_ddec_sum_bond_order
 _atom_site_hse06_10hf_magmom
 _atom_site_hse06_ddec_charge
 _atom_site_hse06_ddec_spin_density
 _atom_site_hse06_ddec_sum_bond_order
 _atom_site_hse06_magmom
 _atom_site_pbe_cm5_charge
 _atom_site_pbe_ddec_charge
 _atom_site_pbe_ddec_spin_density
 _atom_site_pbe_ddec_sum_bond_order
 _atom_site_pbe_magmom
Ni  Ni0  1  0.85633247  0.94957597  0.90036868  1  0.938632  -1.796414  1.918516  -1.516  0.95404  -1.843253  2.302338  -1.636  1.039754  -1.90143  2.230242  -1.719  0.622134  0.884637  -1.787397  2.362755  -1.563
Ni  Ni1  1  0.14366506  0.55041845  0.40036043  1  0.938608  -1.79642  1.918609  -1.516  0.954043  -1.843265  2.302414  -1.636  1.039763  -1.901433  2.23024  -1.719  0.622114  0.884543  -1.787407  2.362943  -1.563
Ni  Ni2  1  0.64367659  0.44957911  0.09964434  1  0.93863  1.796424  1.918585  1.516  0.954093  1.843268  2.302396  1.636  1.039782  1.90144  2.230235  1.719  0.622109  0.884616  1.787398  2.362865  1.563
Ni  Ni3  1  0.35632456  0.05042092  0.59963504  1  0.938703  1.796413  1.918535  1.516  0.954166  1.843249  2.302301  1.636  1.039853  1.901417  2.230166  1.719  0.622118  0.884665  1.787401  2.36284  1.563
H  H4  1  0.13890863  0.93575969  0.77282703  1  0.317014  -2.6e-05  0.90614  0.001  0.302719  -0.000491  0.972742  0.0  0.309178  -0.000316  0.96886  0.001  0.299282  0.298145  -0.000688  0.975279  0.0
H  H5  1  0.86110516  0.56424512  0.27281584  1  0.31705  -2.6e-05  0.906092  0.001  0.30276  -0.000491  0.972669  0.0  0.309217  -0.000316  0.968782  0.001  0.299308  0.298183  -0.000688  0.975207  0.0
H  H6  1  0.36110113  0.43577029  0.22717659  1  0.31698  2.4e-05  0.906088  -0.001  0.302688  0.000491  0.972691  0.0  0.309141  0.000316  0.968818  -0.001  0.299252  0.298113  0.000688  0.975229  0.0
H  H7  1  0.63890976  0.06424017  0.72716332  1  0.317004  2.6e-05  0.906149  -0.001  0.302707  0.000491  0.972735  0.0  0.309165  0.000316  0.968855  -0.001  0.2993  0.298133  0.000688  0.975268  0.0
H  H8  1  0.17003113  0.84404196  0.90048739  1  0.309466  0.000444  0.874351  0.002  0.305387  -0.000305  0.925903  0.0  0.312064  -0.000129  0.921689  0.001  0.303125  0.300304  -0.000454  0.929264  0.0
H  H9  1  0.82997680  0.65595794  0.40047312  1  0.309531  0.000442  0.874255  0.002  0.305482  -0.000305  0.925723  0.0  0.312134  -0.000129  0.921564  0.001  0.303186  0.300401  -0.000454  0.929084  0.0
H  H10  1  0.32997910  0.34404772  0.09951464  1  0.309546  -0.000444  0.87425  -0.002  0.30545  0.000305  0.92579  0.0  0.312122  0.000129  0.921593  -0.001  0.303183  0.300368  0.000454  0.92915  0.0
H  H11  1  0.67000645  0.15596328  0.59950211  1  0.309549  -0.000444  0.874349  -0.002  0.305439  0.000304  0.925895  0.0  0.312104  0.000129  0.921717  -0.001  0.303169  0.300359  0.000453  0.929256  0.0
H  H12  1  0.12333963  0.69789431  0.70071613  1  0.081214  -0.001781  0.935688  -0.003  0.090978  -0.001035  0.993817  -0.002  0.092729  -0.00072  0.993079  -0.001  0.11602  0.089811  -0.001242  0.99446  -0.002
H  H13  1  0.87667769  0.80210752  0.20070342  1  0.081326  -0.001778  0.935552  -0.003  0.091049  -0.001036  0.993713  -0.002  0.092776  -0.000721  0.993008  -0.001  0.116045  0.089887  -0.001243  0.994337  -0.002
H  H14  1  0.37665444  0.19790016  0.29928997  1  0.08127  0.001781  0.935562  0.003  0.091077  0.001035  0.993703  0.002  0.092792  0.00072  0.993015  0.001  0.116039  0.089919  0.001242  0.994329  0.002
H  H15  1  0.62333471  0.30210342  0.79928153  1  0.081267  0.001776  0.935576  0.003  0.091031  0.001035  0.993715  0.002  0.092769  0.00072  0.992996  0.001  0.116047  0.089863  0.001241  0.994356  0.002
H  H16  1  0.98066905  0.50280657  0.81907535  1  0.12752  -0.000255  0.918733  0.0  0.142769  -0.000385  0.974469  0.0  0.145991  -0.000251  0.972557  0.0  0.110183  0.139829  -0.00065  0.976696  0.0
H  H17  1  0.01933847  0.99719038  0.31906929  1  0.127721  -0.000262  0.918668  0.0  0.142837  -0.000385  0.974481  0.0  0.146052  -0.00025  0.97257  0.0  0.11026  0.139898  -0.000649  0.976705  0.0
H  H18  1  0.51932928  0.00280982  0.18093611  1  0.127632  0.000255  0.918671  0.0  0.142786  0.000385  0.974472  0.0  0.146009  0.000251  0.972561  0.0  0.110251  0.139847  0.00065  0.976701  0.0
H  H19  1  0.48062547  0.49718440  0.68092866  1  0.12758  0.000251  0.918889  0.0  0.142821  0.000385  0.974592  0.0  0.146047  0.000251  0.972674  0.0  0.110217  0.139882  0.000649  0.976818  0.0
H  H20  1  0.14772958  0.58385835  0.90246203  1  0.124022  4.1e-05  0.919341  0.0  0.139666  0.000217  0.974938  0.0  0.143293  0.000156  0.97246  0.0  0.10898  0.136858  0.000294  0.977046  0.001
H  H21  1  0.85226666  0.91614702  0.40245079  1  0.12402  3.9e-05  0.919485  0.0  0.139622  0.000217  0.975052  0.0  0.143249  0.000156  0.972571  0.0  0.10901  0.136814  0.000294  0.977163  0.001
H  H22  1  0.35227288  0.08386732  0.09753794  1  0.124025  -4.3e-05  0.919298  0.0  0.139639  -0.000217  0.97491  0.0  0.143265  -0.000156  0.972437  0.0  0.109008  0.13683  -0.000294  0.977014  -0.001
H  H23  1  0.64771396  0.41616450  0.59754395  1  0.123984  -4.4e-05  0.919206  0.0  0.13959  -0.000217  0.974852  0.0  0.143223  -0.000156  0.972358  0.0  0.108991  0.13678  -0.000294  0.976969  -0.001
H  H24  1  0.03510368  0.17253595  0.81347589  1  0.424726  0.000479  0.868138  0.001  0.394531  8.6e-05  0.935007  0.0  0.407366  0.000106  0.916301  0.0  0.294322  0.385153  6.4e-05  0.948652  0.0
H  H25  1  0.96488815  0.32746648  0.31347801  1  0.424733  0.00048  0.868246  0.001  0.394567  8.6e-05  0.934976  0.0  0.407403  0.000106  0.91627  0.0  0.294365  0.385193  6.5e-05  0.948616  0.0
H  H26  1  0.46489572  0.67253102  0.18652017  1  0.424685  -0.000479  0.868178  -0.001  0.394494  -8.6e-05  0.935053  0.0  0.407326  -0.000106  0.916353  0.0  0.294327  0.385118  -6.4e-05  0.948696  0.0
H  H27  1  0.53510332  0.82746758  0.68652156  1  0.42468  -0.00048  0.868198  -0.001  0.394491  -8.6e-05  0.935062  0.0  0.407325  -0.000106  0.91636  0.0  0.294316  0.385115  -6.5e-05  0.948704  0.0
H  H28  1  0.86276023  0.22242119  0.89142279  1  0.419854  0.000368  0.862084  0.001  0.390539  -0.000166  0.937836  0.0  0.402245  -5.5e-05  0.920655  0.0  0.299399  0.381772  -0.00019  0.950806  0.0
H  H29  1  0.13723590  0.27757543  0.39141943  1  0.419876  0.000368  0.862041  0.001  0.39055  -0.000166  0.937824  0.0  0.402255  -5.5e-05  0.920645  0.0  0.299391  0.381782  -0.000191  0.950795  0.0
H  H30  1  0.63724479  0.72242435  0.10857706  1  0.41981  -0.000368  0.862108  -0.001  0.390501  0.000166  0.937885  0.0  0.402207  5.5e-05  0.920702  0.0  0.299369  0.381731  0.000191  0.950857  0.0
H  H31  1  0.36275907  0.77757458  0.60857727  1  0.419848  -0.000367  0.862058  -0.001  0.390534  0.000166  0.937833  0.0  0.402242  5.5e-05  0.920649  0.0  0.299392  0.381769  0.000191  0.9508  0.0
H  H32  1  0.05772585  0.95737684  0.09195967  1  0.410282  0.0  0.910593  0.001  0.377982  -0.000272  0.978627  0.0  0.390193  -9e-05  0.961397  0.0  0.28471  0.369349  -0.000472  0.990721  0.0
H  H33  1  0.94229223  0.54262106  0.59195819  1  0.410268  1e-06  0.910603  0.001  0.378005  -0.000271  0.978589  0.0  0.390214  -9e-05  0.961362  0.0  0.284725  0.369376  -0.000472  0.990679  0.0
H  H34  1  0.44230201  0.45737113  0.90804481  1  0.410285  -1e-06  0.910589  -0.001  0.378019  0.000272  0.978584  0.0  0.390229  9e-05  0.961356  0.0  0.284698  0.369391  0.000472  0.990674  0.0
H  H35  1  0.55769420  0.04262761  0.40804398  1  0.410343  -1e-06  0.910527  -0.001  0.378076  0.000271  0.978518  0.0  0.390287  9e-05  0.961288  0.0  0.284742  0.369449  0.000472  0.990607  0.0
H  H36  1  0.99561212  0.12677406  0.07221872  1  0.423403  -0.000267  0.818582  0.0  0.410748  -0.000723  0.868365  -0.001  0.420705  -0.00049  0.857311  0.0  0.321129  0.402713  -0.000982  0.877527  -0.001
H  H37  1  0.00438630  0.37321842  0.57221967  1  0.423568  -0.000266  0.818094  0.0  0.410869  -0.000723  0.86795  -0.001  0.420839  -0.00049  0.85688  0.0  0.321181  0.402821  -0.000982  0.877133  -0.001
H  H38  1  0.50440379  0.62677645  0.92777496  1  0.423299  0.000268  0.818516  0.0  0.410624  0.000724  0.868353  0.001  0.420592  0.00049  0.857291  0.0  0.321025  0.402582  0.000982  0.877519  0.001
H  H39  1  0.49558347  0.87322224  0.42777126  1  0.42336  0.000267  0.818409  0.0  0.410689  0.000724  0.868247  0.001  0.420655  0.00049  0.857177  0.0  0.321045  0.402647  0.000982  0.877415  0.001
C  C40  1  0.85302199  0.75147984  0.70488685  1  0.64718  0.001795  3.79733  0.003  0.5997  -0.000279  4.103599  0.0  0.633455  -0.000106  4.098436  0.0  0.218162  0.576257  -0.000314  4.106063  0.001
C  C41  1  0.14699015  0.74850992  0.20489461  1  0.647265  0.001791  3.797308  0.003  0.59979  -0.000278  4.103531  0.0  0.633564  -0.000106  4.098332  0.0  0.218226  0.576334  -0.000314  4.106013  0.001
C  C42  1  0.64696597  0.25147996  0.29512670  1  0.647434  -0.00178  3.796965  -0.003  0.599931  0.00028  4.103349  0.0  0.633699  0.000106  4.098159  0.0  0.218341  0.57648  0.000314  4.105832  -0.001
C  C43  1  0.35302707  0.24850391  0.79510400  1  0.647251  -0.001795  3.797132  -0.003  0.599777  0.000279  4.103404  0.0  0.633529  0.000105  4.09824  0.0  0.218139  0.576332  0.000313  4.105856  -0.001
C  C44  1  0.02822373  0.72950285  0.77101265  1  0.067107  0.002273  3.638433  0.005  0.049713  0.000541  3.885163  0.003  0.050213  0.000713  3.899046  0.003  -0.006082  0.049145  0.000332  3.875379  0.003
C  C45  1  0.97179135  0.77049430  0.27101126  1  0.066973  0.002261  3.638772  0.005  0.049582  0.000541  3.885412  0.003  0.050087  0.000713  3.899289  0.003  -0.006104  0.049023  0.000332  3.875625  0.003
C  C46  1  0.47178318  0.22951413  0.22898602  1  0.066947  -0.002276  3.638396  -0.005  0.049426  -0.000543  3.885294  -0.003  0.049938  -0.000715  3.899177  -0.003  -0.006145  0.048847  -0.000333  3.875532  -0.003
C  C47  1  0.52821602  0.27049194  0.72898020  1  0.067111  -0.002263  3.638576  -0.005  0.049661  -0.00054  3.885344  -0.003  0.050165  -0.000712  3.89923  -0.003  -0.006071  0.049088  -0.000331  3.875558  -0.003
C  C48  1  0.01757637  0.60546327  0.86465599  1  -0.306265  0.002098  3.656929  0.002  -0.348985  0.001181  3.904938  0.001  -0.355939  0.000935  3.910979  0.001  -0.15917  -0.343659  0.001698  3.900897  0.001
C  C49  1  0.98242097  0.89454006  0.36464144  1  -0.306515  0.00212  3.657267  0.002  -0.348937  0.001181  3.905006  0.001  -0.355871  0.000934  3.91102  0.001  -0.15925  -0.343617  0.001698  3.90097  0.001
C  C50  1  0.48242597  0.10546395  0.13535770  1  -0.306191  -0.002102  3.656875  -0.002  -0.348764  -0.001182  3.904777  -0.001  -0.355714  -0.000934  3.910805  -0.001  -0.15916  -0.343438  -0.0017  3.90073  -0.001
C  C51  1  0.51755586  0.39454141  0.63534969  1  -0.306219  -0.002081  3.657035  -0.002  -0.348931  -0.001182  3.904917  -0.001  -0.355879  -0.000936  3.910953  -0.001  -0.159144  -0.343609  -0.0017  3.900881  -0.001
C  C52  1  0.89426102  0.62664414  0.97209927  1  0.71357  0.004576  3.785629  0.005  0.671996  0.003764  4.092998  0.004  0.709717  0.002811  4.086488  0.003  0.215438  0.644577  0.004964  4.096234  0.006
C  C53  1  0.10574596  0.87336093  0.47208823  1  0.713651  0.004572  3.785634  0.005  0.671941  0.003766  4.093154  0.004  0.709666  0.002813  4.086639  0.003  0.215362  0.644528  0.004966  4.096387  0.006
C  C54  1  0.60576268  0.12661156  0.02791370  1  0.713283  -0.004567  3.785436  -0.005  0.671782  -0.00376  4.092689  -0.004  0.709496  -0.002809  4.086185  -0.003  0.215359  0.644373  -0.004959  4.095924  -0.006
C  C55  1  0.39424201  0.37338440  0.52789627  1  0.713261  -0.004588  3.78578  -0.005  0.671919  -0.00376  4.092762  -0.004  0.709631  -0.002809  4.08626  -0.003  0.215367  0.644512  -0.004961  4.095992  -0.006
N  N56  1  0.08035653  0.86563810  0.83333663  1  -0.626731  -0.067293  3.153288  -0.1  -0.62755  -0.041318  3.431114  -0.061  -0.657092  -0.03248  3.431791  -0.049  -0.635159  -0.605256  -0.047893  3.430189  -0.068
N  N57  1  0.91964845  0.63436207  0.33332906  1  -0.626783  -0.067292  3.153242  -0.1  -0.627598  -0.041321  3.431086  -0.061  -0.657125  -0.032484  3.431738  -0.049  -0.635235  -0.605281  -0.047896  3.430164  -0.068
N  N58  1  0.41964968  0.36564655  0.16666350  1  -0.626759  0.067284  3.153134  0.1  -0.627506  0.041314  3.431035  0.061  -0.657032  0.032478  3.431667  0.049  -0.6352  -0.605196  0.047888  3.430108  0.068
N  N59  1  0.58034661  0.13436088  0.66665633  1  -0.626865  0.067267  3.153399  0.099  -0.627574  0.04131  3.431197  0.06  -0.65711  0.032477  3.431828  0.049  -0.63524  -0.605259  0.047883  3.430271  0.068
O  O60  1  0.75498282  0.85637295  0.74162724  1  -0.604512  -0.050055  2.08153  -0.079  -0.561722  -0.033364  2.332408  -0.054  -0.598709  -0.026044  2.3225  -0.043  -0.300326  -0.533673  -0.039925  2.338618  -0.063
O  O61  1  0.24501650  0.64362213  0.24162725  1  -0.604438  -0.050051  2.081817  -0.079  -0.561647  -0.033362  2.33268  -0.054  -0.598633  -0.026043  2.322755  -0.043  -0.300274  -0.533584  -0.039922  2.338903  -0.063
O  O62  1  0.74500071  0.35637178  0.25838970  1  -0.604645  0.050045  2.081386  0.079  -0.5619  0.033361  2.332326  0.054  -0.598887  0.026042  2.32241  0.043  -0.300434  -0.533818  0.039922  2.338498  0.063
O  O63  1  0.25498434  0.14362650  0.75837624  1  -0.604389  0.050043  2.081831  0.079  -0.561596  0.033359  2.3327  0.054  -0.598568  0.026042  2.322779  0.043  -0.300221  -0.533541  0.039921  2.338914  0.063
O  O64  1  0.80958651  0.66510329  0.61956340  1  -0.608146  -0.003826  1.964661  -0.006  -0.561742  -0.002334  2.187806  -0.004  -0.586693  -0.001229  2.177187  -0.002  -0.317655  -0.544132  -0.003665  2.194729  -0.006
O  O65  1  0.19044081  0.83490437  0.11957471  1  -0.608341  -0.003825  1.964481  -0.006  -0.561882  -0.002335  2.187556  -0.004  -0.586847  -0.001231  2.176927  -0.002  -0.317746  -0.544265  -0.003667  2.194482  -0.006
O  O66  1  0.69040970  0.16509741  0.38044762  1  -0.608239  0.003816  1.964623  0.006  -0.561806  0.002334  2.187776  0.004  -0.586756  0.00123  2.177146  0.002  -0.317695  -0.544195  0.003665  2.194707  0.006
O  O67  1  0.30958507  0.33489487  0.88044020  1  -0.608432  0.003825  1.96414  0.006  -0.562019  0.002334  2.187274  0.004  -0.586979  0.00123  2.176661  0.002  -0.317787  -0.544411  0.003667  2.194193  0.006
O  O68  1  0.80893059  0.74600611  0.98721952  1  -0.629308  -0.043313  2.060487  -0.069  -0.588303  -0.028511  2.316588  -0.046  -0.626302  -0.022024  2.307993  -0.036  -0.302663  -0.559331  -0.034125  2.322601  -0.054
O  O69  1  0.19106867  0.75399671  0.48721818  1  -0.629393  -0.043322  2.060483  -0.069  -0.588299  -0.028511  2.316584  -0.046  -0.626307  -0.022024  2.307994  -0.036  -0.302612  -0.559304  -0.034123  2.322598  -0.054
O  O70  1  0.69108861  0.24600945  0.01279221  1  -0.62935  0.043336  2.059315  0.069  -0.588387  0.028519  2.315405  0.046  -0.626381  0.022029  2.306798  0.036  -0.302758  -0.559395  0.034136  2.321416  0.054
O  O71  1  0.30891211  0.25398876  0.51277950  1  -0.629447  0.043341  2.059473  0.069  -0.588502  0.028518  2.315424  0.046  -0.626498  0.022028  2.306823  0.036  -0.302788  -0.559506  0.034133  2.321442  0.054
O  O72  1  0.88159824  0.51658894  0.04322776  1  -0.60492  0.027278  2.009568  0.043  -0.577724  0.018096  2.272029  0.028  -0.61164  0.01504  2.258626  0.023  -0.330145  -0.551337  0.019913  2.281546  0.03
O  O73  1  0.11840918  0.98340807  0.54322133  1  -0.6049  0.027288  2.009566  0.043  -0.577746  0.018097  2.272141  0.028  -0.611658  0.015041  2.258724  0.023  -0.330161  -0.551346  0.019912  2.281663  0.03
O  O74  1  0.61842342  0.01659297  0.95679744  1  -0.604755  -0.02727  2.010424  -0.043  -0.577556  -0.018092  2.272818  -0.028  -0.611453  -0.015036  2.259395  -0.023  -0.330115  -0.551196  -0.019908  2.282355  -0.03
O  O75  1  0.38158993  0.48339571  0.45677665  1  -0.604593  -0.027258  2.010519  -0.043  -0.577529  -0.018087  2.272905  -0.028  -0.611439  -0.015033  2.259514  -0.023  -0.330026  -0.551144  -0.019902  2.282431  -0.03
O  O76  1  0.90754799  0.15961192  0.82434485  1  -0.806563  -0.038593  1.94105  -0.06  -0.77621  -0.02951  2.150399  -0.045  -0.803842  -0.023458  2.112027  -0.037  -0.570229  -0.754686  -0.034566  2.178806  -0.051
O  O77  1  0.09244519  0.34038827  0.32434305  1  -0.806561  -0.038601  1.941175  -0.06  -0.776217  -0.029514  2.150457  -0.045  -0.803845  -0.023462  2.112074  -0.037  -0.570247  -0.754676  -0.03457  2.178866  -0.051
O  O78  1  0.59244954  0.65960838  0.17565609  1  -0.806508  0.038583  1.94119  0.06  -0.776169  0.029505  2.150584  0.045  -0.803788  0.023457  2.112203  0.037  -0.570209  -0.754635  0.03456  2.17899  0.051
O  O79  1  0.40755075  0.84038917  0.67565715  1  -0.80653  0.038582  1.941094  0.06  -0.776181  0.029505  2.150457  0.045  -0.803808  0.023457  2.112079  0.037  -0.570209  -0.754635  0.03456  2.178863  0.051
O  O80  1  0.95679803  0.02537394  0.06922153  1  -0.817493  -0.035942  1.952945  -0.055  -0.788546  -0.027833  2.157625  -0.042  -0.816696  -0.022229  2.126698  -0.035  -0.571429  -0.766498  -0.032775  2.1803  -0.048
O  O81  1  0.04321597  0.47462184  0.56921586  1  -0.817649  -0.035946  1.952532  -0.055  -0.788687  -0.027834  2.157137  -0.042  -0.81685  -0.022231  2.126216  -0.035  -0.571464  -0.766601  -0.032774  2.179829  -0.048
O  O82  1  0.54322229  0.52536741  0.93078345  1  -0.817391  0.035939  1.952836  0.055  -0.78846  0.027831  2.157427  0.042  -0.816614  0.022229  2.126501  0.035  -0.57134  -0.766392  0.032774  2.180091  0.048
O  O83  1  0.45676759  0.97463017  0.43078031  1  -0.817515  0.035944  1.952712  0.055  -0.788602  0.027835  2.157323  0.042  -0.816759  0.022232  2.126409  0.035  -0.571366  -0.766523  0.032775  2.179989  0.048
