# generated using pymatgen
data_CuPH5C5BrNO4
_symmetry_space_group_name_H-M   'P 1'
_cell_length_a   7.00136762
_cell_length_b   6.90859263
_cell_length_c   18.33470560
_cell_angle_alpha   90.00134268
_cell_angle_beta   92.79269326
_cell_angle_gamma   89.99700659
_symmetry_Int_Tables_number   1
_chemical_formula_structural   CuPH5C5BrNO4
_chemical_formula_sum   'Cu4 P4 H20 C20 Br4 N4 O16'
_cell_volume   885.78906466
_cell_formula_units_Z   4
loop_
 _symmetry_equiv_pos_site_id
 _symmetry_equiv_pos_as_xyz
  1  'x, y, z'
loop_
 _atom_site_type_symbol
 _atom_site_label
 _atom_site_symmetry_multiplicity
 _atom_site_fract_x
 _atom_site_fract_y
 _atom_site_fract_z
 _atom_site_occupancy
 _atom_site_hle17_ddec_charge
 _atom_site_hle17_ddec_spin_density
 _atom_site_hle17_ddec_sum_bond_order
 _atom_site_hle17_magmom
 _atom_site_hse06_10hf_bader_charge
 _atom_site_hse06_10hf_bader_spin_density
 _atom_site_hse06_10hf_ddec_charge
 _atom_site_hse06_10hf_ddec_spin_density
 _atom_site_hse06_10hf_ddec_sum_bond_order
 _atom_site_hse06_10hf_magmom
 _atom_site_hse06_ddec_charge
 _atom_site_hse06_ddec_spin_density
 _atom_site_hse06_ddec_sum_bond_order
 _atom_site_hse06_magmom
 _atom_site_pbe_cm5_charge
 _atom_site_pbe_ddec_charge
 _atom_site_pbe_ddec_spin_density
 _atom_site_pbe_ddec_sum_bond_order
 _atom_site_pbe_magmom
Cu  Cu0  1  0.99984196  0.99997948  0.99996829  1  0.874546  -0.604339  1.826095  -0.459  1.042677  -0.592687  0.889082  -0.71977  2.208359  -0.594  0.997304  -0.80739  2.113259  -0.689  0.592253  0.827929  -0.655026  2.266752  -0.529
Cu  Cu1  1  0.99983453  0.50004110  0.49997330  1  0.874477  0.604346  1.826058  0.459  1.042818  0.592687  0.889026  0.719773  2.208266  0.594  0.997256  0.807397  2.113087  0.689  0.592243  0.827825  0.655024  2.266729  0.529
Cu  Cu2  1  0.49986355  0.99999308  0.00002312  1  0.893011  0.618615  1.823294  0.472  1.073297  0.613083  0.920316  0.740556  2.190401  0.614  1.031556  0.831599  2.093339  0.714  0.601851  0.857635  0.671128  2.24907  0.544
Cu  Cu3  1  0.49984442  0.50001579  0.50002716  1  0.892896  -0.618625  1.823494  -0.472  1.073192  -0.613088  0.920143  -0.740557  2.190635  -0.614  1.031412  -0.831581  2.093526  -0.714  0.601807  0.857459  -0.671123  2.249345  -0.544
P  P4  1  0.23658339  0.29608941  0.92812851  1  1.457554  7e-06  4.833073  0.0  3.500186  4.1e-05  1.306299  0.000138  5.333551  0.0  1.363336  0.000113  5.294616  0.0  0.362677  1.266372  0.000114  5.361178  0.0
P  P5  1  0.76320543  0.79614917  0.57186303  1  1.458033  -1.2e-05  4.832557  0.0  3.498503  -4.3e-05  1.306947  -0.000142  5.33281  0.0  1.363949  -0.000116  5.293857  0.0  0.362699  1.267054  -0.000115  5.360468  0.0
P  P6  1  0.76324568  0.70386112  0.07185863  1  1.458042  7e-06  4.832707  0.0  3.498026  3.8e-05  1.306926  0.00014  5.333007  0.0  1.363934  0.000116  5.294043  0.0  0.362782  1.267046  0.000114  5.360654  0.0
P  P7  1  0.23658788  0.20391137  0.42813052  1  1.457699  -7e-06  4.832884  0.0  3.49993  -4.3e-05  1.306457  -0.000139  5.333333  0.0  1.363492  -0.000112  5.294408  0.0  0.362662  1.266524  -0.000114  5.360948  0.0
H  H8  1  0.24267002  0.63201970  0.91696051  1  0.462311  5e-06  0.808949  0.0  0.692958  -4e-06  0.431606  1.9e-05  0.876256  0.0  0.445261  1.2e-05  0.856662  0.0  0.324216  0.421978  2.5e-05  0.89002  0.0
H  H9  1  0.75713703  0.13207969  0.58303357  1  0.461965  -4e-06  0.809684  0.0  0.695403  4e-06  0.431298  -1.9e-05  0.876718  0.0  0.444939  -1.2e-05  0.85715  0.0  0.323955  0.421695  -2.5e-05  0.890439  0.0
H  H10  1  0.75718336  0.36794241  0.08302763  1  0.461982  5e-06  0.809655  0.0  0.695214  -4e-06  0.431347  1.9e-05  0.876644  0.0  0.444989  1.2e-05  0.857073  0.0  0.324078  0.421745  2.5e-05  0.890367  0.0
H  H11  1  0.24265914  0.86798374  0.41695622  1  0.462332  -4e-06  0.809007  0.0  0.69304  4e-06  0.431635  -1.9e-05  0.87623  0.0  0.445289  -1.2e-05  0.856638  0.0  0.324238  0.422003  -2.5e-05  0.889992  0.0
H  H12  1  0.18835193  0.38128478  0.76816464  1  0.110009  -0.000249  0.956013  0.0  0.113407  -0.000302  0.118061  -0.000242  1.019417  0.0  0.121294  -0.000178  1.018638  0.0  0.108471  0.115773  -0.000283  1.02011  0.0
H  H13  1  0.81192606  0.88142845  0.73180322  1  0.110269  0.000248  0.955707  0.0  0.113018  0.000305  0.118133  0.000244  1.0194  0.0  0.121345  0.000179  1.018635  0.0  0.108463  0.115872  0.000286  1.020053  0.0
H  H14  1  0.81191476  0.61860060  0.23179853  1  0.110176  -0.000251  0.955894  0.0  0.113335  -0.000305  0.11819  -0.000244  1.019409  0.0  0.121402  -0.000179  1.018644  0.0  0.108473  0.115918  -0.000286  1.020079  0.0
H  H15  1  0.18826481  0.11866537  0.26817872  1  0.110074  0.000245  0.956055  0.0  0.113608  0.000302  0.118155  0.000242  1.019474  0.0  0.121377  0.000178  1.018696  0.0  0.10849  0.11587  0.000283  1.020154  0.0
H  H16  1  0.20535296  0.16967354  0.65815190  1  0.115427  -0.000259  0.963895  0.0  0.187751  -0.000221  0.125998  -0.000223  1.021676  0.0  0.131937  -0.000163  1.015516  0.0  0.098748  0.121746  -0.000266  1.026134  0.0
H  H17  1  0.79526082  0.66984060  0.84183877  1  0.115785  0.00026  0.963204  0.0  0.18809  0.000224  0.126007  0.000227  1.021323  0.0  0.131949  0.000166  1.015149  0.0  0.098748  0.121751  0.000271  1.025796  0.0
H  H18  1  0.79521401  0.83019445  0.34183491  1  0.115803  -0.000268  0.963131  0.0  0.188175  -0.000225  0.126018  -0.000227  1.021262  0.0  0.131959  -0.000166  1.015094  0.0  0.098777  0.121761  -0.000271  1.025734  0.0
H  H19  1  0.20523749  0.33024162  0.15815711  1  0.115517  0.000256  0.963606  0.0  0.187545  0.000222  0.125947  0.000223  1.02153  0.0  0.131882  0.000163  1.015376  0.0  0.098759  0.121689  0.000267  1.026003  0.0
H  H20  1  0.27761968  0.81476179  0.67672230  1  0.119496  9.5e-05  0.968411  0.0  0.169196  0.000102  0.128429  0.00012  1.027378  0.0  0.134345  9.7e-05  1.023362  0.0  0.099804  0.124386  0.000136  1.030275  0.0
H  H21  1  0.72277480  0.31497645  0.82331305  1  0.119363  -8.7e-05  0.969021  0.0  0.167847  -9.8e-05  0.128473  -0.000115  1.027689  0.0  0.134382  -9.3e-05  1.02369  0.0  0.10009  0.124433  -0.00013  1.030586  0.0
H  H22  1  0.72277562  0.18508306  0.32331200  1  0.119222  8.9e-05  0.968916  0.0  0.166379  9.8e-05  0.128415  0.000115  1.027529  0.0  0.134326  9.3e-05  1.023526  0.0  0.099989  0.124371  0.00013  1.030423  0.0
H  H23  1  0.27757619  0.68513472  0.17671225  1  0.119639  -9.7e-05  0.968313  0.0  0.168275  -0.000102  0.128446  -0.00012  1.027442  0.0  0.134363  -9.7e-05  1.023423  0.0  0.099832  0.124403  -0.000135  1.03034  0.0
H  H24  1  0.30614965  0.68708508  0.80564291  1  0.119893  -4.2e-05  0.962755  0.0  0.176455  -2.8e-05  0.129462  -3.8e-05  1.021581  0.0  0.132966  -2.2e-05  1.017926  0.0  0.132636  0.126856  -5.3e-05  1.024222  0.0
H  H25  1  0.69381140  0.18722778  0.69440499  1  0.119663  4.2e-05  0.962473  0.0  0.176255  2.9e-05  0.129266  3.9e-05  1.021324  0.0  0.132776  2.2e-05  1.017656  0.0  0.13249  0.126618  5.3e-05  1.024015  0.0
H  H26  1  0.69384523  0.31281044  0.19440134  1  0.119602  -4.1e-05  0.96248  0.0  0.176121  -2.9e-05  0.129182  -3.9e-05  1.021362  0.0  0.132693  -2.2e-05  1.0177  0.0  0.13243  0.126544  -5.3e-05  1.024035  0.0
H  H27  1  0.30612916  0.81287183  0.30562297  1  0.119601  4.3e-05  0.962795  0.0  0.175993  2.8e-05  0.129194  3.8e-05  1.021614  0.0  0.132702  2.2e-05  1.017958  0.0  0.132479  0.126587  5.3e-05  1.024256  0.0
C  C28  1  0.22949528  0.14987489  0.84438252  1  -0.167033  5.4e-05  3.594937  0.0  -0.142982  0.000331  -0.155063  0.000272  3.852196  0.0  -0.154193  0.00021  3.865063  0.0  0.092413  -0.15598  0.0003  3.844793  0.0
C  C29  1  0.77053998  0.64997852  0.65561825  1  -0.166257  -3.8e-05  3.594424  0.0  -0.141191  -0.000337  -0.154377  -0.000279  3.8518  0.0  -0.153483  -0.000215  3.864639  0.0  0.092581  -0.155295  -0.000307  3.844398  0.0
C  C30  1  0.77054971  0.85003944  0.15561249  1  -0.166557  6e-05  3.594882  0.0  -0.141551  0.000335  -0.154608  0.000277  3.852209  0.0  -0.153733  0.000213  3.865075  0.0  0.092565  -0.15553  0.000307  3.844799  0.0
C  C31  1  0.22945496  0.35010807  0.34438182  1  -0.166926  -5.6e-05  3.594958  0.0  -0.142785  -0.000332  -0.154969  -0.000273  3.85229  0.0  -0.154102  -0.000212  3.865152  0.0  0.092374  -0.155881  -0.0003  3.844877  0.0
C  C32  1  0.21146388  0.22633876  0.77403412  1  -0.071261  0.000299  3.762363  0.0  -0.006031  0.000168  -0.093548  9.9e-05  4.017343  0.0  -0.09735  6.8e-05  4.036069  0.0  -0.074934  -0.09125  0.000129  4.004984  0.0
C  C33  1  0.78876338  0.72647344  0.72595174  1  -0.071959  -0.000316  3.7632  0.0  -0.006157  -0.000169  -0.094117  -0.0001  4.018152  0.0  -0.097922  -6.8e-05  4.036873  0.0  -0.075121  -0.091814  -0.000131  4.005791  0.0
C  C34  1  0.78875416  0.77354807  0.22594996  1  -0.071783  0.000301  3.763198  0.0  -0.006957  0.000171  -0.09411  0.000101  4.018112  0.0  -0.097908  6.9e-05  4.036836  0.0  -0.075095  -0.091806  0.00013  4.005732  0.0
C  C35  1  0.21140175  0.27361748  0.27403734  1  -0.071542  -0.000293  3.762628  0.0  -0.00473  -0.000167  -0.093906  -9.9e-05  4.017568  0.0  -0.097694  -6.7e-05  4.03628  0.0  -0.075038  -0.091606  -0.00013  4.005199  0.0
C  C36  1  0.22253456  0.10831695  0.71274785  1  -0.020141  -0.000236  3.694988  0.0  -0.006885  -8.4e-05  -0.044016  -4.8e-05  3.947838  0.0  -0.037403  -4.3e-05  3.95809  0.0  -0.076741  -0.048038  -6e-05  3.940697  0.0
C  C37  1  0.77792678  0.60846599  0.78724768  1  -0.020328  0.00028  3.694931  0.0  -0.009532  9.3e-05  -0.043885  5.4e-05  3.947805  0.0  -0.037259  4.9e-05  3.95802  0.0  -0.076605  -0.047914  6.8e-05  3.940676  0.0
C  C38  1  0.77789798  0.89157566  0.28724134  1  -0.020419  -0.000237  3.695059  0.0  -0.008298  -9.6e-05  -0.043932  -5.6e-05  3.947964  0.0  -0.037306  -4.9e-05  3.958176  0.0  -0.076649  -0.047958  -6.8e-05  3.940823  0.0
C  C39  1  0.22244998  0.39162638  0.21274974  1  -0.020005  0.000249  3.694699  0.0  -0.00874  8.4e-05  -0.043705  4.8e-05  3.947525  0.0  -0.037087  4.5e-05  3.95776  0.0  -0.076615  -0.047731  6.1e-05  3.940382  0.0
C  C40  1  0.26176366  0.91232509  0.72285668  1  -0.077991  0.000155  3.734244  0.0  -0.030535  0.000109  -0.086903  2.8e-05  3.981658  0.0  -0.092301  2.5e-05  3.996838  0.0  -0.075353  -0.083912  5.1e-05  3.97165  0.0
C  C41  1  0.73855614  0.41247894  0.77716621  1  -0.078173  -0.000181  3.735032  0.0  -0.026955  -0.000101  -0.087206  -2.5e-05  3.982348  0.0  -0.092606  -2.4e-05  3.997543  0.0  -0.075747  -0.084219  -4.7e-05  3.972341  0.0
C  C42  1  0.73854586  0.08755739  0.27716293  1  -0.077965  0.000157  3.735043  0.0  -0.026323  0.000103  -0.087114  2.6e-05  3.982343  0.0  -0.092508  2.4e-05  3.997528  0.0  -0.075675  -0.08413  4.7e-05  3.972324  0.0
C  C43  1  0.26171906  0.58761198  0.22285113  1  -0.078197  -0.000154  3.734003  0.0  -0.028042  -0.000107  -0.087074  -2.7e-05  3.981474  0.0  -0.092464  -2.5e-05  3.996646  0.0  -0.075481  -0.08409  -5e-05  3.971461  0.0
C  C44  1  0.27777345  0.83793845  0.79280556  1  0.010169  -0.000598  3.582977  0.0  0.33365  -0.00045  -0.030791  -0.000443  3.840705  0.0  -0.021639  -0.000344  3.850145  0.0  0.038313  -0.036329  -0.000531  3.834271  0.0
C  C45  1  0.72230854  0.33807406  0.70722056  1  0.010399  0.000614  3.58289  0.0  0.334052  0.000446  -0.030634  0.00044  3.840688  0.0  -0.021504  0.000343  3.850162  0.0  0.038558  -0.036123  0.000527  3.834257  0.0
C  C46  1  0.72233587  0.16196720  0.20721738  1  0.010551  -0.000604  3.582649  0.0  0.334718  -0.000448  -0.030438  -0.000441  3.840438  0.0  -0.021312  -0.000342  3.849913  0.0  0.038605  -0.035934  -0.000527  3.833983  0.0
C  C47  1  0.27773213  0.66201397  0.29280000  1  0.010476  0.000596  3.582881  0.0  0.333558  0.00045  -0.03045  0.000442  3.840557  0.0  -0.021316  0.000344  3.850016  0.0  0.038621  -0.035975  0.000531  3.834103  0.0
Br  Br48  1  0.25950004  0.00242447  0.09779620  1  -0.368442  -0.010214  1.146128  -0.01  -0.456428  -0.015695  -0.41516  -0.011431  1.476256  -0.012  -0.476015  -0.011285  1.449942  -0.012  -0.168974  -0.38065  -0.010909  1.49507  -0.011
Br  Br49  1  0.74007842  0.50252068  0.40219258  1  -0.36846  0.010288  1.146447  0.01  -0.456813  0.015787  -0.415114  0.011504  1.476448  0.012  -0.476021  0.011289  1.450202  0.012  -0.168922  -0.380597  0.010867  1.495273  0.011
Br  Br50  1  0.74009308  0.99752896  0.90218651  1  -0.368461  -0.010307  1.146466  -0.01  -0.456748  -0.015796  -0.415118  -0.011513  1.476482  -0.012  -0.47601  -0.011307  1.450247  -0.012  -0.168907  -0.380615  -0.010877  1.495297  -0.011
Br  Br51  1  0.25948751  0.49754856  0.59780107  1  -0.368377  0.010218  1.146165  0.01  -0.456365  0.015696  -0.415114  0.011437  1.476261  0.012  -0.475968  0.011273  1.449903  0.012  -0.168984  -0.380617  0.010913  1.495111  0.011
N  N52  1  0.25350211  0.95348718  0.85179316  1  0.279685  -0.000487  3.695724  0.0  -0.663572  -0.000988  0.328966  -0.000643  3.956125  -0.001  0.329239  -0.000542  3.980177  0.0  -0.11121  0.32785  -0.000676  3.94055  -0.001
N  N53  1  0.74645027  0.45358977  0.64822078  1  0.279775  0.000465  3.695187  0.0  -0.664626  0.000973  0.329093  0.000633  3.955648  0.001  0.32935  0.000533  3.979725  0.0  -0.111126  0.32798  0.000663  3.94006  0.001
N  N54  1  0.74646708  0.04643006  0.14821515  1  0.279752  -0.000471  3.695688  0.0  -0.664615  -0.000969  0.329053  -0.000631  3.956138  -0.001  0.329319  -0.000532  3.98021  0.0  -0.111082  0.327937  -0.000663  3.940543  -0.001
N  N55  1  0.25347315  0.54649537  0.35178722  1  0.27956  0.000488  3.695664  0.0  -0.664473  0.000987  0.328837  0.000643  3.956102  0.001  0.329108  0.000542  3.98016  0.0  -0.11133  0.327717  0.000675  3.940513  0.001
O  O56  1  0.42874458  0.25990271  0.96840063  1  -0.778092  0.062383  2.055378  0.084  -1.397392  0.070046  -0.728255  0.042409  2.333044  0.06  -0.771225  0.033292  2.313783  0.049  -0.377678  -0.700449  0.047376  2.346321  0.065
O  O57  1  0.57096526  0.75990433  0.53166204  1  -0.77789  -0.062389  2.056105  -0.084  -1.396529  -0.070022  -0.728109  -0.042398  2.333786  -0.06  -0.771089  -0.033284  2.31452  -0.049  -0.377342  -0.700304  -0.047364  2.347079  -0.065
O  O58  1  0.57100004  0.74009269  0.03165528  1  -0.77805  0.062381  2.055916  0.084  -1.396613  0.07002  -0.728284  0.042397  2.333644  0.06  -0.771256  0.033286  2.314378  0.049  -0.377437  -0.700479  0.047363  2.34692  0.065
O  O59  1  0.42875075  0.24010988  0.46839933  1  -0.778153  -0.062378  2.055327  -0.084  -1.397145  -0.070032  -0.728328  -0.042403  2.33303  -0.06  -0.771306  -0.033288  2.313772  -0.049  -0.377704  -0.700532  -0.047374  2.346329  -0.065
O  O60  1  0.22895621  0.50179762  0.89186425  1  -0.725178  0.000422  2.076652  0.0  -1.455849  0.000374  -0.647393  0.000249  2.299768  0.0  -0.672715  9.3e-05  2.271426  0.0  -0.366877  -0.628564  0.000382  2.318502  0.0
O  O61  1  0.77084367  0.00185944  0.60812027  1  -0.724908  -0.000424  2.07695  0.0  -1.458059  -0.000377  -0.647253  -0.000249  2.299921  0.0  -0.672541  -9.3e-05  2.271572  0.0  -0.366613  -0.628487  -0.000384  2.318657  0.0
O  O62  1  0.77093293  0.49815436  0.10811583  1  -0.724799  0.000421  2.076929  0.0  -1.457681  0.000378  -0.647146  0.000249  2.299921  0.0  -0.672424  9.4e-05  2.271565  0.0  -0.366735  -0.628393  0.000382  2.31867  0.0
O  O63  1  0.22896681  0.99820834  0.39186434  1  -0.72516  -0.000421  2.076753  0.0  -1.455846  -0.000372  -0.647387  -0.000247  2.29981  0.0  -0.672711  -9.2e-05  2.271474  0.0  -0.366855  -0.628556  -0.000381  2.318572  0.0
O  O64  1  0.05771329  0.26023771  0.97015097  1  -0.775513  -0.06048  2.070953  -0.082  -1.403051  -0.067966  -0.722512  -0.041294  2.352294  -0.059  -0.764444  -0.033113  2.332336  -0.049  -0.379365  -0.695389  -0.045565  2.366218  -0.063
O  O65  1  0.94198238  0.76031914  0.52978273  1  -0.775968  0.060519  2.070683  0.082  -1.402789  0.067992  -0.723069  0.041322  2.352129  0.059  -0.764973  0.033132  2.332075  0.049  -0.379779  -0.695945  0.045597  2.366083  0.063
O  O66  1  0.94200575  0.73969980  0.02977192  1  -0.776004  -0.060518  2.070887  -0.082  -1.402443  -0.067992  -0.723085  -0.041325  2.35234  -0.059  -0.765005  -0.033136  2.332328  -0.049  -0.379778  -0.695973  -0.045599  2.366298  -0.063
O  O67  1  0.05771804  0.23978194  0.47015563  1  -0.775532  0.060488  2.070927  0.082  -1.403206  0.067971  -0.722534  0.041296  2.352284  0.059  -0.764463  0.033113  2.332301  0.049  -0.379298  -0.695398  0.04557  2.366201  0.063
O  O68  1  0.25591794  0.87529590  0.91827805  1  -0.57456  0.001903  1.912555  0.003  -0.668767  0.003347  -0.549771  0.002161  2.173743  0.003  -0.585393  0.001874  2.170688  0.003  -0.223208  -0.527062  0.002274  2.177305  0.003
O  O69  1  0.74386112  0.37536280  0.58173254  1  -0.575126  -0.001927  1.912872  -0.003  -0.668683  -0.003367  -0.550117  -0.002173  2.173705  -0.003  -0.585739  -0.001883  2.170653  -0.003  -0.223351  -0.527405  -0.002288  2.17726  -0.003
O  O70  1  0.74387250  0.12464595  0.08172909  1  -0.574991  0.001914  1.91319  0.003  -0.668712  0.003366  -0.550058  0.002172  2.174091  0.003  -0.585672  0.001883  2.171042  0.003  -0.22336  -0.527357  0.002288  2.17764  0.003
O  O71  1  0.25588499  0.62472380  0.41827213  1  -0.574552  -0.001906  1.912468  -0.003  -0.668569  -0.003344  -0.549753  -0.00216  2.173615  -0.003  -0.58537  -0.001873  2.170547  -0.003  -0.223199  -0.527039  -0.002274  2.177168  -0.003
