# generated using pymatgen
data_CdH6C5SN2Cl2O
_symmetry_space_group_name_H-M   'P 1'
_cell_length_a   9.46003345
_cell_length_b   13.82310877
_cell_length_c   13.80350000
_cell_angle_alpha   114.80437998
_cell_angle_beta   103.47988863
_cell_angle_gamma   103.04966969
_symmetry_Int_Tables_number   1
_chemical_formula_structural   CdH6C5SN2Cl2O
_chemical_formula_sum   'Cd6 H36 C30 S6 N12 Cl12 O6'
_cell_volume   1482.46532068
_cell_formula_units_Z   6
loop_
 _symmetry_equiv_pos_site_id
 _symmetry_equiv_pos_as_xyz
  1  'x, y, z'
loop_
 _atom_site_type_symbol
 _atom_site_label
 _atom_site_symmetry_multiplicity
 _atom_site_fract_x
 _atom_site_fract_y
 _atom_site_fract_z
 _atom_site_occupancy
 _atom_site_hle17_bader_spin_density
 _atom_site_hle17_ddec_charge
 _atom_site_hle17_ddec_spin_density
 _atom_site_hle17_ddec_sum_bond_order
 _atom_site_hle17_magmom
 _atom_site_hse06_10hf_bader_spin_density
 _atom_site_hse06_10hf_ddec_charge
 _atom_site_hse06_10hf_ddec_spin_density
 _atom_site_hse06_10hf_ddec_sum_bond_order
 _atom_site_hse06_10hf_magmom
 _atom_site_hse06_bader_spin_density
 _atom_site_hse06_ddec_charge
 _atom_site_hse06_ddec_spin_density
 _atom_site_hse06_ddec_sum_bond_order
 _atom_site_hse06_magmom
 _atom_site_pbe_bader_charge
 _atom_site_pbe_bader_spin_density
 _atom_site_pbe_cm5_charge
 _atom_site_pbe_ddec_charge
 _atom_site_pbe_ddec_spin_density
 _atom_site_pbe_ddec_sum_bond_order
 _atom_site_pbe_magmom
Cd  Cd0  1  0.65413730  0.24160214  0.64446467  1  0  0.981766  0  1.957213  0  0  0.830374  0  2.418571  0  0  0.875727  0  2.375702  0  1.154286  0  0.578195  0.79843  0  2.447673  0
Cd  Cd1  1  0.41297144  0.40326527  0.75832543  1  0  0.979777  0  1.961717  0  0  0.828074  0  2.423828  0  0  0.873351  0  2.380951  0  1.15329  0  0.576879  0.796161  0  2.452934  0
Cd  Cd2  1  0.00956877  0.35515059  0.59763331  1  0  0.979858  0  1.962216  0  0  0.828592  0  2.423897  0  0  0.873774  0  2.381123  0  1.1527  0  0.577473  0.796749  0  2.452929  0
Cd  Cd3  1  0.91246563  0.75831649  0.40279205  1  0  0.98098  0  1.958016  0  0  0.829354  0  2.419493  0  0  0.874723  0  2.376622  0  1.152867  0  0.577363  0.797389  0  2.448605  0
Cd  Cd4  1  0.50967081  0.59669705  0.35508909  1  0  0.980761  0  1.959291  0  0  0.829261  0  2.420866  0  0  0.874584  0  2.377989  0  1.152568  0  0.577422  0.797311  0  2.449983  0
Cd  Cd5  1  0.15445205  0.64484171  0.24245438  1  0  0.979918  0  1.963062  0  0  0.828714  0  2.424743  0  0  0.873893  0  2.381965  0  1.153352  0  0.577786  0.796858  0  2.453789  0
H  H6  1  0.31843501  0.12185123  0.55096608  1  0  0.286637  0  0.934697  0  0  0.273599  0  1.000718  0  0  0.279572  0  0.996199  0  0.475342  0  0.278244  0.269304  0  1.003988  0
H  H7  1  0.19757193  0.43004266  0.87824006  1  0  0.287417  0  0.936327  0  0  0.273905  0  1.002775  0  0  0.279882  0  0.998284  0  0.470194  0  0.278673  0.269591  0  1.006083  0
H  H8  1  0.76712290  0.44853783  0.57003366  1  0  0.286836  0  0.934545  0  0  0.273642  0  1.000756  0  0  0.279617  0  0.996272  0  0.477379  0  0.278715  0.269323  0  1.004044  0
H  H9  1  0.69658404  0.87808796  0.42915417  1  0  0.287438  0  0.936044  0  0  0.273835  0  1.002606  0  0  0.279815  0  0.9981  0  0.463127  0  0.278752  0.269527  0  1.005898  0
H  H10  1  0.26753321  0.57007641  0.44831541  1  0  0.287077  0  0.937315  0  0  0.274051  0  1.003116  0  0  0.280037  0  0.998621  0  0.475461  0  0.278292  0.269747  0  1.006387  0
H  H11  1  0.81862554  0.55147160  0.12142820  1  0  0.286083  0  0.934244  0  0  0.27272  0  1.000899  0  0  0.278693  0  0.996371  0  0.478146  0  0.277697  0.26842  0  1.004175  0
H  H12  1  0.37602998  0.03808076  0.45306368  1  0  0.292979  0  0.872016  0  0  0.284686  0  0.928499  0  0  0.28908  0  0.926066  0  0.452497  0  0.30529  0.281484  0  0.930412  0
H  H13  1  0.33977326  0.41621583  0.96270742  1  0  0.292647  0  0.871837  0  0  0.284139  0  0.928613  0  0  0.288537  0  0.926178  0  0.442996  0  0.304824  0.280953  0  0.930481  0
H  H14  1  0.92308798  0.54623964  0.58445258  1  0  0.292625  0  0.871917  0  0  0.284129  0  0.928705  0  0  0.288532  0  0.92627  0  0.466026  0  0.305411  0.280929  0  0.930603  0
H  H15  1  0.83791197  0.96184901  0.41498605  1  0  0.292426  0  0.873309  0  0  0.283831  0  0.930045  0  0  0.288215  0  0.927634  0  0.437041  0  0.304846  0.280648  0  0.931924  0
H  H16  1  0.42352649  0.58385528  0.54657794  1  0  0.292321  0  0.872802  0  0  0.283842  0  0.929505  0  0  0.288259  0  0.92704  0  0.467656  0  0.305081  0.280656  0  0.931376  0
H  H17  1  0.87690714  0.45376037  0.03815183  1  0  0.292813  0  0.871579  0  0  0.284627  0  0.927969  0  0  0.289048  0  0.925497  0  0.458763  0  0.30516  0.28141  0  0.929907  0
H  H18  1  0.29169552  0.97398497  0.58640390  1  0  0.294418  0  0.929728  0  0  0.273437  0  0.998043  0  0  0.281204  0  0.992479  0  0.52883  0  0.312129  0.268006  0  1.001966  0
H  H19  1  0.31863974  0.61291630  0.02659708  1  0  0.293625  0  0.929978  0  0  0.273061  0  0.997772  0  0  0.280814  0  0.992228  0  0.524884  0  0.312098  0.267611  0  1.001721  0
H  H20  1  0.70478168  0.41310218  0.38656369  1  0  0.294247  0  0.93123  0  0  0.27332  0  0.999441  0  0  0.281067  0  0.993882  0  0.52645  0  0.312077  0.26785  0  1.003481  0
H  H21  1  0.81775735  0.02596879  0.61245778  1  0  0.293558  0  0.931564  0  0  0.272833  0  0.999584  0  0  0.28059  0  0.994048  0  0.522952  0  0.311871  0.267401  0  1.0035  0
H  H22  1  0.20561283  0.38719678  0.41375890  1  0  0.293772  0  0.930307  0  0  0.273131  0  0.998204  0  0  0.280895  0  0.992661  0  0.525968  0  0.311962  0.267642  0  1.002195  0
H  H23  1  0.79180102  0.58690212  0.97338981  1  0  0.293926  0  0.931395  0  0  0.272984  0  0.99977  0  0  0.280733  0  0.994226  0  0.530526  0  0.312001  0.26755  0  1.003694  0
H  H24  1  0.64560609  0.79144368  0.83287836  1  0  0.120736  0  0.977633  0  0  0.127147  0  1.044005  0  0  0.129817  0  1.04272  0  0.132356  0  0.102052  0.125256  0  1.044864  0
H  H25  1  0.85263121  0.04005002  0.20755549  1  0  0.121984  0  0.976609  0  0  0.128385  0  1.04274  0  0  0.131041  0  1.04151  0  0.122751  0  0.10275  0.126447  0  1.043651  0
H  H26  1  0.81240753  0.16755722  0.95964269  1  0  0.121064  0  0.976402  0  0  0.127685  0  1.042156  0  0  0.130345  0  1.040866  0  0.150597  0  0.102511  0.125779  0  1.043068  0
H  H27  1  0.35419906  0.20834133  0.04140690  1  0  0.120899  0  0.977875  0  0  0.1273  0  1.044173  0  0  0.129919  0  1.042966  0  0.10513  0  0.102432  0.125423  0  1.045026  0
H  H28  1  0.31272393  0.96006220  0.16753925  1  0  0.120431  0  0.977297  0  0  0.127058  0  1.043133  0  0  0.129702  0  1.04187  0  0.147886  0  0.102249  0.12513  0  1.044064  0
H  H29  1  0.14465833  0.83229803  0.79181936  1  0  0.122588  0  0.976109  0  0  0.129027  0  1.042096  0  0  0.131703  0  1.040787  0  0.132464  0  0.102993  0.127083  0  1.043033  0
H  H30  1  0.34071241  0.71874615  0.72586980  1  0  0.114598  0  0.992003  0  0  0.121366  0  1.056952  0  0  0.124783  0  1.055368  0  0.117625  0  0.086442  0.118925  0  1.058183  0
H  H31  1  0.62204137  0.00696653  0.28112201  1  0  0.114182  0  0.992464  0  0  0.121225  0  1.057326  0  0  0.124563  0  1.055848  0  0.122211  0  0.086377  0.118783  0  1.058563  0
H  H32  1  0.61400583  0.27398325  0.99193482  1  0  0.112809  0  0.996502  0  0  0.120292  0  1.060739  0  0  0.123637  0  1.05927  0  0.151297  0  0.085426  0.117891  0  1.061909  0
H  H33  1  0.12219822  0.28123416  0.00712432  1  0  0.114437  0  0.99179  0  0  0.121399  0  1.056768  0  0  0.124734  0  1.055297  0  0.120773  0  0.086305  0.118912  0  1.058057  0
H  H34  1  0.11515898  0.99301121  0.27418464  1  0  0.113232  0  0.993096  0  0  0.120476  0  1.057707  0  0  0.12381  0  1.056226  0  0.121766  0  0.08615  0.118056  0  1.05892  0
H  H35  1  0.83985685  0.72610156  0.71803730  1  0  0.112936  0  0.99597  0  0  0.120333  0  1.060399  0  0  0.123746  0  1.058833  0  0.132368  0  0.085612  0.117881  0  1.061629  0
H  H36  1  0.26949641  0.83097376  0.61939859  1  0  0.116307  0  0.964208  0  0  0.124066  0  1.031863  0  0  0.127215  0  1.028834  0  0.120606  0  0.101176  0.121755  0  1.034102  0
H  H37  1  0.43954381  0.78897075  0.16965428  1  0  0.115135  0  0.966058  0  0  0.122926  0  1.033682  0  0  0.125969  0  1.030772  0  0.132538  0  0.100601  0.120698  0  1.035817  0
H  H38  1  0.64966503  0.38049322  0.21030811  1  0  0.117481  0  0.964842  0  0  0.125128  0  1.032365  0  0  0.128146  0  1.029492  0  0.120265  0  0.101167  0.122904  0  1.03451  0
H  H39  1  0.93892368  0.16918471  0.78840408  1  0  0.11521  0  0.966584  0  0  0.123638  0  1.033309  0  0  0.126699  0  1.030398  0  0.136227  0  0.100882  0.121349  0  1.035522  0
H  H40  1  0.15030845  0.21094874  0.38062861  1  0  0.117568  0  0.964317  0  0  0.125622  0  1.03158  0  0  0.128734  0  1.028589  0  0.134587  0  0.101233  0.12334  0  1.033784  0
H  H41  1  0.76919386  0.61971665  0.83000529  1  0  0.11559  0  0.964252  0  0  0.123911  0  1.031327  0  0  0.126956  0  1.028414  0  0.142368  0  0.101011  0.121651  0  1.033513  0
C  C42  1  0.58479400  0.82325088  0.78313965  1  0  -0.153802  0  3.692259  0  0  -0.172239  0  3.967537  0  0  -0.169939  0  3.983936  0  -0.326912  0  -0.096775  -0.17344  0  3.956213  0
C  C43  1  0.76052195  0.95893494  0.17615479  1  0  -0.154071  0  3.691661  0  0  -0.172314  0  3.966405  0  0  -0.169989  0  3.982769  0  -0.2897  0  -0.097188  -0.17349  0  3.955084  0
C  C44  1  0.80129007  0.21714863  0.04080249  1  0  -0.15263  0  3.69439  0  0  -0.171064  0  3.969735  0  0  -0.168697  0  3.986126  0  -0.302502  0  -0.096694  -0.172296  0  3.958393  0
C  C45  1  0.26165271  0.17664291  0.95987232  1  0  -0.152612  0  3.691523  0  0  -0.170822  0  3.966359  0  0  -0.168471  0  3.982809  0  -0.274831  0  -0.09655  -0.172051  0  3.954974  0
C  C46  1  0.30162505  0.04114558  0.21723419  1  0  -0.152278  0  3.694118  0  0  -0.170737  0  3.969094  0  0  -0.168356  0  3.985488  0  -0.306979  0  -0.096222  -0.171955  0  3.957766  0
C  C47  1  0.08403673  0.78279398  0.82349252  1  0  -0.154686  0  3.694056  0  0  -0.173141  0  3.969524  0  0  -0.170805  0  3.985879  0  -0.320083  0  -0.096724  -0.174327  0  3.958223  0
C  C48  1  0.42564003  0.78746917  0.72710000  1  0  -0.1002  0  3.788773  0  0  -0.111213  0  4.041159  0  0  -0.116334  0  4.0614  0  0.035808  0  -0.117879  -0.107886  0  4.027315  0
C  C49  1  0.63802281  0.93929196  0.21241856  1  0  -0.099181  0  3.787787  0  0  -0.110436  0  4.039892  0  0  -0.115476  0  4.060176  0  0.002534  0  -0.116535  -0.107116  0  4.025979  0
C  C50  1  0.69793077  0.27290739  0.06002914  1  0  -0.098503  0  3.790941  0  0  -0.110292  0  4.043397  0  0  -0.11535  0  4.063685  0  0.017394  0  -0.117018  -0.106998  0  4.029504  0
C  C51  1  0.13840852  0.21252656  0.93962875  1  0  -0.099374  0  3.787201  0  0  -0.110744  0  4.039518  0  0  -0.115799  0  4.059805  0  0.025221  0  -0.117187  -0.107381  0  4.025649  0
C  C52  1  0.19863977  0.06072175  0.27307754  1  0  -0.099048  0  3.789334  0  0  -0.110506  0  4.041927  0  0  -0.11554  0  4.062208  0  0.002772  0  -0.117232  -0.107211  0  4.028017  0
C  C53  1  0.92496596  0.72717228  0.78714292  1  0  -0.099293  0  3.790429  0  0  -0.111055  0  4.043081  0  0  -0.116153  0  4.063297  0  0.012746  0  -0.118123  -0.107732  0  4.029231  0
C  C54  1  0.38806748  0.84850443  0.67092548  1  0  -0.074078  0  3.744361  0  0  -0.110143  0  4.008881  0  0  -0.105845  0  4.025685  0  -0.024128  0  -0.101761  -0.112581  0  3.997234  0
C  C55  1  0.53993485  0.82248596  0.15177311  1  0  -0.074462  0  3.745065  0  0  -0.110708  0  4.009735  0  0  -0.106361  0  4.026663  0  -0.033791  0  -0.102089  -0.113196  0  3.99802  0
C  C56  1  0.71672978  0.32908929  0.17704431  1  0  -0.076573  0  3.747181  0  0  -0.112524  0  4.011631  0  0  -0.108152  0  4.028491  0  -0.082272  0  -0.10218  -0.114991  0  3.999934  0
C  C57  1  0.03986373  0.15154098  0.82239768  1  0  -0.074306  0  3.745133  0  0  -0.110985  0  4.009461  0  0  -0.106682  0  4.026474  0  -0.052151  0  -0.102083  -0.11335  0  3.997602  0
C  C58  1  0.21716552  0.17748064  0.32919866  1  0  -0.076822  0  3.746345  0  0  -0.113408  0  4.010687  0  0  -0.109139  0  4.027648  0  -0.043455  0  -0.102497  -0.115827  0  3.998935  0
C  C59  1  0.88767490  0.67102378  0.84803230  1  0  -0.072931  0  3.744053  0  0  -0.109429  0  4.008154  0  0  -0.105073  0  4.025075  0  -0.045263  0  -0.101281  -0.111897  0  3.99646  0
C  C60  1  0.51947602  0.93099089  0.68648349  1  0  -0.165094  0  3.782197  0  0  -0.146388  0  4.056183  0  0  -0.155786  0  4.078394  0  -0.186077  0  -0.034252  -0.140373  0  4.041257  0
C  C61  1  0.58839415  0.75525938  0.06910263  1  0  -0.162955  0  3.77887  0  0  -0.14329  0  4.052345  0  0  -0.152722  0  4.07468  0  -0.179848  0  -0.033129  -0.13726  0  4.037376  0
C  C62  1  0.83299133  0.31379257  0.24484159  1  0  -0.165331  0  3.783496  0  0  -0.145926  0  4.05697  0  0  -0.15532  0  4.079249  0  -0.187617  0  -0.034524  -0.139961  0  4.04209  0
C  C63  1  0.08867603  0.06896286  0.75545099  1  0  -0.163266  0  3.779003  0  0  -0.143582  0  4.052425  0  0  -0.153019  0  4.074704  0  -0.18769  0  -0.033148  -0.137549  0  4.037484  0
C  C64  1  0.33286043  0.24475605  0.31381875  1  0  -0.165506  0  3.780992  0  0  -0.145698  0  4.054229  0  0  -0.155056  0  4.076471  0  -0.188559  0  -0.034424  -0.139723  0  4.039321  0
C  C65  1  0.01925338  0.68623998  0.93103960  1  0  -0.166156  0  3.783053  0  0  -0.146815  0  4.056286  0  0  -0.156243  0  4.078565  0  -0.184158  0  -0.034295  -0.14082  0  4.041377  0
C  C66  1  0.53260149  0.01098729  0.64319297  1  0  0.539509  0  3.873096  0  0  0.482086  0  4.167509  0  0  0.513759  0  4.165704  0  1.353173  0  0.231728  0.460874  0  4.168059  0
C  C67  1  0.52170864  0.63228004  0.98916701  1  0  0.538945  0  3.870853  0  0  0.479915  0  4.167224  0  0  0.511515  0  4.165523  0  1.356281  0  0.230479  0.458723  0  4.167735  0
C  C68  1  0.88960947  0.35703762  0.36822006  1  0  0.539452  0  3.872331  0  0  0.481058  0  4.167697  0  0  0.512627  0  4.165999  0  1.357281  0  0.230252  0.459883  0  4.168193  0
C  C69  1  0.02169389  0.98897503  0.63217698  1  0  0.538854  0  3.872062  0  0  0.480166  0  4.167815  0  0  0.511827  0  4.166032  0  1.359186  0  0.230031  0.458944  0  4.168382  0
C  C70  1  0.38928839  0.36775852  0.35694737  1  0  0.539278  0  3.871661  0  0  0.48057  0  4.167389  0  0  0.512137  0  4.165718  0  1.375708  0  0.23017  0.459386  0  4.167877  0
C  C71  1  0.03269755  0.64300864  0.01118552  1  0  0.539031  0  3.873521  0  0  0.481363  0  4.167889  0  0  0.513022  0  4.166105  0  1.345267  0  0.231203  0.460142  0  4.16846  0
S  S72  1  0.68829885  0.93083071  0.76812833  1  0  0.181834  0  2.650893  0  0  0.18838  0  2.973881  0  0  0.185888  0  2.983397  0  0.268017  0  0.101695  0.189739  0  2.967587  0
S  S73  1  0.75632363  0.83629395  0.06869116  1  0  0.180655  0  2.654481  0  0  0.18689  0  2.97768  0  0  0.184433  0  2.987207  0  0.260795  0  0.101379  0.188229  0  2.971362  0
S  S74  1  0.92024641  0.23244964  0.16415172  1  0  0.182422  0  2.657533  0  0  0.188847  0  2.980791  0  0  0.186379  0  2.990318  0  0.261216  0  0.102745  0.190203  0  2.974499  0
S  S75  1  0.25754015  0.06903310  0.83727385  1  0  0.179596  0  2.651212  0  0  0.185714  0  2.973968  0  0  0.183264  0  2.9835  0  0.263586  0  0.100485  0.187065  0  2.967654  0
S  S76  1  0.41991665  0.16383283  0.23243525  1  0  0.183347  0  2.656444  0  0  0.189599  0  2.979726  0  0  0.187133  0  2.989195  0  0.260254  0  0.102962  0.190947  0  2.973442  0
S  S77  1  0.18781602  0.76749298  0.93153898  1  0  0.182198  0  2.655016  0  0  0.188637  0  2.978215  0  0  0.186154  0  2.987739  0  0.265836  0  0.101846  0.190014  0  2.971905  0
N  N78  1  0.40280104  0.08669225  0.53977555  1  0  -0.465865  0  3.103974  0  0  -0.434901  0  3.345106  0  0  -0.44806  0  3.347516  0  -0.781964  0  -0.507007  -0.425517  0  3.343368  0
N  N79  1  0.31722504  0.45390941  0.91360871  1  0  -0.466554  0  3.103788  0  0  -0.435044  0  3.346021  0  0  -0.448156  0  3.348373  0  -0.76185  0  -0.507199  -0.425682  0  3.344341  0
N  N80  1  0.86293147  0.45978723  0.54654546  1  0  -0.464376  0  3.104024  0  0  -0.433184  0  3.34575  0  0  -0.446353  0  3.348128  0  -0.790614  0  -0.507234  -0.423782  0  3.344053  0
N  N81  1  0.81609949  0.91323666  0.45308887  1  0  -0.465638  0  3.105847  0  0  -0.43378  0  3.347832  0  0  -0.446936  0  3.350246  0  -0.752908  0  -0.506896  -0.424416  0  3.346109  0
N  N82  1  0.36327795  0.54617197  0.45980087  1  0  -0.465739  0  3.105914  0  0  -0.434589  0  3.3474  0  0  -0.447814  0  3.349837  0  -0.788621  0  -0.506989  -0.425213  0  3.345702  0
N  N83  1  0.90320390  0.54021706  0.08670684  1  0  -0.464215  0  3.102598  0  0  -0.433086  0  3.344105  0  0  -0.44626  0  3.346563  0  -0.788826  0  -0.505985  -0.423688  0  3.342358  0
N  N84  1  0.39867889  0.01591345  0.58892013  1  0  -0.258487  0  3.350426  0  0  -0.208931  0  3.603412  0  0  -0.227703  0  3.61549  0  -0.870757  0  -0.327807  -0.196377  0  3.594951  0
N  N85  1  0.38336879  0.57351813  0.98428500  1  0  -0.257391  0  3.350462  0  0  -0.207921  0  3.604117  0  0  -0.226684  0  3.616288  0  -0.878942  0  -0.327785  -0.195412  0  3.595685  0
N  N86  1  0.80975663  0.41096930  0.42660202  1  0  -0.258217  0  3.350518  0  0  -0.208699  0  3.60453  0  0  -0.227362  0  3.616615  0  -0.876932  0  -0.327622  -0.196224  0  3.596105  0
N  N87  1  0.88279606  0.98403259  0.57303015  1  0  -0.258275  0  3.35175  0  0  -0.208788  0  3.605207  0  0  -0.227532  0  3.617264  0  -0.874761  0  -0.327837  -0.196246  0  3.596795  0
N  N88  1  0.30977837  0.42657610  0.41086958  1  0  -0.256821  0  3.351558  0  0  -0.207573  0  3.605307  0  0  -0.226189  0  3.617287  0  -0.898211  0  -0.326986  -0.195066  0  3.596957  0
N  N89  1  0.89889356  0.58904355  0.01558605  1  0  -0.257839  0  3.350622  0  0  -0.208734  0  3.60452  0  0  -0.227498  0  3.616622  0  -0.873283  0  -0.328019  -0.196201  0  3.596085  0
Cl  Cl90  1  0.56965223  0.29733091  0.82300939  1  0  -0.556839  0  1.029444  0  0  -0.497321  0  1.310847  0  0  -0.515899  0  1.290914  0  -0.631587  0  -0.305529  -0.484056  0  1.324305  0
Cl  Cl91  1  0.27137045  0.52587799  0.70244959  1  0  -0.558092  0  1.026161  0  0  -0.498825  0  1.307049  0  0  -0.517347  0  1.287192  0  -0.632781  0  -0.306491  -0.485603  0  1.320456  0
Cl  Cl92  1  0.74533663  0.17683307  0.47416862  1  0  -0.559327  0  1.025019  0  0  -0.499943  0  1.305636  0  0  -0.518476  0  1.285785  0  -0.632695  0  -0.307422  -0.486694  0  1.319051  0
Cl  Cl93  1  0.77232023  0.70258087  0.52565287  1  0  -0.557072  0  1.029631  0  0  -0.497591  0  1.311159  0  0  -0.516175  0  1.291241  0  -0.631352  0  -0.305347  -0.484271  0  1.324507  0
Cl  Cl94  1  0.24544479  0.47408090  0.17662232  1  0  -0.5585  0  1.026085  0  0  -0.499229  0  1.306932  0  0  -0.517733  0  1.287065  0  -0.632882  0  -0.30696  -0.485933  0  1.320216  0
Cl  Cl95  1  0.06850094  0.82313781  0.29731426  1  0  -0.558421  0  1.02373  0  0  -0.499169  0  1.30451  0  0  -0.517734  0  1.284736  0  -0.632308  0  -0.306987  -0.485855  0  1.31776  0
Cl  Cl96  1  0.56433587  0.39972504  0.62014631  1  0  -0.560364  0  1.020453  0  0  -0.496026  0  1.29369  0  0  -0.515175  0  1.274476  0  -0.637534  0  -0.293365  -0.482312  0  1.306625  0
Cl  Cl97  1  0.16509025  0.22073940  0.60088892  1  0  -0.558897  0  1.020817  0  0  -0.494475  0  1.293485  0  0  -0.513569  0  1.274262  0  -0.636153  0  -0.292444  -0.480861  0  1.306519  0
Cl  Cl98  1  0.94434463  0.38001782  0.77974501  1  0  -0.559235  0  1.021122  0  0  -0.494749  0  1.293723  0  0  -0.513852  0  1.274493  0  -0.636121  0  -0.292586  -0.481108  0  1.30673  0
Cl  Cl99  1  0.66455826  0.60021158  0.22039532  1  0  -0.5605  0  1.020049  0  0  -0.495924  0  1.292891  0  0  -0.515096  0  1.273741  0  -0.637211  0  -0.29306  -0.482235  0  1.305827  0
Cl  Cl100  1  0.44435543  0.77923406  0.38014847  1  0  -0.559468  0  1.021318  0  0  -0.495005  0  1.29415  0  0  -0.51403  0  1.274783  0  -0.63666  0  -0.292894  -0.481368  0  1.307141  0
Cl  Cl101  1  0.06430275  0.61994621  0.39969596  1  0  -0.559066  0  1.021064  0  0  -0.494717  0  1.293979  0  0  -0.51385  0  1.274807  0  -0.636203  0  -0.292434  -0.481056  0  1.30692  0
O  O102  1  0.66513986  0.07277976  0.65622083  1  0  -0.592983  0  2.052401  0  0  -0.527321  0  2.296824  0  0  -0.551634  0  2.286307  0  -1.178692  0  -0.31177  -0.510567  0  2.303623  0
O  O103  1  0.59219668  0.58338331  0.92727123  1  0  -0.5925  0  2.053164  0  0  -0.525486  0  2.297298  0  0  -0.549658  0  2.286749  0  -1.176343  0  -0.310954  -0.508721  0  2.304052  0
O  O104  1  0.00949804  0.34419756  0.41774896  1  0  -0.593769  0  2.053966  0  0  -0.526951  0  2.297781  0  0  -0.551272  0  2.287388  0  -1.17174  0  -0.311624  -0.51007  0  2.304423  0
O  O105  1  0.09235639  0.92716115  0.58335086  1  0  -0.592672  0  2.05167  0  0  -0.525854  0  2.295497  0  0  -0.550291  0  2.285324  0  -1.176411  0  -0.310658  -0.509019  0  2.302093  0
O  O106  1  0.50872081  0.41660728  0.34395627  1  0  -0.593716  0  2.054876  0  0  -0.527036  0  2.299186  0  0  -0.551346  0  2.28877  0  -1.169452  0  -0.311541  -0.510188  0  2.305893  0
O  O107  1  0.16542524  0.65587440  0.07356297  1  0  -0.59222  0  2.053914  0  0  -0.526037  0  2.297874  0  0  -0.550312  0  2.28737  0  -1.170383  0  -0.311363  -0.509216  0  2.304588  0
