# generated using pymatgen
data_ZnH6C10N3O2
_symmetry_space_group_name_H-M   'P 1'
_cell_length_a   9.23213013
_cell_length_b   9.83725587
_cell_length_c   10.74299668
_cell_angle_alpha   89.99997746
_cell_angle_beta   95.89918642
_cell_angle_gamma   89.99997141
_symmetry_Int_Tables_number   1
_chemical_formula_structural   ZnH6C10N3O2
_chemical_formula_sum   'Zn4 H24 C40 N12 O8'
_cell_volume   970.49949005
_cell_formula_units_Z   4
loop_
 _symmetry_equiv_pos_site_id
 _symmetry_equiv_pos_as_xyz
  1  'x, y, z'
loop_
 _atom_site_type_symbol
 _atom_site_label
 _atom_site_symmetry_multiplicity
 _atom_site_fract_x
 _atom_site_fract_y
 _atom_site_fract_z
 _atom_site_occupancy
 _atom_site_hle17_bader_spin_density
 _atom_site_hle17_ddec_charge
 _atom_site_hle17_ddec_spin_density
 _atom_site_hle17_ddec_sum_bond_order
 _atom_site_hle17_magmom
 _atom_site_hse06_10hf_bader_spin_density
 _atom_site_hse06_10hf_ddec_charge
 _atom_site_hse06_10hf_ddec_spin_density
 _atom_site_hse06_10hf_ddec_sum_bond_order
 _atom_site_hse06_10hf_magmom
 _atom_site_hse06_bader_spin_density
 _atom_site_hse06_ddec_charge
 _atom_site_hse06_ddec_spin_density
 _atom_site_hse06_ddec_sum_bond_order
 _atom_site_hse06_magmom
 _atom_site_pbe_bader_spin_density
 _atom_site_pbe_cm5_charge
 _atom_site_pbe_ddec_charge
 _atom_site_pbe_ddec_spin_density
 _atom_site_pbe_ddec_sum_bond_order
 _atom_site_pbe_magmom
Zn  Zn0  1  0.77902217  0.27232268  0.13974033  1  0  1.027143  0  1.853105  0  0  0.836102  0  2.337312  0  0  0.880487  0  2.282998  0  0  0.735842  0.804916  0  2.37452  0
Zn  Zn1  1  0.72097750  0.77232275  0.86025944  1  0  1.027106  0  1.853147  0  0  0.83606  0  2.337365  0  0  0.880435  0  2.283041  0  0  0.735838  0.804869  0  2.37457  0
Zn  Zn2  1  0.22097655  0.72767830  0.86025925  1  0  1.027136  0  1.853123  0  0  0.836087  0  2.33734  0  0  0.880467  0  2.283021  0  0  0.735838  0.804902  0  2.374544  0
Zn  Zn3  1  0.27902340  0.22767824  0.13974126  1  0  1.02713  0  1.85312  0  0  0.83609  0  2.337348  0  0  0.880461  0  2.283021  0  0  0.735836  0.804901  0  2.374548  0
H  H4  1  0.96032862  0.93237855  0.67774151  1  0  0.1035  0  0.954134  0  0  0.117788  0  1.008554  0  0  0.120132  0  1.007899  0  0  0.103843  0.11631  0  1.008728  0
H  H5  1  0.53967096  0.43237851  0.32225820  1  0  0.10351  0  0.954147  0  0  0.117797  0  1.008568  0  0  0.120144  0  1.007912  0  0  0.103858  0.11632  0  1.00874  0
H  H6  1  0.03967118  0.06762244  0.32225816  1  0  0.103497  0  0.954161  0  0  0.117782  0  1.008582  0  0  0.120128  0  1.007927  0  0  0.103848  0.116304  0  1.008757  0
H  H7  1  0.46032885  0.56762247  0.67774240  1  0  0.103514  0  0.954156  0  0  0.117797  0  1.00858  0  0  0.120145  0  1.007924  0  0  0.103853  0.11632  0  1.008754  0
H  H8  1  0.09966633  0.13281432  0.61311226  1  0  0.082266  0  0.960806  0  0  0.096666  0  1.016096  0  0  0.098916  0  1.015519  0  0  0.097268  0.094858  0  1.016811  0
H  H9  1  0.40033367  0.63281451  0.38688735  1  0  0.082271  0  0.960807  0  0  0.096675  0  1.016092  0  0  0.098924  0  1.015517  0  0  0.09727  0.094868  0  1.016807  0
H  H10  1  0.90033456  0.86718666  0.38688751  1  0  0.082267  0  0.960817  0  0  0.096667  0  1.016102  0  0  0.098916  0  1.015527  0  0  0.09727  0.094859  0  1.016819  0
H  H11  1  0.59966614  0.36718648  0.61311232  1  0  0.08227  0  0.96081  0  0  0.096672  0  1.016095  0  0  0.098921  0  1.015521  0  0  0.097271  0.094865  0  1.01681  0
H  H12  1  0.10781957  0.34669508  0.73107801  1  0  0.084054  0  0.975482  0  0  0.096216  0  1.035127  0  0  0.097519  0  1.037199  0  0  0.094949  0.095157  0  1.033962  0
H  H13  1  0.39218031  0.84669532  0.26892337  1  0  0.084048  0  0.975461  0  0  0.0962  0  1.035131  0  0  0.097508  0  1.037191  0  0  0.094948  0.095141  0  1.033965  0
H  H14  1  0.89218024  0.65330591  0.26892259  1  0  0.08401  0  0.975507  0  0  0.096167  0  1.03517  0  0  0.097472  0  1.037237  0  0  0.094931  0.095109  0  1.034004  0
H  H15  1  0.60781950  0.15330566  0.73107723  1  0  0.084011  0  0.975506  0  0  0.096164  0  1.035177  0  0  0.097472  0  1.037236  0  0  0.09493  0.095105  0  1.034011  0
H  H16  1  0.97408500  0.37356208  0.92082932  1  0  0.110733  0  0.960013  0  0  0.113143  0  1.034301  0  0  0.116645  0  1.031425  0  0  0.103515  0.110637  0  1.036199  0
H  H17  1  0.52591570  0.87356258  0.07917050  1  0  0.110739  0  0.960028  0  0  0.113148  0  1.034315  0  0  0.116651  0  1.031439  0  0  0.103522  0.110643  0  1.036212  0
H  H18  1  0.02591481  0.62643789  0.07917128  1  0  0.110728  0  0.960024  0  0  0.113138  0  1.034314  0  0  0.116641  0  1.031437  0  0  0.103519  0.110632  0  1.036212  0
H  H19  1  0.47408519  0.12643739  0.92082926  1  0  0.110723  0  0.960019  0  0  0.113131  0  1.034307  0  0  0.116634  0  1.031431  0  0  0.103515  0.110626  0  1.036205  0
H  H20  1  0.75952995  0.02162466  0.46197526  1  0  0.098995  0  0.960423  0  0  0.108035  0  1.022474  0  0  0.111302  0  1.020708  0  0  0.105163  0.105689  0  1.023911  0
H  H21  1  0.74046986  0.52162384  0.53802462  1  0  0.09903  0  0.960422  0  0  0.108053  0  1.022484  0  0  0.111319  0  1.020718  0  0  0.105165  0.105705  0  1.023925  0
H  H22  1  0.24047639  0.97837633  0.53802683  1  0  0.099029  0  0.960355  0  0  0.108081  0  1.022394  0  0  0.111349  0  1.020625  0  0  0.1052  0.105733  0  1.023834  0
H  H23  1  0.25952340  0.47837512  0.46197264  1  0  0.09895  0  0.960482  0  0  0.108038  0  1.022476  0  0  0.111305  0  1.020711  0  0  0.105193  0.10569  0  1.023917  0
H  H24  1  0.30910039  0.11855324  0.36132765  1  0  0.084212  0  1.008363  0  0  0.091496  0  1.080284  0  0  0.094789  0  1.077806  0  0  0.097715  0.088924  0  1.082414  0
H  H25  1  0.19089853  0.61855240  0.63867187  1  0  0.084237  0  1.008345  0  0  0.091512  0  1.080274  0  0  0.094814  0  1.077786  0  0  0.097725  0.08894  0  1.082405  0
H  H26  1  0.69090487  0.88144673  0.63867341  1  0  0.084201  0  1.008359  0  0  0.091489  0  1.080263  0  0  0.094771  0  1.077796  0  0  0.097697  0.088916  0  1.082395  0
H  H27  1  0.80909365  0.38144656  0.36132529  1  0  0.08419  0  1.008377  0  0  0.091476  0  1.080284  0  0  0.094762  0  1.077816  0  0  0.097695  0.088905  0  1.082415  0
C  C28  1  0.88779455  0.04199608  0.83703315  1  0  0.131188  0  3.824839  0  0  0.125082  0  4.071168  0  0  0.12768  0  4.095206  0  0  0.089244  0.123379  0  4.05495  0
C  C29  1  0.61220634  0.54199650  0.16296681  1  0  0.13117  0  3.824892  0  0  0.125078  0  4.071198  0  0  0.127679  0  4.095232  0  0  0.089258  0.123377  0  4.054978  0
C  C30  1  0.11220635  0.95800389  0.16296662  1  0  0.131207  0  3.824865  0  0  0.125113  0  4.071167  0  0  0.127714  0  4.095204  0  0  0.089265  0.123412  0  4.054949  0
C  C31  1  0.38779346  0.45800347  0.83703286  1  0  0.131186  0  3.824888  0  0  0.125095  0  4.071197  0  0  0.127698  0  4.095233  0  0  0.089251  0.123395  0  4.054979  0
C  C32  1  0.96201523  0.02722977  0.73000370  1  0  -0.142373  0  3.75361  0  0  -0.161673  0  4.007425  0  0  -0.164664  0  4.02845  0  0  -0.094565  -0.159467  0  3.992919  0
C  C33  1  0.53798568  0.52723018  0.26999719  1  0  -0.14239  0  3.753662  0  0  -0.161695  0  4.007479  0  0  -0.164689  0  4.028504  0  0  -0.094604  -0.159489  0  3.992972  0
C  C34  1  0.03798676  0.97277122  0.26999708  1  0  -0.142406  0  3.753669  0  0  -0.161707  0  4.007481  0  0  -0.164702  0  4.028509  0  0  -0.094597  -0.159502  0  3.992975  0
C  C35  1  0.46201413  0.47277081  0.73000341  1  0  -0.142429  0  3.753698  0  0  -0.161735  0  4.007517  0  0  -0.164732  0  4.028545  0  0  -0.094609  -0.159532  0  3.993013  0
C  C36  1  0.03974770  0.13914637  0.69514706  1  0  -0.060311  0  3.772991  0  0  -0.075777  0  4.024497  0  0  -0.077523  0  4.046818  0  0  -0.093123  -0.074385  0  4.009111  0
C  C37  1  0.46025338  0.63914656  0.30485358  1  0  -0.060356  0  3.773006  0  0  -0.075829  0  4.024522  0  0  -0.077578  0  4.046846  0  0  -0.093136  -0.074439  0  4.009136  0
C  C38  1  0.96025320  0.86085462  0.30485364  1  0  -0.060285  0  3.773091  0  0  -0.075749  0  4.024585  0  0  -0.077497  0  4.046907  0  0  -0.093093  -0.074361  0  4.009199  0
C  C39  1  0.53974752  0.36085442  0.69514712  1  0  -0.060305  0  3.773082  0  0  -0.075768  0  4.024575  0  0  -0.077515  0  4.046899  0  0  -0.093103  -0.074379  0  4.009191  0
C  C40  1  0.04484924  0.26253137  0.76322788  1  0  -0.059515  0  3.765844  0  0  -0.076865  0  4.016156  0  0  -0.079705  0  4.041076  0  0  -0.095404  -0.074453  0  3.998524  0
C  C41  1  0.45515177  0.76253160  0.23677270  1  0  -0.059457  0  3.765776  0  0  -0.076803  0  4.016083  0  0  -0.07964  0  4.041003  0  0  -0.095381  -0.07439  0  3.99845  0
C  C42  1  0.95515166  0.73746961  0.23677282  1  0  -0.059482  0  3.76594  0  0  -0.076833  0  4.016239  0  0  -0.079667  0  4.041158  0  0  -0.095413  -0.074418  0  3.998605  0
C  C43  1  0.54484803  0.23746939  0.76322697  1  0  -0.059465  0  3.765902  0  0  -0.076816  0  4.016199  0  0  -0.079652  0  4.041121  0  0  -0.0954  -0.074403  0  3.998566  0
C  C44  1  0.97190967  0.27846749  0.86873253  1  0  -0.132933  0  3.729046  0  0  -0.152189  0  3.984435  0  0  -0.154708  0  4.004509  0  0  -0.089927  -0.150445  0  3.970371  0
C  C45  1  0.52809000  0.77846796  0.13126724  1  0  -0.132934  0  3.729008  0  0  -0.152188  0  3.984388  0  0  -0.154711  0  4.00447  0  0  -0.089915  -0.150443  0  3.970324  0
C  C46  1  0.02808905  0.72153248  0.13126705  1  0  -0.132914  0  3.72901  0  0  -0.152177  0  3.984402  0  0  -0.154698  0  4.004479  0  0  -0.089921  -0.150431  0  3.970337  0
C  C47  1  0.47191090  0.22153201  0.86873252  1  0  -0.132906  0  3.728982  0  0  -0.152155  0  3.984364  0  0  -0.154678  0  4.004445  0  0  -0.08991  -0.150411  0  3.970301  0
C  C48  1  0.89344227  0.16544512  0.90484099  1  0  0.130753  0  3.824843  0  0  0.126684  0  4.065718  0  0  0.128716  0  4.090052  0  0  0.092505  0.124864  0  4.0493  0
C  C49  1  0.60655856  0.66544659  0.09515985  1  0  0.130777  0  3.824796  0  0  0.126712  0  4.06566  0  0  0.128738  0  4.089999  0  0  0.09251  0.124892  0  4.049242  0
C  C50  1  0.10655754  0.83455383  0.09515962  1  0  0.130726  0  3.824845  0  0  0.126664  0  4.06571  0  0  0.128689  0  4.090049  0  0  0.092485  0.124842  0  4.049294  0
C  C51  1  0.39344234  0.33455439  0.90484084  1  0  0.130779  0  3.824812  0  0  0.126704  0  4.065687  0  0  0.12873  0  4.090027  0  0  0.09251  0.124884  0  4.04927  0
C  C52  1  0.58344807  0.15291440  0.28829517  1  0  0.665837  0  3.863177  0  0  0.614277  0  4.148083  0  0  0.649623  0  4.139352  0  0  0.224021  0.590286  0  4.1531  0
C  C53  1  0.91655167  0.65291444  0.71170465  1  0  0.665899  0  3.863144  0  0  0.614356  0  4.148025  0  0  0.649699  0  4.139291  0  0  0.224045  0.590364  0  4.153044  0
C  C54  1  0.41655500  0.84708456  0.71170571  1  0  0.666072  0  3.862916  0  0  0.614528  0  4.147795  0  0  0.649871  0  4.13906  0  0  0.224125  0.590536  0  4.152814  0
C  C55  1  0.08344596  0.34708452  0.28829391  1  0  0.666151  0  3.862898  0  0  0.614632  0  4.147738  0  0  0.649974  0  4.139  0  0  0.224176  0.59064  0  4.152758  0
C  C56  1  0.53902212  0.07666344  0.39839309  1  0  -0.059825  0  3.748563  0  0  -0.036056  0  3.977  0  0  -0.043262  0  3.999423  0  0  -0.010504  -0.031407  0  3.962267  0
C  C57  1  0.96097766  0.57666453  0.60160583  1  0  -0.059862  0  3.748648  0  0  -0.036113  0  3.977102  0  0  -0.043316  0  3.999524  0  0  -0.010528  -0.031461  0  3.962369  0
C  C58  1  0.46098422  0.92333653  0.60160807  1  0  -0.060049  0  3.748623  0  0  -0.036305  0  3.977105  0  0  -0.043509  0  3.999522  0  0  -0.010541  -0.031657  0  3.962372  0
C  C59  1  0.03901560  0.42333544  0.39839142  1  0  -0.060044  0  3.748727  0  0  -0.036313  0  3.977204  0  0  -0.043514  0  3.999618  0  0  -0.010552  -0.031663  0  3.962472  0
C  C60  1  0.64600960  0.01135657  0.47915746  1  0  -0.058289  0  3.715963  0  0  -0.082095  0  3.963042  0  0  -0.082578  0  3.98291  0  0  -0.076491  -0.082008  0  3.950491  0
C  C61  1  0.85399022  0.51135774  0.52084149  1  0  -0.058317  0  3.716012  0  0  -0.082101  0  3.963087  0  0  -0.082583  0  3.982953  0  0  -0.076485  -0.082013  0  3.950535  0
C  C62  1  0.35399783  0.98864340  0.52084472  1  0  -0.058199  0  3.715893  0  0  -0.082011  0  3.96297  0  0  -0.082494  0  3.982839  0  0  -0.076492  -0.08192  0  3.950419  0
C  C63  1  0.14600305  0.48864121  0.47915670  1  0  -0.058154  0  3.716004  0  0  -0.081973  0  3.963054  0  0  -0.082457  0  3.982921  0  0  -0.076489  -0.081884  0  3.950503  0
C  C64  1  0.39272179  0.06527412  0.42088458  1  0  -0.069289  0  3.740593  0  0  -0.093718  0  3.989543  0  0  -0.094352  0  4.009297  0  0  -0.08163  -0.093073  0  3.976847  0
C  C65  1  0.10727716  0.56527436  0.57911497  1  0  -0.06929  0  3.740612  0  0  -0.093719  0  3.989581  0  0  -0.094362  0  4.009331  0  0  -0.081624  -0.093074  0  3.976884  0
C  C66  1  0.60728456  0.93472585  0.57911751  1  0  -0.069221  0  3.740521  0  0  -0.093636  0  3.989447  0  0  -0.094262  0  4.009206  0  0  -0.08159  -0.092995  0  3.976762  0
C  C67  1  0.89271502  0.43472561  0.42088220  1  0  -0.069233  0  3.740584  0  0  -0.093649  0  3.989509  0  0  -0.094278  0  4.009265  0  0  -0.081597  -0.093008  0  3.976821  0
N  N68  1  0.80979428  0.14621233  0.00186555  1  0  -0.316399  0  3.272499  0  0  -0.244321  0  3.58316  0  0  -0.261537  0  3.594432  0  0  -0.241334  -0.232877  0  3.57576  0
N  N69  1  0.69020547  0.64621236  0.99813520  1  0  -0.316394  0  3.272481  0  0  -0.244307  0  3.583128  0  0  -0.261519  0  3.594397  0  0  -0.241366  -0.232867  0  3.57573  0
N  N70  1  0.19020553  0.85378764  0.99813505  1  0  -0.316399  0  3.272533  0  0  -0.244318  0  3.583183  0  0  -0.26153  0  3.594455  0  0  -0.241334  -0.232879  0  3.57579  0
N  N71  1  0.30979434  0.35378761  0.00186540  1  0  -0.31642  0  3.272538  0  0  -0.24434  0  3.583198  0  0  -0.26155  0  3.594462  0  0  -0.241349  -0.232899  0  3.5758  0
N  N72  1  0.75468227  0.02130636  0.99574483  1  0  -0.026031  0  2.939584  0  0  -0.024199  0  3.218568  0  0  -0.016507  0  3.230626  0  0  -0.08824  -0.028655  0  3.209885  0
N  N73  1  0.74531755  0.52130577  0.00425505  1  0  -0.026048  0  2.939572  0  0  -0.024227  0  3.218573  0  0  -0.016539  0  3.230634  0  0  -0.088239  -0.028681  0  3.209891  0
N  N74  1  0.24531754  0.97869361  0.00425485  1  0  -0.026031  0  2.939566  0  0  -0.024208  0  3.218563  0  0  -0.01652  0  3.230622  0  0  -0.088243  -0.028662  0  3.209882  0
N  N75  1  0.25468226  0.47869420  0.99574555  1  0  -0.026017  0  2.939505  0  0  -0.024181  0  3.218485  0  0  -0.016488  0  3.230541  0  0  -0.08821  -0.028635  0  3.209805  0
N  N76  1  0.79994007  0.95653670  0.89740034  1  0  -0.33935  0  3.264223  0  0  -0.267988  0  3.579309  0  0  -0.28575  0  3.589904  0  0  -0.24751  -0.255701  0  3.571484  0
N  N77  1  0.70006058  0.45653668  0.10260039  1  0  -0.339343  0  3.264258  0  0  -0.267986  0  3.579344  0  0  -0.28575  0  3.589943  0  0  -0.247508  -0.255704  0  3.571524  0
N  N78  1  0.20006083  0.04346327  0.10260036  1  0  -0.339333  0  3.264222  0  0  -0.267978  0  3.579309  0  0  -0.285737  0  3.5899  0  0  -0.247497  -0.255693  0  3.571485  0
N  N79  1  0.29993923  0.54346329  0.89740022  1  0  -0.339346  0  3.264152  0  0  -0.267997  0  3.579247  0  0  -0.285762  0  3.589844  0  0  -0.24752  -0.255714  0  3.571425  0
O  O80  1  0.72030659  0.17619525  0.28814413  1  0  -0.618771  0  2.066916  0  0  -0.543159  0  2.335723  0  0  -0.571199  0  2.321073  0  0  -0.311598  -0.523463  0  2.34454  0
O  O81  1  0.77969314  0.67619434  0.71185568  1  0  -0.618787  0  2.066915  0  0  -0.543182  0  2.335717  0  0  -0.571212  0  2.321053  0  0  -0.311617  -0.523481  0  2.344531  0
O  O82  1  0.27969648  0.82380472  0.71185582  1  0  -0.618959  0  2.066868  0  0  -0.54332  0  2.335627  0  0  -0.571369  0  2.321001  0  0  -0.311696  -0.523623  0  2.344444  0
O  O83  1  0.22030450  0.32380462  0.28814474  1  0  -0.618963  0  2.066841  0  0  -0.543363  0  2.335625  0  0  -0.571408  0  2.320998  0  0  -0.311722  -0.523666  0  2.344442  0
O  O84  1  0.49237034  0.19221401  0.19911679  1  0  -0.635592  0  2.085382  0  0  -0.567456  0  2.37004  0  0  -0.59402  0  2.353243  0  0  -0.313757  -0.549087  0  2.380805  0
O  O85  1  0.00762962  0.69221319  0.80088280  1  0  -0.63559  0  2.085346  0  0  -0.567458  0  2.370006  0  0  -0.594025  0  2.353212  0  0  -0.313735  -0.549092  0  2.380773  0
O  O86  1  0.50763056  0.80778596  0.80088577  1  0  -0.635597  0  2.085354  0  0  -0.567457  0  2.369988  0  0  -0.594021  0  2.353194  0  0  -0.313752  -0.549088  0  2.380756  0
O  O87  1  0.99236909  0.30778576  0.19911399  1  0  -0.635642  0  2.085302  0  0  -0.567505  0  2.369921  0  0  -0.594071  0  2.353129  0  0  -0.313763  -0.549138  0  2.38069  0
