# generated using pymatgen
data_ZnH24C25NO12
_symmetry_space_group_name_H-M   'P 1'
_cell_length_a   11.64602942
_cell_length_b   14.33505507
_cell_length_c   15.09164702
_cell_angle_alpha   89.98770158
_cell_angle_beta   93.46105425
_cell_angle_gamma   90.00022624
_symmetry_Int_Tables_number   1
_chemical_formula_structural   ZnH24C25NO12
_chemical_formula_sum   'Zn2 H48 C50 N2 O24'
_cell_volume   2514.90178433
_cell_formula_units_Z   2
loop_
 _symmetry_equiv_pos_site_id
 _symmetry_equiv_pos_as_xyz
  1  'x, y, z'
loop_
 _atom_site_type_symbol
 _atom_site_label
 _atom_site_symmetry_multiplicity
 _atom_site_fract_x
 _atom_site_fract_y
 _atom_site_fract_z
 _atom_site_occupancy
 _atom_site_pbe_bader_charge
 _atom_site_pbe_bader_spin_density
 _atom_site_pbe_cm5_charge
 _atom_site_pbe_ddec_charge
 _atom_site_pbe_ddec_spin_density
 _atom_site_pbe_ddec_sum_bond_order
 _atom_site_pbe_magmom
Zn  Zn0  1  0.50004242  0.39901578  0.50006356  1  1.284834  0  0.686605  0.856873  0  2.333364  0
Zn  Zn1  1  0.50003062  0.60303524  0.49999708  1  1.300877  0  0.679996  0.839483  0  2.363083  0
H  H2  1  0.32985103  0.93341319  0.43455009  1  0.127158  0  0.124347  0.137906  0  0.974598  0
H  H3  1  0.25796080  0.36005348  0.13025419  1  0.055966  0  0.09798  0.06028  0  0.994112  0
H  H4  1  0.25850928  0.21539264  0.03586877  1  0.03936  0  0.089432  0.119635  0  1.005199  0
H  H5  1  0.24459659  0.28521292  0.93804396  1  0.052594  0  0.09108  0.124651  0  0.997502  0
H  H6  1  0.13068509  0.28126880  0.01187464  1  0.031412  0  0.090114  0.118193  0  1.008454  0
H  H7  1  0.23851718  0.58279994  0.99347043  1  0.021869  0  0.090149  0.043539  0  0.997887  0
H  H8  1  0.22236427  0.63648070  0.88615696  1  0.063854  0  0.095678  0.055984  0  0.994594  0
H  H9  1  0.24599233  0.79447379  0.95701814  1  0.030494  0  0.089646  0.120634  0  1.001267  0
H  H10  1  0.13012148  0.73308910  0.00246253  1  0.024408  0  0.089289  0.116491  0  1.009615  0
H  H11  1  0.26539944  0.74140915  0.06376283  1  0.032775  0  0.094353  0.131355  0  0.98895  0
H  H12  1  0.75800990  0.43058026  0.96818819  1  0.013544  0  0.089521  0.041983  0  1.000954  0
H  H13  1  0.68560420  0.06884890  0.50003398  1  0.112512  0  0.123794  0.136375  0  0.978364  0
H  H14  1  0.74273730  0.36044438  0.86997106  1  0.059574  0  0.098234  0.060469  0  0.993692  0
H  H15  1  0.74256819  0.21575649  0.96435864  1  0.006846  0  0.089421  0.119576  0  1.004729  0
H  H16  1  0.75599578  0.28553106  0.06220008  1  0.009821  0  0.091252  0.124705  0  0.997109  0
H  H17  1  0.87011127  0.28191120  0.98852445  1  0.021728  0  0.090059  0.118227  0  1.007868  0
H  H18  1  0.76203309  0.58286259  0.00677649  1  0.024124  0  0.09042  0.044095  0  0.9985  0
H  H19  1  0.77794174  0.63649638  0.11409443  1  0.066048  0  0.095759  0.056342  0  0.994206  0
H  H20  1  0.75437037  0.79451254  0.04324539  1  0.027347  0  0.089729  0.120899  0  1.001309  0
H  H21  1  0.87038854  0.73321266  0.99792741  1  0.017943  0  0.089219  0.116776  0  1.009708  0
H  H22  1  0.73521499  0.74152945  0.93647515  1  0.030677  0  0.0943  0.131369  0  0.989159  0
H  H23  1  0.56497627  0.28129226  0.28809935  1  0.050931  0  0.087176  0.054344  0  1.013638  0
H  H24  1  0.67025017  0.93340049  0.56536649  1  0.12711  0  0.124344  0.138046  0  0.974293  0
H  H25  1  0.53478636  0.26334964  0.17144167  1  0.054591  0  0.097319  0.058068  0  0.985286  0
H  H26  1  0.47361701  0.12634939  0.26696499  1  0.009489  0  0.081966  0.107747  0  1.01125  0
H  H27  1  0.37043900  0.20196956  0.31283350  1  0.015621  0  0.083331  0.121214  0  1.032142  0
H  H28  1  0.35893398  0.17433834  0.19796743  1  0.03722  0  0.0902  0.12301  0  1.002077  0
H  H29  1  0.50144131  0.72218890  0.72963772  1  0.094315  0  0.091494  0.064016  0  1.019415  0
H  H30  1  0.44263586  0.75738920  0.83171888  1  0.034153  0  0.095203  0.056529  0  0.992027  0
H  H31  1  0.26379792  0.81387041  0.74781038  1  0.021563  0  0.087178  0.117349  0  1.00104  0
H  H32  1  0.38639696  0.86789623  0.70488323  1  -0.006226  0  0.081412  0.107  0  1.014018  0
H  H33  1  0.31648805  0.77312688  0.64655941  1  0.068436  0  0.083023  0.121152  0  1.022923  0
H  H34  1  0.43525218  0.28144478  0.71210076  1  0.052865  0  0.087167  0.054639  0  1.013338  0
H  H35  1  0.31449048  0.06884479  0.49984995  1  0.113376  0  0.123939  0.136638  0  0.978107  0
H  H36  1  0.46558066  0.26340288  0.82874006  1  0.052144  0  0.097527  0.058413  0  0.985765  0
H  H37  1  0.52650054  0.12643000  0.73315962  1  -0.000215  0  0.082275  0.108186  0  1.011424  0
H  H38  1  0.62963166  0.20203074  0.68715731  1  0.015818  0  0.083323  0.121488  0  1.031803  0
H  H39  1  0.64135174  0.17434721  0.80202281  1  0.037026  0  0.090138  0.123268  0  1.001813  0
H  H40  1  0.49878902  0.72218342  0.27034592  1  0.095596  0  0.091394  0.063609  0  1.019684  0
H  H41  1  0.55765389  0.75730793  0.16825099  1  0.033329  0  0.095184  0.056576  0  0.991946  0
H  H42  1  0.73640257  0.81390338  0.25212495  1  0.020261  0  0.087221  0.117646  0  1.000646  0
H  H43  1  0.61376846  0.86791481  0.29500322  1  0.0152  0  0.081631  0.107375  0  1.013851  0
H  H44  1  0.68374134  0.77319482  0.35341207  1  0.065921  0  0.082944  0.121155  0  1.023046  0
H  H45  1  0.15227340  0.72173692  0.43828319  1  0.632993  0  0.355169  0.396458  0  0.832685  0
H  H46  1  0.81035614  0.32245915  0.43256308  1  0.633945  0  0.348371  0.393446  0  0.840054  0
H  H47  1  0.84780701  0.72163925  0.56158988  1  0.631742  0  0.354953  0.396167  0  0.832851  0
H  H48  1  0.18986875  0.32248965  0.56748184  1  0.634051  0  0.348329  0.393646  0  0.840219  0
H  H49  1  0.24230684  0.43019470  0.03202794  1  0.016735  0  0.089744  0.042358  0  1.000622  0
C  C50  1  0.53030701  0.50371178  0.33548662  1  1.555764  0  0.225689  0.645977  0  4.116424  0
C  C51  1  0.71861206  0.49614701  0.52870092  1  1.717979  0  0.221185  0.651433  0  4.267419  0
C  C52  1  0.40566672  0.89863495  0.46462555  1  -0.080379  0  -0.064063  -0.186796  0  3.893072  0
C  C53  1  0.60218997  0.10308160  0.50013716  1  -0.015012  0  -0.061681  -0.181813  0  3.897652  0
C  C54  1  0.59443671  0.89862406  0.53528331  1  -0.083613  0  -0.064001  -0.187329  0  3.893335  0
C  C55  1  0.39791289  0.10307433  0.49975904  1  -0.014521  0  -0.06181  -0.182207  0  3.897643  0
C  C56  1  0.15874209  0.48707050  0.47838697  1  0.146201  0  -0.014518  -0.144485  0  3.885718  0
C  C57  1  0.84130679  0.48700994  0.52150181  1  0.149894  0  -0.014471  -0.144543  0  3.885224  0
C  C58  1  0.05637362  0.48269867  0.49226548  1  -0.2815  0  -0.031268  -0.006253  0  4.297404  0
C  C59  1  0.94367469  0.48270025  0.50754436  1  -0.386714  0  -0.031048  -0.006111  0  4.296242  0
C  C60  1  0.40895507  0.80157010  0.46547000  1  0.594168  0  0.144888  0.15501  0  3.904221  0
C  C61  1  0.46988986  0.50374347  0.66459212  1  1.555303  0  0.225629  0.644977  0  4.117011  0
C  C62  1  0.59914271  0.20022044  0.49869075  1  0.50957  0  0.143173  0.151376  0  3.896917  0
C  C63  1  0.59115066  0.80155850  0.53445184  1  0.59184  0  0.144493  0.154863  0  3.905897  0
C  C64  1  0.40096388  0.20021099  0.50127155  1  0.508505  0  0.143271  0.152107  0  3.896451  0
C  C65  1  0.45842871  0.43159944  0.09660080  1  0.598651  0  0.069993  0.09371  0  4.079393  0
C  C66  1  0.43269898  0.57556073  0.90447158  1  0.580691  0  0.07111  0.095517  0  4.065107  0
C  C67  1  0.54205864  0.43164919  0.90349856  1  0.59361  0  0.069997  0.093523  0  4.08042  0
C  C68  1  0.56771854  0.57553960  0.09562038  1  0.578868  0  0.070915  0.095419  0  4.06492  0
C  C69  1  0.47321954  0.42807915  0.18958699  1  0.480847  0  0.073586  0.13186  0  4.071457  0
C  C70  1  0.42342291  0.57530021  0.81114335  1  0.47934  0  0.072399  0.132836  0  4.070463  0
C  C71  1  0.52720446  0.42812800  0.81051616  1  0.485719  0  0.074025  0.13136  0  4.070965  0
C  C72  1  0.52968685  0.50139251  0.23638392  1  0.047398  0  -0.029066  -0.203472  0  3.9661  0
C  C73  1  0.57693020  0.57527623  0.18895472  1  0.478528  0  0.073262  0.134342  0  4.070847  0
C  C74  1  0.30662242  0.75251871  0.41980417  1  1.579368  0  0.241539  0.548783  0  4.138927  0
C  C75  1  0.71690537  0.24533364  0.49994989  1  1.593017  0  0.240119  0.549753  0  4.157092  0
C  C76  1  0.69346505  0.75250145  0.58011591  1  1.583319  0  0.2419  0.548795  0  4.138336  0
C  C77  1  0.28322281  0.24532834  0.50006050  1  1.597165  0  0.239959  0.549158  0  4.157448  0
C  C78  1  0.27613547  0.36354223  0.05954766  1  0.436509  0  -0.070019  0.085185  0  3.912776  0
C  C79  1  0.22465898  0.28145357  0.00817332  1  -0.087116  0  -0.243595  -0.389104  0  3.992052  0
C  C80  1  0.26168312  0.64420419  0.95401448  1  0.445192  0  -0.069108  0.086768  0  3.912116  0
C  C81  1  0.22381880  0.73367364  0.99688822  1  -0.052271  0  -0.243135  -0.390279  0  3.986189  0
C  C82  1  0.72444706  0.36386039  0.94066665  1  0.432043  0  -0.069843  0.085572  0  3.912108  0
C  C83  1  0.47066939  0.50142865  0.76370785  1  0.047425  0  -0.028648  -0.201906  0  3.964494  0
C  C84  1  0.77611117  0.28188061  0.99210874  1  -0.003248  0  -0.243636  -0.389114  0  3.990994  0
C  C85  1  0.73874918  0.64423290  0.04619666  1  0.42653  0  -0.069487  0.085983  0  3.913503  0
C  C86  1  0.77668131  0.73375822  0.00338519  1  -0.026352  0  -0.243112  -0.390645  0  3.986215  0
C  C87  1  0.49582967  0.27150162  0.23577481  1  0.400054  0  -0.072637  0.085375  0  3.893159  0
C  C88  1  0.42010362  0.18880031  0.25454207  1  -0.036343  0  -0.249112  -0.387509  0  3.977288  0
C  C89  1  0.42139697  0.73320434  0.76337536  1  0.400782  0  -0.075796  0.078802  0  3.888624  0
C  C90  1  0.34216494  0.80084318  0.71266122  1  -0.074016  0  -0.249498  -0.384906  0  3.990343  0
C  C91  1  0.50446426  0.27157313  0.76437777  1  0.405448  0  -0.072827  0.084243  0  3.894004  0
C  C92  1  0.58007960  0.18885478  0.74551871  1  -0.029241  0  -0.249464  -0.38853  0  3.978338  0
C  C93  1  0.57885354  0.73318673  0.23663373  1  0.39605  0  -0.075655  0.079579  0  3.889076  0
C  C94  1  0.50642234  0.50466351  0.04905804  1  0.069178  0  -0.015904  -0.06519  0  4.036149  0
C  C95  1  0.65804004  0.80086931  0.28729066  1  -0.08622  0  -0.249678  -0.385809  0  3.99068  0
C  C96  1  0.49406522  0.50469059  0.95103276  1  -0.039787  0  -0.016379  -0.066276  0  4.037441  0
C  C97  1  0.50005293  0.94944480  0.49994447  1  -0.056036  0  0.023971  0.12455  0  3.997273  0
C  C98  1  0.50005602  0.05214792  0.49993810  1  0.070703  0  0.022081  0.120886  0  3.99615  0
C  C99  1  0.28146668  0.49620402  0.47130105  1  1.718759  0  0.221247  0.651505  0  4.267332  0
N  N100  1  0.50006049  0.75229173  0.49995810  1  -1.197567  0  -0.278727  -0.226211  0  3.363115  0
N  N101  1  0.50005190  0.24976348  0.50000472  1  -1.158079  0  -0.276664  -0.223789  0  3.341781  0
O  O102  1  0.55734693  0.42959465  0.37836604  1  -1.158693  0  -0.314289  -0.55685  0  2.371834  0
O  O103  1  0.21384537  0.75811818  0.46922128  1  -1.112007  0  -0.324027  -0.471978  0  2.235911  0
O  O104  1  0.78782401  0.23073457  0.56105022  1  -1.096347  0  -0.274481  -0.454406  0  2.066745  0
O  O105  1  0.73529855  0.29107576  0.42463866  1  -1.1169  0  -0.310727  -0.450309  0  2.289878  0
O  O106  1  0.69293528  0.72042203  0.65449074  1  -1.088811  0  -0.251866  -0.422504  0  2.102482  0
O  O107  1  0.78623872  0.75806133  0.53065862  1  -1.112087  0  -0.32358  -0.47124  0  2.235171  0
O  O108  1  0.21224210  0.23076812  0.43901425  1  -1.100403  0  -0.274205  -0.45377  0  2.067237  0
O  O109  1  0.26491185  0.29107245  0.57538430  1  -1.11611  0  -0.310793  -0.450912  0  2.289325  0
O  O110  1  0.39926090  0.36142021  0.05117671  1  -1.075864  0  -0.199174  -0.217978  0  2.539507  0
O  O111  1  0.38557832  0.64743515  0.95097809  1  -1.096234  0  -0.19902  -0.21794  0  2.539863  0
O  O112  1  0.60129723  0.36147388  0.94891469  1  -1.070875  0  -0.199764  -0.218275  0  2.538751  0
O  O113  1  0.49999934  0.58058797  0.63052155  1  -1.144317  0  -0.307242  -0.530216  0  2.37418  0
O  O114  1  0.61486006  0.64743094  0.04909984  1  -1.094924  0  -0.198992  -0.219021  0  2.541114  0
O  O115  1  0.42483423  0.35466026  0.23297523  1  -1.05597  0  -0.203062  -0.218934  0  2.508137  0
O  O116  1  0.36156094  0.64448275  0.76643117  1  -1.065598  0  -0.207652  -0.228621  0  2.506922  0
O  O117  1  0.57552424  0.35469778  0.76713729  1  -1.059803  0  -0.203067  -0.217888  0  2.506669  0
O  O118  1  0.63871114  0.64446707  0.23367540  1  -1.068029  0  -0.207941  -0.229206  0  2.507851  0
O  O119  1  0.44279094  0.42962328  0.62176429  1  -1.157155  0  -0.314099  -0.55652  0  2.371614  0
O  O120  1  0.50009967  0.58054790  0.36948726  1  -1.143686  0  -0.307021  -0.530457  0  2.373893  0
O  O121  1  0.33505209  0.42435965  0.44706627  1  -1.137542  0  -0.302196  -0.528343  0  2.311381  0
O  O122  1  0.67771062  0.57553488  0.50708193  1  -1.13058  0  -0.297663  -0.528299  0  2.311391  0
O  O123  1  0.66505809  0.42430583  0.55301544  1  -1.137913  0  -0.302042  -0.528309  0  2.31159  0
O  O124  1  0.32234928  0.57558289  0.49293803  1  -1.13177  0  -0.297669  -0.528343  0  2.31208  0
O  O125  1  0.30719237  0.72043931  0.34544886  1  -1.088539  0  -0.251342  -0.422032  0  2.102557  0
