# generated using pymatgen
data_CdH12C15N2O5
_symmetry_space_group_name_H-M   'P 1'
_cell_length_a   7.44622980
_cell_length_b   11.36244132
_cell_length_c   18.51384118
_cell_angle_alpha   90.00005020
_cell_angle_beta   90.02197848
_cell_angle_gamma   90.00005970
_symmetry_Int_Tables_number   1
_chemical_formula_structural   CdH12C15N2O5
_chemical_formula_sum   'Cd4 H48 C60 N8 O20'
_cell_volume   1566.40690866
_cell_formula_units_Z   4
loop_
 _symmetry_equiv_pos_site_id
 _symmetry_equiv_pos_as_xyz
  1  'x, y, z'
loop_
 _atom_site_type_symbol
 _atom_site_label
 _atom_site_symmetry_multiplicity
 _atom_site_fract_x
 _atom_site_fract_y
 _atom_site_fract_z
 _atom_site_occupancy
 _atom_site_hle17_bader_spin_density
 _atom_site_hle17_ddec_charge
 _atom_site_hle17_ddec_spin_density
 _atom_site_hle17_ddec_sum_bond_order
 _atom_site_hle17_magmom
 _atom_site_hse06_10hf_bader_spin_density
 _atom_site_hse06_10hf_ddec_charge
 _atom_site_hse06_10hf_ddec_spin_density
 _atom_site_hse06_10hf_ddec_sum_bond_order
 _atom_site_hse06_10hf_magmom
 _atom_site_hse06_bader_spin_density
 _atom_site_hse06_ddec_charge
 _atom_site_hse06_ddec_spin_density
 _atom_site_hse06_ddec_sum_bond_order
 _atom_site_hse06_magmom
 _atom_site_pbe_bader_spin_density
 _atom_site_pbe_cm5_charge
 _atom_site_pbe_ddec_charge
 _atom_site_pbe_ddec_spin_density
 _atom_site_pbe_ddec_sum_bond_order
 _atom_site_pbe_magmom
Cd  Cd0  1  0.50000119  0.50000011  0.00000040  1  0  1.287463  0  1.668289  0  0  1.111166  0  2.13791  0  0  1.167049  0  2.074823  0  0  0.791907  1.071017  0  2.181532  0
Cd  Cd1  1  0.50000153  0.99999865  0.49999916  1  0  1.28743  0  1.668353  0  0  1.111133  0  2.137988  0  0  1.167018  0  2.074902  0  0  0.791897  1.070984  0  2.181613  0
Cd  Cd2  1  0.00000028  0.49999977  0.99999901  1  0  1.273458  0  1.609949  0  0  1.10111  0  2.070439  0  0  1.158572  0  2.008491  0  0  0.780744  1.059753  0  2.113233  0
Cd  Cd3  1  0.00000263  0.00000035  0.50000079  1  0  1.273454  0  1.609926  0  0  1.101094  0  2.070441  0  0  1.158574  0  2.008464  0  0  0.780729  1.059739  0  2.113236  0
H  H4  1  0.02123223  0.20536807  0.32510747  1  0  0.108696  0  0.940473  0  0  0.117693  0  1.001116  0  0  0.121356  0  0.999144  0  0  0.105673  0.115057  0  1.002608  0
H  H5  1  0.97877003  0.70536560  0.17489355  1  0  0.108682  0  0.940471  0  0  0.117653  0  1.001143  0  0  0.121316  0  0.999173  0  0  0.105661  0.115017  0  1.002631  0
H  H6  1  0.97876870  0.79463374  0.67489274  1  0  0.1087  0  0.940445  0  0  0.117661  0  1.001127  0  0  0.121324  0  0.999157  0  0  0.10566  0.115025  0  1.002616  0
H  H7  1  0.02122553  0.29463270  0.82510666  1  0  0.108633  0  0.940307  0  0  0.117619  0  1.000988  0  0  0.121281  0  0.99902  0  0  0.105628  0.114984  0  1.002476  0
H  H8  1  0.46941161  0.50853713  0.18267482  1  0  0.112725  0  0.98899  0  0  0.118455  0  1.054831  0  0  0.122259  0  1.05277  0  0  0.099816  0.115698  0  1.056425  0
H  H9  1  0.53058899  0.00853994  0.31732447  1  0  0.112702  0  0.988982  0  0  0.11842  0  1.054833  0  0  0.122224  0  1.052771  0  0  0.099811  0.115663  0  1.056427  0
H  H10  1  0.53059066  0.49146204  0.81732431  1  0  0.112757  0  0.98894  0  0  0.118471  0  1.054792  0  0  0.122274  0  1.052732  0  0  0.099844  0.115715  0  1.056379  0
H  H11  1  0.46940523  0.99146099  0.68267466  1  0  0.112728  0  0.988951  0  0  0.118475  0  1.054785  0  0  0.122279  0  1.052722  0  0  0.099833  0.115717  0  1.056384  0
H  H12  1  0.03685127  0.31016678  0.20558667  1  0  0.097964  0  0.955659  0  0  0.106907  0  1.02028  0  0  0.109807  0  1.019429  0  0  0.101749  0.104813  0  1.020995  0
H  H13  1  0.96315385  0.81016446  0.29441548  1  0  0.097959  0  0.955661  0  0  0.106892  0  1.020305  0  0  0.109793  0  1.019453  0  0  0.101736  0.104786  0  1.021033  0
H  H14  1  0.96315773  0.68983592  0.79441515  1  0  0.098001  0  0.955644  0  0  0.10693  0  1.020283  0  0  0.10983  0  1.019432  0  0  0.101742  0.104816  0  1.02102  0
H  H15  1  0.03683903  0.18983384  0.70558581  1  0  0.097968  0  0.955716  0  0  0.106918  0  1.020333  0  0  0.109815  0  1.019481  0  0  0.101763  0.104805  0  1.021063  0
H  H16  1  0.18641674  0.42242804  0.37829114  1  0  0.078817  0  0.962677  0  0  0.090268  0  1.02347  0  0  0.093042  0  1.022451  0  0  0.095066  0.088287  0  1.02424  0
H  H17  1  0.81357915  0.92243329  0.12170784  1  0  0.078876  0  0.962673  0  0  0.090316  0  1.023469  0  0  0.093092  0  1.022448  0  0  0.0951  0.088337  0  1.024235  0
H  H18  1  0.81358151  0.57756850  0.62170691  1  0  0.078845  0  0.962669  0  0  0.090287  0  1.023471  0  0  0.093064  0  1.022449  0  0  0.095075  0.088305  0  1.024242  0
H  H19  1  0.18641776  0.07756060  0.87829291  1  0  0.078907  0  0.962706  0  0  0.090335  0  1.023516  0  0  0.093111  0  1.022496  0  0  0.095057  0.088351  0  1.024293  0
H  H20  1  0.43736675  0.29737316  0.41826190  1  0  0.101523  0  0.968957  0  0  0.110632  0  1.030875  0  0  0.113957  0  1.029057  0  0  0.098807  0.108229  0  1.032282  0
H  H21  1  0.56263430  0.79737731  0.08173592  1  0  0.101536  0  0.96891  0  0  0.110605  0  1.030878  0  0  0.11393  0  1.029062  0  0  0.098813  0.108207  0  1.032277  0
H  H22  1  0.56263687  0.70262778  0.58173776  1  0  0.101496  0  0.968964  0  0  0.110603  0  1.030888  0  0  0.113928  0  1.02907  0  0  0.098791  0.108196  0  1.032295  0
H  H23  1  0.43735992  0.20261835  0.91826483  1  0  0.101533  0  0.968937  0  0  0.110587  0  1.030905  0  0  0.113912  0  1.029089  0  0  0.098769  0.108183  0  1.032313  0
H  H24  1  0.48589961  0.28291919  0.10469075  1  0  0.319617  0  0.925636  0  0  0.30006  0  0.989271  0  0  0.308953  0  0.981883  0  0  0.303388  0.293743  0  0.99456  0
H  H25  1  0.51410277  0.78291847  0.39530922  1  0  0.319497  0  0.925598  0  0  0.299934  0  0.989255  0  0  0.308825  0  0.981872  0  0  0.303331  0.293615  0  0.994536  0
H  H26  1  0.51410401  0.71708086  0.89530891  1  0  0.319569  0  0.925666  0  0  0.299984  0  0.98933  0  0  0.308872  0  0.981951  0  0  0.303348  0.293666  0  0.994617  0
H  H27  1  0.48589950  0.21708422  0.60469098  1  0  0.319588  0  0.925547  0  0  0.3  0  0.989223  0  0  0.308889  0  0.981845  0  0  0.30338  0.293684  0  0.994513  0
H  H28  1  0.20364810  0.52897636  0.25957795  1  0  0.089258  0  0.955807  0  0  0.099418  0  1.017481  0  0  0.101878  0  1.017248  0  0  0.097672  0.097588  0  1.017795  0
H  H29  1  0.79635119  0.02897661  0.24042081  1  0  0.089254  0  0.955858  0  0  0.099427  0  1.017513  0  0  0.101881  0  1.017287  0  0  0.097674  0.097609  0  1.017811  0
H  H30  1  0.79635148  0.47101929  0.74041955  1  0  0.089273  0  0.955865  0  0  0.099441  0  1.01752  0  0  0.101903  0  1.017287  0  0  0.097668  0.097611  0  1.017833  0
H  H31  1  0.20364303  0.97101728  0.75957994  1  0  0.089233  0  0.955871  0  0  0.099397  0  1.017531  0  0  0.101851  0  1.017306  0  0  0.097652  0.097569  0  1.01784  0
H  H32  1  0.15658765  0.02832323  0.05251726  1  0  0.054518  0  0.91113  0  0  0.071085  0  0.968972  0  0  0.071938  0  0.968618  0  0  0.099646  0.070354  0  0.969324  0
H  H33  1  0.84341568  0.52832193  0.44748366  1  0  0.054496  0  0.911145  0  0  0.071072  0  0.968994  0  0  0.071928  0  0.968636  0  0  0.099642  0.070344  0  0.969348  0
H  H34  1  0.84341328  0.97168035  0.94748295  1  0  0.054465  0  0.911147  0  0  0.071042  0  0.969002  0  0  0.071898  0  0.968645  0  0  0.09961  0.070311  0  0.969358  0
H  H35  1  0.15658257  0.47167901  0.55251546  1  0  0.054477  0  0.911133  0  0  0.071088  0  0.968951  0  0  0.071922  0  0.968614  0  0  0.099646  0.070354  0  0.969306  0
H  H36  1  0.02969296  0.07250037  0.12986786  1  0  0.068306  0  0.927486  0  0  0.085539  0  0.986474  0  0  0.08569  0  0.987163  0  0  0.107438  0.0853  0  0.986124  0
H  H37  1  0.97030909  0.57250080  0.37013254  1  0  0.068322  0  0.927448  0  0  0.085562  0  0.986448  0  0  0.085713  0  0.987136  0  0  0.107429  0.085326  0  0.986097  0
H  H38  1  0.97030932  0.92750145  0.87013235  1  0  0.068329  0  0.92742  0  0  0.085575  0  0.986418  0  0  0.085727  0  0.987106  0  0  0.107442  0.085339  0  0.986064  0
H  H39  1  0.02968915  0.42749925  0.62986658  1  0  0.068342  0  0.927432  0  0  0.085579  0  0.986438  0  0  0.085731  0  0.987122  0  0  0.107437  0.085342  0  0.986088  0
H  H40  1  0.99281571  0.22392230  0.01947554  1  0  0.321255  0  0.911275  0  0  0.304737  0  0.970715  0  0  0.313162  0  0.963481  0  0  0.308583  0.298761  0  0.975896  0
H  H41  1  0.00718658  0.72392223  0.48052495  1  0  0.321305  0  0.911277  0  0  0.304787  0  0.97071  0  0  0.313213  0  0.963475  0  0  0.308631  0.298813  0  0.975884  0
H  H42  1  0.00718791  0.77607951  0.98052413  1  0  0.321261  0  0.911334  0  0  0.304745  0  0.970766  0  0  0.31317  0  0.963532  0  0  0.308602  0.298769  0  0.975943  0
H  H43  1  0.99281704  0.27607606  0.51947526  1  0  0.32125  0  0.91122  0  0  0.304726  0  0.970673  0  0  0.313151  0  0.96344  0  0  0.308599  0.298749  0  0.975857  0
H  H44  1  0.28796610  0.15451720  0.18867559  1  0  0.063308  0  0.909659  0  0  0.080585  0  0.965826  0  0  0.080582  0  0.966832  0  0  0.103832  0.080412  0  0.965333  0
H  H45  1  0.71203474  0.65451474  0.31132540  1  0  0.063196  0  0.909731  0  0  0.080522  0  0.965834  0  0  0.080519  0  0.966838  0  0  0.103813  0.080353  0  0.965342  0
H  H46  1  0.71203484  0.84548461  0.81132462  1  0  0.063284  0  0.909608  0  0  0.080557  0  0.965787  0  0  0.080554  0  0.966791  0  0  0.103832  0.080387  0  0.965292  0
H  H47  1  0.28796619  0.34548708  0.68867427  1  0  0.063195  0  0.909774  0  0  0.08052  0  0.965884  0  0  0.080516  0  0.966892  0  0  0.103807  0.08035  0  0.965391  0
H  H48  1  0.40894172  0.05710416  0.13103670  1  0  0.065556  0  0.974582  0  0  0.077959  0  1.041024  0  0  0.07747  0  1.043692  0  0  0.10053  0.078206  0  1.039257  0
H  H49  1  0.59106031  0.55710257  0.36896477  1  0  0.065568  0  0.974547  0  0  0.077959  0  1.040995  0  0  0.077471  0  1.043663  0  0  0.100521  0.078208  0  1.03923  0
H  H50  1  0.59105922  0.94289678  0.86896351  1  0  0.065551  0  0.974589  0  0  0.077952  0  1.041024  0  0  0.077464  0  1.043691  0  0  0.100528  0.078197  0  1.039261  0
H  H51  1  0.40893928  0.44290012  0.63103490  1  0  0.065547  0  0.974532  0  0  0.077941  0  1.040989  0  0  0.077453  0  1.043655  0  0  0.100495  0.078187  0  1.039222  0
C  C52  1  0.60106713  0.32847034  0.32317515  1  0  0.041181  0  3.752851  0  0  0.050742  0  3.980225  0  0  0.050883  0  4.004835  0  0  -0.004389  0.050641  0  3.963625  0
C  C53  1  0.39892995  0.82847187  0.17682485  1  0  0.041128  0  3.752925  0  0  0.050674  0  3.980311  0  0  0.050816  0  4.004922  0  0  -0.004442  0.050573  0  3.963712  0
C  C54  1  0.39893649  0.67153148  0.67682560  1  0  0.041106  0  3.75301  0  0  0.050673  0  3.980379  0  0  0.050814  0  4.00499  0  0  -0.004416  0.050568  0  3.963779  0
C  C55  1  0.60106427  0.17152379  0.82317644  1  0  0.041356  0  3.752677  0  0  0.050913  0  3.980036  0  0  0.051054  0  4.004646  0  0  -0.00434  0.050813  0  3.963432  0
C  C56  1  0.76879661  0.37575769  0.21180435  1  0  -0.097194  0  3.712278  0  0  -0.07998  0  3.946821  0  0  -0.086157  0  3.967112  0  0  -0.014044  -0.076039  0  3.933276  0
C  C57  1  0.23120592  0.87575838  0.28819622  1  0  -0.097241  0  3.712369  0  0  -0.080037  0  3.946899  0  0  -0.086211  0  3.967187  0  0  -0.014053  -0.076099  0  3.933355  0
C  C58  1  0.23120970  0.62424500  0.78819585  1  0  -0.097192  0  3.712275  0  0  -0.079984  0  3.94682  0  0  -0.086159  0  3.967106  0  0  -0.014034  -0.076038  0  3.933267  0
C  C59  1  0.76878561  0.12424079  0.71180454  1  0  -0.09714  0  3.712342  0  0  -0.079914  0  3.946845  0  0  -0.086087  0  3.96713  0  0  -0.013959  -0.075973  0  3.933292  0
C  C60  1  0.60976700  0.38809392  0.25470940  1  0  0.038479  0  3.750898  0  0  0.04915  0  3.976833  0  0  0.049175  0  4.001611  0  0  -0.005069  0.049158  0  3.960108  0
C  C61  1  0.39023286  0.88809466  0.24529063  1  0  0.038528  0  3.750871  0  0  0.0492  0  3.976803  0  0  0.049225  0  4.00158  0  0  -0.005054  0.049204  0  3.960088  0
C  C62  1  0.39023662  0.61190789  0.74529026  1  0  0.038509  0  3.751022  0  0  0.049183  0  3.976941  0  0  0.049207  0  4.00172  0  0  -0.005026  0.049184  0  3.960224  0
C  C63  1  0.60976136  0.11190275  0.75470904  1  0  0.038339  0  3.751071  0  0  0.049014  0  3.977006  0  0  0.049038  0  4.001784  0  0  -0.005069  0.049017  0  3.960287  0
C  C64  1  0.75174776  0.26004321  0.34632081  1  0  -0.093335  0  3.715173  0  0  -0.078193  0  3.953211  0  0  -0.084433  0  3.973948  0  0  -0.013221  -0.074123  0  3.939256  0
C  C65  1  0.24825325  0.76004284  0.15368024  1  0  -0.093406  0  3.715247  0  0  -0.078242  0  3.953286  0  0  -0.084485  0  3.974024  0  0  -0.013213  -0.07417  0  3.939329  0
C  C66  1  0.24825587  0.73995860  0.65368048  1  0  -0.093366  0  3.715121  0  0  -0.078212  0  3.953177  0  0  -0.084455  0  3.973915  0  0  -0.013252  -0.074137  0  3.939211  0
C  C67  1  0.75174232  0.23995369  0.84632159  1  0  -0.093499  0  3.715171  0  0  -0.078376  0  3.953255  0  0  -0.084616  0  3.973991  0  0  -0.013291  -0.074303  0  3.939297  0
C  C68  1  0.74044821  0.18054801  0.41081347  1  0  0.684065  0  3.88737  0  0  0.63016  0  4.185255  0  0  0.666371  0  4.175072  0  0  0.217166  0.605469  0  4.191437  0
C  C69  1  0.25955536  0.68054844  0.08918700  1  0  0.68404  0  3.887548  0  0  0.630105  0  4.185472  0  0  0.66632  0  4.175285  0  0  0.217099  0.605413  0  4.191656  0
C  C70  1  0.25955407  0.81945292  0.58918674  1  0  0.684114  0  3.887357  0  0  0.630151  0  4.18533  0  0  0.666365  0  4.175143  0  0  0.217168  0.605469  0  4.191499  0
C  C71  1  0.74044289  0.31944985  0.91081483  1  0  0.683986  0  3.887569  0  0  0.630079  0  4.185456  0  0  0.666292  0  4.175272  0  0  0.217107  0.605389  0  4.191636  0
C  C72  1  0.90768773  0.25716973  0.30565438  1  0  -0.081617  0  3.761171  0  0  -0.106308  0  4.018625  0  0  -0.107035  0  4.037736  0  0  -0.087668  -0.105695  0  4.005592  0
C  C73  1  0.09231328  0.75716844  0.19434667  1  0  -0.081555  0  3.761184  0  0  -0.106228  0  4.018639  0  0  -0.106954  0  4.03775  0  0  -0.087679  -0.105616  0  4.005598  0
C  C74  1  0.09231589  0.74283296  0.69434583  1  0  -0.081551  0  3.761027  0  0  -0.106208  0  4.018477  0  0  -0.106934  0  4.037588  0  0  -0.087614  -0.105595  0  4.005434  0
C  C75  1  0.90768229  0.24282810  0.80565517  1  0  -0.08151  0  3.760838  0  0  -0.106184  0  4.018299  0  0  -0.106913  0  4.037412  0  0  -0.087639  -0.105577  0  4.005258  0
C  C76  1  0.46300887  0.46051755  0.23349368  1  0  -0.118037  0  3.724531  0  0  -0.138561  0  3.975707  0  0  -0.141308  0  3.995903  0  0  -0.094718  -0.136648  0  3.962031  0
C  C77  1  0.53699245  0.96052019  0.26650640  1  0  -0.117979  0  3.724486  0  0  -0.138478  0  3.975646  0  0  -0.141225  0  3.995838  0  0  -0.094699  -0.136566  0  3.961979  0
C  C78  1  0.53699341  0.53948250  0.76650599  1  0  -0.118076  0  3.724462  0  0  -0.138588  0  3.975639  0  0  -0.141335  0  3.995836  0  0  -0.09479  -0.136676  0  3.961964  0
C  C79  1  0.46300042  0.03947899  0.73349382  1  0  -0.117959  0  3.724628  0  0  -0.138519  0  3.975814  0  0  -0.141264  0  3.996005  0  0  -0.094758  -0.136609  0  3.962144  0
C  C80  1  0.77984813  0.42130507  0.13572096  1  0  0.684124  0  3.885655  0  0  0.629785  0  4.185193  0  0  0.66615  0  4.174999  0  0  0.215085  0.605018  0  4.191349  0
C  C81  1  0.22015716  0.92130674  0.36427802  1  0  0.68393  0  3.885914  0  0  0.629638  0  4.185377  0  0  0.665999  0  4.175188  0  0  0.21507  0.604875  0  4.191528  0
C  C82  1  0.22016086  0.57869586  0.86427763  1  0  0.68422  0  3.885704  0  0  0.629887  0  4.18524  0  0  0.666252  0  4.175045  0  0  0.215176  0.605124  0  4.191391  0
C  C83  1  0.77983706  0.07869507  0.63572165  1  0  0.684066  0  3.885907  0  0  0.629752  0  4.185394  0  0  0.666113  0  4.1752  0  0  0.21513  0.604987  0  4.191547  0
C  C84  1  0.91574913  0.31497945  0.23850998  1  0  -0.080563  0  3.767613  0  0  -0.106312  0  4.025372  0  0  -0.106955  0  4.04556  0  0  -0.090031  -0.105729  0  4.011604  0
C  C85  1  0.08425196  0.81497736  0.26149110  1  0  -0.080514  0  3.767639  0  0  -0.106255  0  4.025386  0  0  -0.106899  0  4.045574  0  0  -0.089993  -0.105658  0  4.011622  0
C  C86  1  0.08425584  0.68502501  0.76149131  1  0  -0.080652  0  3.767578  0  0  -0.106386  0  4.025315  0  0  -0.10703  0  4.045503  0  0  -0.090057  -0.10579  0  4.011559  0
C  C87  1  0.91573957  0.18502093  0.73851019  1  0  -0.080558  0  3.767592  0  0  -0.10633  0  4.025356  0  0  -0.106966  0  4.045536  0  0  -0.090071  -0.105722  0  4.011582  0
C  C88  1  0.30479757  0.41316596  0.34407546  1  0  -0.079664  0  3.817118  0  0  -0.093729  0  4.068923  0  0  -0.09569  0  4.090357  0  0  -0.098252  -0.09228  0  4.054208  0
C  C89  1  0.69519696  0.91317118  0.15592405  1  0  -0.079727  0  3.817379  0  0  -0.093779  0  4.069168  0  0  -0.095742  0  4.090603  0  0  -0.098276  -0.092335  0  4.054457  0
C  C90  1  0.69520067  0.58683234  0.65592420  1  0  -0.079618  0  3.817174  0  0  -0.093676  0  4.06896  0  0  -0.095638  0  4.090396  0  0  -0.098195  -0.092229  0  4.054248  0
C  C91  1  0.30479727  0.08682447  0.84407670  1  0  -0.079854  0  3.817496  0  0  -0.093913  0  4.069283  0  0  -0.095874  0  4.090719  0  0  -0.098226  -0.092467  0  4.054574  0
C  C92  1  0.24134353  0.27982203  0.05303560  1  0  0.736546  0  3.875057  0  0  0.66562  0  4.176825  0  0  0.701086  0  4.172183  0  0  0.336134  0.641513  0  4.179268  0
C  C93  1  0.75866019  0.77982155  0.44696383  1  0  0.736508  0  3.875113  0  0  0.665604  0  4.176851  0  0  0.701071  0  4.172208  0  0  0.336167  0.641501  0  4.179288  0
C  C94  1  0.75865875  0.72017891  0.94696460  1  0  0.736473  0  3.87516  0  0  0.665535  0  4.176921  0  0  0.701  0  4.17228  0  0  0.33613  0.641435  0  4.179359  0
C  C95  1  0.24134611  0.22017939  0.55303529  1  0  0.736484  0  3.875195  0  0  0.665566  0  4.176928  0  0  0.701033  0  4.172287  0  0  0.336136  0.641467  0  4.179362  0
C  C96  1  0.44501368  0.34291615  0.36664816  1  0  -0.116323  0  3.745588  0  0  -0.135591  0  3.992889  0  0  -0.137779  0  4.012503  0  0  -0.09514  -0.13408  0  3.979622  0
C  C97  1  0.55498477  0.84292125  0.13335131  1  0  -0.116268  0  3.745651  0  0  -0.135495  0  3.992956  0  0  -0.137685  0  4.012574  0  0  -0.095104  -0.133985  0  3.979682  0
C  C98  1  0.55498726  0.65708390  0.63335151  1  0  -0.116276  0  3.745584  0  0  -0.135546  0  3.992882  0  0  -0.137735  0  4.012498  0  0  -0.095152  -0.13403  0  3.979609  0
C  C99  1  0.44500945  0.15707440  0.86664998  1  0  -0.116251  0  3.745626  0  0  -0.135455  0  3.992889  0  0  -0.137645  0  4.012511  0  0  -0.095094  -0.133942  0  3.979615  0
C  C100  1  0.31397956  0.47265489  0.27714087  1  0  -0.069798  0  3.787691  0  0  -0.083579  0  4.03966  0  0  -0.085475  0  4.061516  0  0  -0.094929  -0.082166  0  4.024727  0
C  C101  1  0.68602044  0.97265844  0.22285921  1  0  -0.069839  0  3.787889  0  0  -0.08364  0  4.039866  0  0  -0.08553  0  4.061723  0  0  -0.094952  -0.082236  0  4.024927  0
C  C102  1  0.68602137  0.52734164  0.72285826  1  0  -0.069886  0  3.787802  0  0  -0.083671  0  4.039747  0  0  -0.085569  0  4.061604  0  0  -0.094954  -0.082263  0  4.024817  0
C  C103  1  0.31397378  0.02733721  0.77714100  1  0  -0.069787  0  3.787868  0  0  -0.083556  0  4.039815  0  0  -0.085446  0  4.061672  0  0  -0.094926  -0.082145  0  4.024878  0
C  C104  1  0.13582655  0.09945145  0.09228020  1  0  0.048068  0  3.620407  0  0  -0.011201  0  3.891835  0  0  -0.007217  0  3.902874  0  0  -0.048733  -0.013739  0  3.884157  0
C  C105  1  0.86417286  0.59945011  0.40772076  1  0  0.048043  0  3.620303  0  0  -0.01129  0  3.891803  0  0  -0.007308  0  3.902841  0  0  -0.048732  -0.013826  0  3.884132  0
C  C106  1  0.86417170  0.90055036  0.90772109  1  0  0.048039  0  3.620325  0  0  -0.011293  0  3.891831  0  0  -0.007314  0  3.902874  0  0  -0.048736  -0.013831  0  3.884151  0
C  C107  1  0.13582539  0.40054907  0.59227837  1  0  0.047983  0  3.620284  0  0  -0.011372  0  3.891798  0  0  -0.007371  0  3.902838  0  0  -0.048779  -0.013906  0  3.884123  0
C  C108  1  0.31280154  0.12989482  0.13195181  1  0  0.044021  0  3.610126  0  0  -0.014825  0  3.876385  0  0  -0.010726  0  3.887942  0  0  -0.051783  -0.017455  0  3.868327  0
C  C109  1  0.68719926  0.62989330  0.36804971  1  0  0.044102  0  3.610026  0  0  -0.014723  0  3.876251  0  0  -0.010623  0  3.887808  0  0  -0.051773  -0.017366  0  3.868213  0
C  C110  1  0.68719940  0.87010787  0.86804948  1  0  0.044136  0  3.610026  0  0  -0.014696  0  3.876273  0  0  -0.010598  0  3.887832  0  0  -0.05176  -0.017324  0  3.868214  0
C  C111  1  0.31279899  0.37010940  0.63195050  1  0  0.044128  0  3.610103  0  0  -0.014731  0  3.876352  0  0  -0.010631  0  3.887903  0  0  -0.051764  -0.017368  0  3.868304  0
N  N112  1  0.37759977  0.23091624  0.09062896  1  0  -0.484169  0  3.196833  0  0  -0.424801  0  3.446376  0  0  -0.445319  0  3.449304  0  0  -0.43166  -0.410803  0  3.444128  0
N  N113  1  0.62240254  0.73091561  0.40937261  1  0  -0.483955  0  3.196634  0  0  -0.424616  0  3.446201  0  0  -0.445134  0  3.449132  0  0  -0.431566  -0.410615  0  3.443956  0
N  N114  1  0.62240117  0.76908470  0.90937233  1  0  -0.484183  0  3.196826  0  0  -0.424752  0  3.446351  0  0  -0.445268  0  3.44928  0  0  -0.431614  -0.410753  0  3.444109  0
N  N115  1  0.37760108  0.26908533  0.59062706  1  0  -0.484073  0  3.196665  0  0  -0.424681  0  3.446221  0  0  -0.445195  0  3.44915  0  0  -0.431586  -0.410685  0  3.443977  0
N  N116  1  0.09303763  0.21075320  0.05665791  1  0  -0.490682  0  3.207317  0  0  -0.431852  0  3.457514  0  0  -0.452405  0  3.461488  0  0  -0.433381  -0.417832  0  3.454545  0
N  N117  1  0.90696330  0.71075281  0.44334311  1  0  -0.490706  0  3.207324  0  0  -0.431858  0  3.457509  0  0  -0.452414  0  3.461486  0  0  -0.433431  -0.417839  0  3.454533  0
N  N118  1  0.90696197  0.78924950  0.94334392  1  0  -0.490613  0  3.207397  0  0  -0.431766  0  3.457602  0  0  -0.452319  0  3.461579  0  0  -0.433386  -0.417747  0  3.454628  0
N  N119  1  0.09303898  0.28924636  0.55665656  1  0  -0.490584  0  3.207163  0  0  -0.431737  0  3.457356  0  0  -0.452291  0  3.461328  0  0  -0.43337  -0.417716  0  3.454382  0
O  O120  1  0.25001337  0.37659434  0.01862982  1  0  -0.692717  0  2.08928  0  0  -0.616654  0  2.368399  0  0  -0.645621  0  2.35036  0  0  -0.326092  -0.596233  0  2.380145  0
O  O121  1  0.74998916  0.87659390  0.48137021  1  0  -0.692746  0  2.089298  0  0  -0.616696  0  2.368439  0  0  -0.645664  0  2.350396  0  0  -0.326111  -0.596277  0  2.380185  0
O  O122  1  0.74998891  0.62340835  0.98137093  1  0  -0.692698  0  2.08932  0  0  -0.61663  0  2.36844  0  0  -0.645597  0  2.350401  0  0  -0.326094  -0.596215  0  2.380189  0
O  O123  1  0.25001446  0.12340791  0.51862999  1  0  -0.692703  0  2.089373  0  0  -0.616653  0  2.368499  0  0  -0.645619  0  2.350459  0  0  -0.326098  -0.596234  0  2.380245  0
O  O124  1  0.87268547  0.17609570  0.45421493  1  0  -0.674265  0  2.048636  0  0  -0.612915  0  2.3016  0  0  -0.640711  0  2.287798  0  0  -0.32615  -0.593306  0  2.31037  0
O  O125  1  0.12731808  0.67609510  0.04578553  1  0  -0.674196  0  2.048629  0  0  -0.612847  0  2.301612  0  0  -0.640646  0  2.28781  0  0  -0.326095  -0.593241  0  2.310384  0
O  O126  1  0.12731680  0.82390523  0.54578527  1  0  -0.674245  0  2.048612  0  0  -0.612871  0  2.301599  0  0  -0.640669  0  2.287797  0  0  -0.326121  -0.593272  0  2.310369  0
O  O127  1  0.87268151  0.32390496  0.95421522  1  0  -0.674181  0  2.048641  0  0  -0.612833  0  2.301608  0  0  -0.640632  0  2.287809  0  0  -0.326114  -0.593229  0  2.310379  0
O  O128  1  0.59780495  0.11912015  0.41419712  1  0  -0.644169  0  2.070967  0  0  -0.574078  0  2.327662  0  0  -0.604616  0  2.315674  0  0  -0.317174  -0.552591  0  2.335153  0
O  O129  1  0.40219852  0.61912067  0.08580385  1  0  -0.644205  0  2.071116  0  0  -0.574098  0  2.32781  0  0  -0.604634  0  2.315813  0  0  -0.317162  -0.552614  0  2.335305  0
O  O130  1  0.40219732  0.88088079  0.58580309  1  0  -0.644214  0  2.071046  0  0  -0.574102  0  2.327766  0  0  -0.604634  0  2.315766  0  0  -0.317188  -0.552623  0  2.33526  0
O  O131  1  0.59780242  0.38087939  0.91419636  1  0  -0.644184  0  2.071186  0  0  -0.57407  0  2.327847  0  0  -0.604596  0  2.315832  0  0  -0.317145  -0.552586  0  2.335337  0
O  O132  1  0.64542693  0.40106551  0.09477716  1  0  -0.677668  0  2.076508  0  0  -0.609719  0  2.330313  0  0  -0.638324  0  2.316524  0  0  -0.321709  -0.58951  0  2.33903  0
O  O133  1  0.35457833  0.90106821  0.40522127  1  0  -0.677556  0  2.076634  0  0  -0.609646  0  2.330435  0  0  -0.638255  0  2.316663  0  0  -0.321704  -0.589436  0  2.339146  0
O  O134  1  0.35458341  0.59893367  0.90522143  1  0  -0.677672  0  2.076597  0  0  -0.609746  0  2.330441  0  0  -0.638348  0  2.316644  0  0  -0.321739  -0.589539  0  2.339156  0
O  O135  1  0.64541723  0.09893449  0.59477732  1  0  -0.677657  0  2.076654  0  0  -0.609681  0  2.330412  0  0  -0.638293  0  2.316649  0  0  -0.321734  -0.589477  0  2.339133  0
O  O136  1  0.92471561  0.47185322  0.11710970  1  0  -0.638272  0  1.998311  0  0  -0.576621  0  2.252349  0  0  -0.60679  0  2.24116  0  0  -0.322746  -0.555379  0  2.259215  0
O  O137  1  0.07529245  0.97185658  0.38288984  1  0  -0.638206  0  1.998348  0  0  -0.576554  0  2.252346  0  0  -0.606722  0  2.241156  0  0  -0.322753  -0.555315  0  2.259211  0
O  O138  1  0.07529607  0.52814771  0.88288942  1  0  -0.638347  0  1.998369  0  0  -0.576683  0  2.252409  0  0  -0.606845  0  2.241201  0  0  -0.322816  -0.555444  0  2.259275  0
O  O139  1  0.92470312  0.02814611  0.61710983  1  0  -0.638272  0  1.998377  0  0  -0.57664  0  2.252425  0  0  -0.606814  0  2.241242  0  0  -0.322819  -0.555403  0  2.259302  0
