# generated using pymatgen
data_Zn4H21C36S3N3O16
_symmetry_space_group_name_H-M   'P 1'
_cell_length_a   16.00179792
_cell_length_b   17.06578835
_cell_length_c   16.80810206
_cell_angle_alpha   64.21716012
_cell_angle_beta   63.37465627
_cell_angle_gamma   63.44260233
_symmetry_Int_Tables_number   1
_chemical_formula_structural   Zn4H21C36S3N3O16
_chemical_formula_sum   'Zn8 H42 C72 S6 N6 O32'
_cell_volume   3508.81407431
_cell_formula_units_Z   2
loop_
 _symmetry_equiv_pos_site_id
 _symmetry_equiv_pos_as_xyz
  1  'x, y, z'
loop_
 _atom_site_type_symbol
 _atom_site_label
 _atom_site_symmetry_multiplicity
 _atom_site_fract_x
 _atom_site_fract_y
 _atom_site_fract_z
 _atom_site_occupancy
 _atom_site_pbe_bader_charge
 _atom_site_pbe_bader_spin_density
 _atom_site_pbe_cm5_charge
 _atom_site_pbe_ddec_charge
 _atom_site_pbe_ddec_spin_density
 _atom_site_pbe_ddec_sum_bond_order
 _atom_site_pbe_magmom
Zn  Zn0  1  0.11273959  0.93755679  0.94909620  1  1.311039  0  0.671934  0.963962  0  2.334555  0
Zn  Zn1  1  0.90034451  0.92636996  0.99652555  1  1.326748  0  0.684895  0.980144  0  2.350706  0
Zn  Zn2  1  0.92406972  0.11314455  0.98902190  1  1.319967  0  0.680237  0.971935  0  2.293496  0
Zn  Zn3  1  0.96172894  0.92589207  0.14913725  1  1.323654  0  0.68352  0.967934  0  2.440326  0
Zn  Zn4  1  0.32277480  0.52981263  0.53323275  1  1.315631  0  0.678223  0.964998  0  2.34903  0
Zn  Zn5  1  0.49976679  0.51536849  0.59088759  1  1.316119  0  0.67249  0.962169  0  2.316046  0
Zn  Zn6  1  0.54496460  0.51039129  0.38092855  1  1.320923  0  0.679473  0.977553  0  2.315886  0
Zn  Zn7  1  0.49224542  0.35161598  0.56089879  1  1.311201  0  0.674266  0.951127  0  2.467129  0
H  H8  1  0.04663755  0.54407296  0.89379519  1  0.039265  0  0.089218  0.02372  0  1.000277  0
H  H9  1  0.97688134  0.51263481  0.70896036  1  0.122009  0  0.114525  0.131938  0  1.004807  0
H  H10  1  0.04780835  0.62324399  0.54090924  1  0.124456  0  0.109798  0.130589  0  1.010207  0
H  H11  1  0.12794410  0.71757387  0.56920186  1  0.136529  0  0.124844  0.116204  0  0.991653  0
H  H12  1  0.30039494  0.76296488  0.81035632  1  0.063733  0  0.095028  0.146104  0  1.019273  0
H  H13  1  0.36656076  0.65257221  0.79101455  1  0.060808  0  0.099287  0.143765  0  0.982747  0
H  H14  1  0.35356338  0.75082201  0.69556338  1  0.071371  0  0.096159  0.137273  0  0.988889  0
H  H15  1  0.41861425  0.07113606  0.59997437  1  0.052734  0  0.094579  0.035561  0  0.994558  0
H  H16  1  0.50977095  0.17810436  0.32425443  1  0.085188  0  0.114651  0.133613  0  0.986847  0
H  H17  1  0.39241680  0.35587616  0.28141474  1  0.088409  0  0.111434  0.129528  0  0.993319  0
H  H18  1  0.25115346  0.38066362  0.44595498  1  0.150696  0  0.129361  0.125859  0  0.99034  0
H  H19  1  0.12803667  0.25888958  0.88278382  1  0.081806  0  0.100443  0.151163  0  0.986667  0
H  H20  1  0.19408850  0.33807151  0.80020934  1  0.035477  0  0.094078  0.135974  0  0.989247  0
H  H21  1  0.07054733  0.36135264  0.81076073  1  0.101199  0  0.101166  0.153162  0  1.00485  0
H  H22  1  0.52094799  0.82506650  0.04711048  1  0.041445  0  0.091346  0.028065  0  0.995229  0
H  H23  1  0.61044346  0.90855325  0.17356904  1  0.148206  0  0.114763  0.134024  0  0.993438  0
H  H24  1  0.50615379  0.86703343  0.35896121  1  0.094964  0  0.111257  0.132028  0  0.993513  0
H  H25  1  0.36725317  0.80386774  0.37640817  1  0.119254  0  0.126175  0.118941  0  0.988857  0
H  H26  1  0.15014381  0.68392640  0.25633994  1  0.072157  0  0.096324  0.145081  0  0.998034  0
H  H27  1  0.21065096  0.62574522  0.34368884  1  0.073998  0  0.092125  0.134425  0  1.00739  0
H  H28  1  0.10861959  0.72675927  0.35053672  1  0.089391  0  0.102284  0.148778  0  0.990272  0
H  H29  1  0.76087699  0.98679612  0.73334990  1  0.063505  0  0.09707  0.040158  0  0.979461  0
H  H30  1  0.04657646  0.86781967  0.62140216  1  0.084011  0  0.109022  0.125324  0  1.013747  0
H  H31  1  0.14940496  0.94096056  0.64902827  1  0.098112  0  0.108882  0.129994  0  0.992708  0
H  H32  1  0.01242954  0.08075373  0.72087773  1  0.113256  0  0.117461  0.108472  0  1.016366  0
H  H33  1  0.64287365  0.27060766  0.90969180  1  0.055696  0  0.099293  0.140778  0  0.979039  0
H  H34  1  0.72213976  0.33631817  0.82964110  1  0.082653  0  0.103341  0.14898  0  0.973447  0
H  H35  1  0.60717143  0.36490639  0.81494414  1  0.094854  0  0.095835  0.144989  0  1.011926  0
H  H36  1  0.90094821  0.56682711  0.44351121  1  0.030104  0  0.091176  0.027994  0  0.992614  0
H  H37  1  0.78562214  0.56439841  0.71167441  1  0.122942  0  0.117957  0.136755  0  0.990108  0
H  H38  1  0.58830196  0.65290377  0.74400413  1  0.109576  0  0.112281  0.13008  0  0.995263  0
H  H39  1  0.55712396  0.71108164  0.57756480  1  0.117662  0  0.126654  0.117843  0  0.991118  0
H  H40  1  0.77984183  0.61924718  0.19410355  1  0.045443  0  0.103229  0.151525  0  0.965865  0
H  H41  1  0.65674409  0.69009980  0.21581485  1  0.082019  0  0.094554  0.140932  0  1.008817  0
H  H42  1  0.75293431  0.73933994  0.13519186  1  0.081453  0  0.097112  0.150579  0  1.008622  0
H  H43  1  0.98162720  0.04281602  0.31422264  1  0.055905  0  0.093498  0.033813  0  0.980594  0
H  H44  1  0.97089868  0.79327589  0.48041989  1  0.078569  0  0.108249  0.120646  0  1.026376  0
H  H45  1  0.78070037  0.79496613  0.54793580  1  0.086114  0  0.106242  0.125212  0  1.008137  0
H  H46  1  0.67694949  0.96544278  0.46341648  1  0.147579  0  0.11353  0.117775  0  1.068716  0
H  H47  1  0.82467590  0.31139323  0.12709558  1  0.085322  0  0.104316  0.152598  0  0.970363  0
H  H48  1  0.71941113  0.30536605  0.12409605  1  0.05057  0  0.09917  0.143618  0  0.983442  0
H  H49  1  0.70577911  0.37779310  0.18345247  1  0.070078  0  0.095681  0.145641  0  1.010994  0
C  C50  1  0.01567881  0.52623250  0.85848446  1  0.92918  0  0.072117  0.221979  0  4.086093  0
C  C51  1  0.03274634  0.57290885  0.76010050  1  0.286975  0  0.061249  0.033951  0  3.988383  0
C  C52  1  0.01345671  0.55991650  0.69430600  1  -0.056345  0  -0.087175  -0.139198  0  3.951403  0
C  C53  1  0.05100053  0.61766546  0.60631859  1  0.036929  0  -0.104705  -0.147264  0  4.014153  0
C  C54  1  0.09266046  0.66580759  0.61879240  1  0.270416  0  0.016205  -0.026788  0  3.901434  0
C  C55  1  0.11790093  0.67141206  0.74974135  1  0.227127  0  0.108226  0.073338  0  4.01908  0
C  C56  1  0.12902001  0.75371923  0.83152120  1  -0.14885  0  -0.030802  -0.215609  0  3.953371  0
C  C57  1  0.09324744  0.81423017  0.88883265  1  1.568452  0  0.22003  0.61952  0  4.210286  0
C  C58  1  0.22189263  0.71322786  0.77734859  1  -0.011425  0  0.007362  0.182257  0  3.927266  0
C  C59  1  0.31543236  0.72077908  0.76881955  1  -0.040613  0  -0.238647  -0.408557  0  3.953371  0
C  C60  1  0.21563226  0.66354498  0.73059847  1  0.044657  0  -0.032542  -0.203916  0  3.948825  0
C  C61  1  0.29953478  0.60367044  0.67534024  1  1.547797  0  0.221101  0.623511  0  4.165631  0
C  C62  1  0.45136426  0.08339380  0.52320678  1  0.948018  0  0.070928  0.220304  0  4.085428  0
C  C63  1  0.40982802  0.17330118  0.46666975  1  0.279859  0  0.055269  0.020885  0  3.99336  0
C  C64  1  0.44520920  0.21348972  0.37099287  1  0.005525  0  -0.091637  -0.144159  0  3.980103  0
C  C65  1  0.38512792  0.30531720  0.34937965  1  -0.008272  0  -0.112039  -0.165004  0  4.054231  0
C  C66  1  0.31289140  0.32072735  0.43168778  1  0.304692  0  0.01767  -0.031909  0  3.882294  0
C  C67  1  0.26661423  0.23119483  0.59583378  1  0.239988  0  0.094559  0.044248  0  4.046349  0
C  C68  1  0.15559741  0.18372791  0.75353117  1  -0.145928  0  -0.029481  -0.19683  0  3.950109  0
C  C69  1  0.10188994  0.12675487  0.83781359  1  1.568644  0  0.215624  0.613017  0  4.203511  0
C  C70  1  0.17667329  0.26005714  0.74046705  1  0.060918  0  0.008644  0.17855  0  3.936229  0
C  C71  1  0.14107040  0.30659077  0.81240639  1  -0.049286  0  -0.234662  -0.408091  0  3.935147  0
C  C72  1  0.24206717  0.28602810  0.64904322  1  0.000479  0  -0.020725  -0.168534  0  3.947688  0
C  C73  1  0.29581253  0.35252329  0.61689190  1  1.589939  0  0.239394  0.648779  0  4.124543  0
C  C74  1  0.55176578  0.85966039  0.06558161  1  0.964722  0  0.075699  0.225376  0  4.074985  0
C  C75  1  0.51190214  0.86017273  0.16187444  1  0.279118  0  0.058729  0.018445  0  3.979191  0
C  C76  1  0.54870245  0.88199604  0.20798116  1  -0.047872  0  -0.087203  -0.136605  0  3.965719  0
C  C77  1  0.49572082  0.85890207  0.30380023  1  -0.048485  0  -0.110504  -0.167282  0  4.05328  0
C  C78  1  0.42611050  0.82425692  0.31539983  1  0.309449  0  0.014125  -0.035097  0  3.885348  0
C  C79  1  0.36709240  0.80678337  0.21468252  1  0.20135  0  0.106718  0.068597  0  4.009978  0
C  C80  1  0.23374112  0.82357637  0.16748696  1  -0.151596  0  -0.029517  -0.200844  0  3.952433  0
C  C81  1  0.16622439  0.85567899  0.11556331  1  1.523628  0  0.214396  0.615056  0  4.194877  0
C  C82  1  0.24085334  0.75142628  0.24865194  1  0.068702  0  0.012153  0.190469  0  3.917068  0
C  C83  1  0.17493038  0.69267979  0.30210430  1  -0.099305  0  -0.23714  -0.407948  0  3.94344  0
C  C84  1  0.32135370  0.73960398  0.27309100  1  0.114544  0  -0.027136  -0.189986  0  3.947199  0
C  C85  1  0.36047285  0.65800345  0.34489882  1  1.581456  0  0.231146  0.636327  0  4.158897  0
C  C86  1  0.83426208  0.94869426  0.69330908  1  0.951687  0  0.075428  0.222532  0  4.06798  0
C  C87  1  0.91784659  0.97160309  0.67993571  1  0.262632  0  0.056254  0.028661  0  3.978697  0
C  C88  1  0.01782503  0.92474523  0.64914325  1  0.010146  0  -0.096391  -0.151833  0  3.999873  0
C  C89  1  0.07038599  0.96229307  0.66413409  1  -0.025512  0  -0.114709  -0.166315  0  4.056951  0
C  C90  1  0.00232030  0.03246758  0.70287159  1  0.296121  0  0.011565  -0.026263  0  3.889945  0
C  C91  1  0.82686396  0.11564027  0.72653354  1  0.257041  0  0.106708  0.077323  0  4.030133  0
C  C92  1  0.69397841  0.26068159  0.69968208  1  -0.200331  0  -0.031616  -0.205529  0  3.94568  0
C  C93  1  0.61564456  0.32945323  0.66004032  1  1.556816  0  0.217376  0.620029  0  4.189616  0
C  C94  1  0.71796779  0.24562440  0.77620196  1  0.110496  0  0.009596  0.184555  0  3.934971  0
C  C95  1  0.66892103  0.30814528  0.83584912  1  -0.090912  0  -0.234185  -0.409034  0  3.951502  0
C  C96  1  0.79285431  0.15936965  0.79341703  1  0.013638  0  -0.027697  -0.189153  0  3.948407  0
C  C97  1  0.82466813  0.11325367  0.87805751  1  1.581476  0  0.228952  0.636503  0  4.163203  0
C  C98  1  0.88882037  0.56063241  0.51654233  1  0.955076  0  0.072969  0.219483  0  4.09566  0
C  C99  1  0.78830679  0.60047806  0.56832759  1  0.226337  0  0.057226  0.024241  0  4.00646  0
C  C100  1  0.74533611  0.59746461  0.66205954  1  0.039622  0  -0.089486  -0.144549  0  3.970909  0
C  C101  1  0.64342057  0.64261596  0.67862901  1  -0.055215  0  -0.109712  -0.168956  0  4.048498  0
C  C102  1  0.62484162  0.67281806  0.59514480  1  0.336537  0  0.021501  -0.008474  0  3.895763  0
C  C103  1  0.72748000  0.67954701  0.43152733  1  0.213206  0  0.103762  0.065327  0  4.028084  0
C  C104  1  0.78299776  0.76300986  0.26657261  1  -0.18315  0  -0.033132  -0.216344  0  3.958585  0
C  C105  1  0.82502132  0.83121504  0.18646731  1  1.536291  0  0.219204  0.615423  0  4.198056  0
C  C106  1  0.73937404  0.70230531  0.27884965  1  0.056418  0  0.012227  0.187199  0  3.924106  0
C  C107  1  0.73167356  0.68787876  0.20109052  1  -0.049119  0  -0.238844  -0.416744  0  3.942803  0
C  C108  1  0.70437693  0.65524456  0.37621050  1  0.085356  0  -0.027417  -0.194334  0  3.948753  0
C  C109  1  0.64470793  0.59320205  0.41595821  1  1.5524  0  0.22608  0.631121  0  4.167056  0
C  C110  1  0.99747952  0.96811182  0.35155268  1  0.917622  0  0.072975  0.241568  0  4.071611  0
C  C111  1  0.91399833  0.93432020  0.39830434  1  0.283483  0  0.058944  0.034913  0  3.979629  0
C  C112  1  0.90867298  0.84883619  0.46100803  1  0.042897  0  -0.090123  -0.13941  0  3.966231  0
C  C113  1  0.80993411  0.85026511  0.49672218  1  0.018039  0  -0.111176  -0.146715  0  4.046149  0
C  C114  1  0.75510901  0.93650333  0.45566904  1  0.292362  0  0.006148  -0.042937  0  3.874585  0
C  C115  1  0.78168048  0.08323620  0.35537296  1  0.194261  0  0.113923  0.087329  0  3.986617  0
C  C116  1  0.68068895  0.24512986  0.34335098  1  -0.158268  0  -0.032372  -0.213917  0  3.954116  0
C  C117  1  0.60786362  0.32444807  0.37637465  1  1.55721  0  0.219608  0.621577  0  4.186949  0
C  C118  1  0.74393748  0.23463961  0.25652616  1  0.049416  0  0.007786  0.182027  0  3.93561  0
C  C119  1  0.74837612  0.31211059  0.16821794  1  -0.049916  0  -0.236426  -0.409475  0  3.947329  0
C  C120  1  0.80176290  0.14005588  0.26302302  1  0.070211  0  -0.030475  -0.207118  0  3.951468  0
C  C121  1  0.86564311  0.10308874  0.18290634  1  1.537394  0  0.228099  0.630989  0  4.156098  0
S  S122  1  0.03557998  0.73496649  0.82411790  1  0.34718  0  0.141613  0.182425  0  2.948819  0
S  S123  1  0.21260884  0.14584273  0.65609923  1  0.284084  0  0.099943  0.115119  0  2.880125  0
S  S124  1  0.31711202  0.88094393  0.12704411  1  0.307862  0  0.118797  0.141654  0  2.856921  0
S  S125  1  0.76595772  0.17490170  0.64584334  1  0.297873  0  0.104312  0.123377  0  2.91664  0
S  S126  1  0.78596842  0.76038718  0.36895622  1  0.339876  0  0.125672  0.157635  0  3.02457  0
S  S127  1  0.69088316  0.14268045  0.43146880  1  0.332073  0  0.121655  0.157547  0  2.913098  0
N  N128  1  0.08197403  0.63898034  0.71162379  1  -1.238939  0  -0.235753  -0.005374  0  3.833373  0
N  N129  1  0.32772851  0.24121441  0.50302253  1  -1.256307  0  -0.226721  0.029301  0  3.790777  0
N  N130  1  0.43563702  0.82429363  0.22964070  1  -1.220289  0  -0.224886  0.026837  0  3.784814  0
N  N131  1  0.90944866  0.03868250  0.71265002  1  -1.234619  0  -0.228231  0.003523  0  3.802614  0
N  N132  1  0.71196506  0.64693126  0.52831356  1  -1.240179  0  -0.233232  -0.003202  0  3.810579  0
N  N133  1  0.81778734  0.98814596  0.39480475  1  -1.215303  0  -0.229688  -0.001956  0  3.781652  0
O  O134  1  0.97194409  0.97917654  0.01776943  1  -1.233421  0  -0.579109  -1.039361  0  2.55353  0
O  O135  1  0.97144786  0.46888610  0.90281933  1  -1.066527  0  -0.293543  -0.381925  0  2.096342  0
O  O136  1  0.99964400  0.83962130  0.92550324  1  -1.168515  0  -0.318033  -0.553371  0  2.379788  0
O  O137  1  0.15392282  0.83725503  0.89743534  1  -1.160157  0  -0.30813  -0.527584  0  2.310563  0
O  O138  1  0.38703301  0.60311243  0.65580251  1  -1.152358  0  -0.306995  -0.531474  0  2.289489  0
O  O139  1  0.27937434  0.55313416  0.65286495  1  -1.18565  0  -0.325842  -0.575383  0  2.399414  0
O  O140  1  0.52025832  0.02227740  0.49055810  1  -1.106906  0  -0.291656  -0.391808  0  2.157527  0
O  O141  1  0.12533754  0.04424804  0.83733378  1  -1.177167  0  -0.329646  -0.567582  0  2.333926  0
O  O142  1  0.03726511  0.16103511  0.90370153  1  -1.167587  0  -0.307881  -0.528407  0  2.275443  0
O  O143  1  0.26509184  0.43359126  0.56648439  1  -1.154402  0  -0.294971  -0.529906  0  2.300677  0
O  O144  1  0.37218033  0.31875171  0.64227225  1  -1.160647  0  -0.3117  -0.536283  0  2.283705  0
O  O145  1  0.61747632  0.89293131  0.00683295  1  -1.079087  0  -0.290304  -0.367117  0  2.070482  0
O  O146  1  0.18920523  0.90593119  0.03062003  1  -1.166031  0  -0.322253  -0.549925  0  2.275158  0
O  O147  1  0.08746465  0.83227559  0.15854635  1  -1.173104  0  -0.321153  -0.549418  0  2.318905  0
O  O148  1  0.29825094  0.63502931  0.42493666  1  -1.172328  0  -0.309402  -0.547478  0  2.32637  0
O  O149  1  0.45245644  0.61681212  0.31819671  1  -1.171427  0  -0.312672  -0.548893  0  2.323291  0
O  O150  1  0.84253019  0.88900443  0.66528995  1  -1.068313  0  -0.282546  -0.363908  0  2.115992  0
O  O151  1  0.60181899  0.30327808  0.60689895  1  -1.173853  0  -0.32782  -0.55787  0  2.389647  0
O  O152  1  0.56878741  0.40686354  0.67674467  1  -1.160012  0  -0.30756  -0.533244  0  2.278247  0
O  O153  1  0.84225563  0.16047693  0.90689052  1  -1.158463  0  -0.310426  -0.545513  0  2.290393  0
O  O154  1  0.82931042  0.02901690  0.91458896  1  -1.169408  0  -0.311542  -0.541924  0  2.342712  0
O  O155  1  0.95843317  0.52131763  0.54817195  1  -1.093451  0  -0.287175  -0.375615  0  2.117601  0
O  O156  1  0.85284507  0.87641237  0.20929900  1  -1.182593  0  -0.328852  -0.564275  0  2.38983  0
O  O157  1  0.83019651  0.84378909  0.10405438  1  -1.136978  0  -0.295073  -0.50856  0  2.302722  0
O  O158  1  0.64685821  0.55753768  0.36189634  1  -1.160908  0  -0.308647  -0.534452  0  2.315575  0
O  O159  1  0.59426788  0.58230677  0.50195007  1  -1.188289  0  -0.315866  -0.559371  0  2.388036  0
O  O160  1  0.08200709  0.91909447  0.35287571  1  -1.100833  0  -0.301189  -0.397513  0  2.101952  0
O  O161  1  0.54444079  0.30308886  0.45626891  1  -1.185975  0  -0.327145  -0.565676  0  2.386244  0
O  O162  1  0.61214342  0.40570665  0.32857402  1  -1.152235  0  -0.306793  -0.531332  0  2.28789  0
O  O163  1  0.85271560  0.15149765  0.10348485  1  -1.157032  0  -0.304144  -0.531691  0  2.301225  0
O  O164  1  0.92837749  0.02329282  0.19948322  1  -1.183323  0  -0.316203  -0.56174  0  2.401919  0
O  O165  1  0.46535568  0.48391433  0.51212516  1  -1.22648  0  -0.577646  -1.032302  0  2.544671  0
