# generated using pymatgen
data_CdH14C23Br4N6O5
_symmetry_space_group_name_H-M   'P 1'
_cell_length_a   10.74587122
_cell_length_b   11.95612156
_cell_length_c   12.06150000
_cell_angle_alpha   90.78544706
_cell_angle_beta   108.82205413
_cell_angle_gamma   110.61801031
_symmetry_Int_Tables_number   1
_chemical_formula_structural   CdH14C23Br4N6O5
_chemical_formula_sum   'Cd2 H28 C46 Br8 N12 O10'
_cell_volume   1358.58114191
_cell_formula_units_Z   2
loop_
 _symmetry_equiv_pos_site_id
 _symmetry_equiv_pos_as_xyz
  1  'x, y, z'
loop_
 _atom_site_type_symbol
 _atom_site_label
 _atom_site_symmetry_multiplicity
 _atom_site_fract_x
 _atom_site_fract_y
 _atom_site_fract_z
 _atom_site_occupancy
 _atom_site_hle17_bader_spin_density
 _atom_site_hle17_ddec_charge
 _atom_site_hle17_ddec_spin_density
 _atom_site_hle17_ddec_sum_bond_order
 _atom_site_hle17_magmom
 _atom_site_hse06_10hf_bader_spin_density
 _atom_site_hse06_10hf_ddec_charge
 _atom_site_hse06_10hf_ddec_spin_density
 _atom_site_hse06_10hf_ddec_sum_bond_order
 _atom_site_hse06_10hf_magmom
 _atom_site_hse06_bader_spin_density
 _atom_site_hse06_ddec_charge
 _atom_site_hse06_ddec_spin_density
 _atom_site_hse06_ddec_sum_bond_order
 _atom_site_hse06_magmom
 _atom_site_pbe_bader_charge
 _atom_site_pbe_bader_spin_density
 _atom_site_pbe_cm5_charge
 _atom_site_pbe_ddec_charge
 _atom_site_pbe_ddec_spin_density
 _atom_site_pbe_ddec_sum_bond_order
 _atom_site_pbe_magmom
Cd  Cd0  1  0.33863431  0.33431003  0.12817457  1  0  1.153972  0  1.705235  0  0  0.96259  0  2.151872  0  0  1.013719  0  2.103863  0  1.295376  0  0.793621  0.926698  0  2.184759  0
Cd  Cd1  1  0.66136559  0.66569071  0.87182524  1  0  1.153973  0  1.705196  0  0  0.962615  0  2.151823  0  0  1.013742  0  2.103813  0  1.295421  0  0.793622  0.926721  0  2.184711  0
H  H2  1  0.12406088  0.38598803  0.27644439  1  0  0.101755  0  1.006055  0  0  0.106486  0  1.076616  0  0  0.110306  0  1.071555  0  0.18998  0  0.124229  0.10391  0  1.079768  0
H  H3  1  0.87593921  0.61401091  0.72355545  1  0  0.101761  0  1.006024  0  0  0.106491  0  1.076594  0  0  0.110312  0  1.071531  0  0.1899  0  0.124235  0.103915  0  1.079746  0
H  H4  1  0.26726580  0.10026502  0.29350644  1  0  0.110836  0  0.969506  0  0  0.115915  0  1.036252  0  0  0.119079  0  1.033971  0  0.142712  0  0.112189  0.113469  0  1.03834  0
H  H5  1  0.73273566  0.89973482  0.70649381  1  0  0.11084  0  0.9695  0  0  0.115936  0  1.036227  0  0  0.119102  0  1.033941  0  0.142708  0  0.112197  0.113489  0  1.038316  0
H  H6  1  0.12643273  0.08180401  0.45498920  1  0  0.112919  0  0.954182  0  0  0.123023  0  1.012776  0  0  0.126203  0  1.010752  0  0.116447  0  0.118083  0.120666  0  1.014342  0
H  H7  1  0.87356775  0.91819583  0.54501077  1  0  0.112918  0  0.954197  0  0  0.123015  0  1.012798  0  0  0.126196  0  1.010774  0  0.116445  0  0.118078  0.120658  0  1.014364  0
H  H8  1  0.15415345  0.22627737  0.61582947  1  0  0.12897  0  0.941322  0  0  0.136774  0  1.005764  0  0  0.14065  0  1.003245  0  0.122846  0  0.113502  0.133648  0  1.008327  0
H  H9  1  0.84584645  0.77372336  0.38417035  1  0  0.129  0  0.941273  0  0  0.136795  0  1.005727  0  0  0.140672  0  1.003206  0  0.122839  0  0.113515  0.13367  0  1.00829  0
H  H10  1  0.83552000  0.35123141  0.64866843  1  0  0.147047  0  0.968709  0  0  0.150543  0  1.038864  0  0  0.1554  0  1.03518  0  0.162988  0  0.111759  0.146916  0  1.0421  0
H  H11  1  0.16448030  0.64877023  0.35133068  1  0  0.147079  0  0.968667  0  0  0.150575  0  1.038819  0  0  0.155431  0  1.035136  0  0.162987  0  0.11178  0.146948  0  1.042053  0
H  H12  1  0.89382678  0.32561410  0.30989776  1  0  0.115223  0  0.984803  0  0  0.117467  0  1.065123  0  0  0.121161  0  1.062456  0  0.124358  0  0.102374  0.114706  0  1.067141  0
H  H13  1  0.10617272  0.67438573  0.69010109  1  0  0.115195  0  0.984846  0  0  0.117461  0  1.065126  0  0  0.121153  0  1.062464  0  0.124377  0  0.102385  0.1147  0  1.067143  0
H  H14  1  0.24923311  0.39679788  0.84077606  1  0  0.109809  0  0.925458  0  0  0.118067  0  0.990321  0  0  0.12102  0  0.986397  0  0.181062  0  0.139377  0.115833  0  0.993126  0
H  H15  1  0.75076718  0.60320376  0.15922471  1  0  0.109799  0  0.925423  0  0  0.118071  0  0.990275  0  0  0.121015  0  0.986359  0  0.181077  0  0.139378  0.115838  0  0.993077  0
H  H16  1  0.99336189  0.13991410  0.99278685  1  0  0.102955  0  0.969534  0  0  0.109142  0  1.036992  0  0  0.111966  0  1.035149  0  0.11468  0  0.110066  0.107047  0  1.038544  0
H  H17  1  0.00663702  0.86008664  0.00721351  1  0  0.102963  0  0.969549  0  0  0.109149  0  1.037003  0  0  0.111968  0  1.035164  0  0.114664  0  0.110071  0.107053  0  1.038556  0
H  H18  1  0.83631612  0.12695871  0.75527810  1  0  0.11825  0  0.948683  0  0  0.129689  0  1.006925  0  0  0.13151  0  1.007278  0  0.122305  0  0.122644  0.128468  0  1.006718  0
H  H19  1  0.16368476  0.87304203  0.24472117  1  0  0.118243  0  0.948669  0  0  0.129682  0  1.006912  0  0  0.131504  0  1.007265  0  0.122295  0  0.122639  0.128462  0  1.006705  0
H  H20  1  0.73179673  0.47191695  0.57545097  1  0  0.120419  0  0.994454  0  0  0.128115  0  1.060426  0  0  0.131021  0  1.058536  0  0.129603  0  0.118274  0.125935  0  1.061981  0
H  H21  1  0.26820277  0.52808288  0.42454789  1  0  0.120446  0  0.994403  0  0  0.128145  0  1.060374  0  0  0.131051  0  1.058482  0  0.129576  0  0.118282  0.125964  0  1.061929  0
H  H22  1  0.50388651  0.50178019  0.40488207  1  0  0.103236  0  0.963623  0  0  0.111719  0  1.027755  0  0  0.113999  0  1.026975  0  0.108983  0  0.11225  0.110334  0  1.02783  0
H  H23  1  0.49611299  0.49821965  0.59511762  1  0  0.103245  0  0.963628  0  0  0.111728  0  1.027756  0  0  0.114011  0  1.026974  0  0.108986  0  0.112246  0.110344  0  1.02783  0
H  H24  1  0.66836895  0.30900515  0.23540362  1  0  0.103324  0  0.968545  0  0  0.106725  0  1.042676  0  0  0.109927  0  1.038523  0  0.175848  0  0.130493  0.1044  0  1.045526  0
H  H25  1  0.33163094  0.69099558  0.76459620  1  0  0.103317  0  0.968536  0  0  0.106716  0  1.042677  0  0  0.109919  0  1.038523  0  0.175844  0  0.13049  0.104392  0  1.045524  0
H  H26  1  0.51121786  0.28735925  0.02568333  1  0  0.405721  0  0.910426  0  0  0.372877  0  0.978861  0  0  0.384186  0  0.962407  0  0.635612  0  0.271822  0.364943  0  0.990348  0
H  H27  1  0.48878302  0.71264148  0.97431677  1  0  0.405719  0  0.910431  0  0  0.372871  0  0.978874  0  0  0.38418  0  0.962419  0  0.63561  0  0.27181  0.364936  0  0.99036  0
H  H28  1  0.53766370  0.40221229  0.95640756  1  0  0.427362  0  0.871459  0  0  0.395759  0  0.935922  0  0  0.406722  0  0.919903  0  0.634981  0  0.279251  0.38807  0  0.94714  0
H  H29  1  0.46233619  0.59778844  0.04359309  1  0  0.427352  0  0.871471  0  0  0.395745  0  0.93594  0  0  0.406708  0  0.919921  0  0.635008  0  0.279234  0.388055  0  0.947158  0
C  C30  1  0.14168169  0.30462649  0.30166724  1  0  0.153007  0  3.687113  0  0  0.089421  0  3.961904  0  0  0.103134  0  3.973361  0  0.951998  0  0.131598  0.080609  0  3.953177  0
C  C31  1  0.85831879  0.69537334  0.69833273  1  0  0.153043  0  3.687093  0  0  0.089432  0  3.961864  0  0  0.103144  0  3.97332  0  0.951786  0  0.131603  0.08062  0  3.953137  0
C  C32  1  0.21637902  0.15657362  0.31557395  1  0  0.0199  0  3.74213  0  0  -0.014164  0  4.0093  0  0  -0.0114  0  4.027993  0  0.4109  0  -0.00505  -0.016352  0  3.996489  0
C  C33  1  0.78362146  0.84342622  0.68442602  1  0  0.019916  0  3.742083  0  0  -0.014157  0  4.009254  0  0  -0.011394  0  4.027946  0  0.410907  0  -0.00504  -0.016344  0  3.996442  0
C  C34  1  0.14734173  0.14657014  0.39499212  1  0  -0.081244  0  3.697217  0  0  -0.118977  0  3.954981  0  0  -0.118524  0  3.973119  0  0.266282  0  -0.014269  -0.119008  0  3.941787  0
C  C35  1  0.85265915  0.85343060  0.60500880  1  0  -0.081226  0  3.697246  0  0  -0.118984  0  3.954998  0  0  -0.118532  0  3.973138  0  0.266315  0  -0.014287  -0.119015  0  3.941805  0
C  C36  1  0.02988844  0.27254638  0.45537213  1  0  0.220469  0  3.797539  0  0  0.214925  0  4.045804  0  0  0.22191  0  4.067929  0  0.30717  0  0.100544  0.209992  0  4.03117  0
C  C37  1  0.97011145  0.72745436  0.54462768  1  0  0.220554  0  3.797443  0  0  0.214915  0  4.045798  0  0  0.2219  0  4.067925  0  0.307165  0  0.100564  0.209983  0  4.031163  0
C  C38  1  0.06886544  0.25816424  0.57501014  1  0  -0.231533  0  3.691204  0  0  -0.264234  0  3.944958  0  0  -0.269793  0  3.963533  0  0.017343  0  -0.090547  -0.261213  0  3.933495  0
C  C39  1  0.93113544  0.74183650  0.42498996  1  0  -0.231603  0  3.691144  0  0  -0.264249  0  3.944965  0  0  -0.269809  0  3.963544  0  0.017337  0  -0.090554  -0.261229  0  3.933504  0
C  C40  1  0.99683379  0.28683190  0.64168012  1  0  0.216921  0  3.79746  0  0  0.21397  0  4.042248  0  0  0.220437  0  4.064603  0  0.330271  0  0.10044  0.209815  0  4.027211  0
C  C41  1  0.00316749  0.71316974  0.35832010  1  0  0.217018  0  3.797392  0  0  0.213972  0  4.042304  0  0  0.220437  0  4.064661  0  0.330624  0  0.100405  0.209817  0  4.027267  0
C  C42  1  0.88886138  0.32986725  0.59277820  1  0  -0.227203  0  3.641441  0  0  -0.258157  0  3.892735  0  0  -0.263821  0  3.909752  0  -0.013952  0  -0.091868  -0.254968  0  3.882191  0
C  C43  1  0.11113990  0.67013439  0.40722203  1  0  -0.227251  0  3.641478  0  0  -0.258181  0  3.892807  0  0  -0.263845  0  3.909826  0  -0.014315  0  -0.091886  -0.254994  0  3.882265  0
C  C44  1  0.85322420  0.34486885  0.47309546  1  0  0.22287  0  3.777558  0  0  0.219475  0  4.020853  0  0  0.226811  0  4.042675  0  0.314131  0  0.10023  0.214459  0  4.006059  0
C  C45  1  0.14677708  0.65513279  0.52690476  1  0  0.222885  0  3.777598  0  0  0.219454  0  4.02087  0  0  0.22679  0  4.042692  0  0.314275  0  0.100222  0.214438  0  4.006076  0
C  C46  1  0.92324414  0.31654885  0.40367569  1  0  -0.232178  0  3.682045  0  0  -0.264403  0  3.942038  0  0  -0.270606  0  3.96135  0  0.045614  0  -0.093152  -0.259896  0  3.929099  0
C  C47  1  0.07675535  0.68345099  0.59632316  1  0  -0.232143  0  3.68195  0  0  -0.264368  0  3.942001  0  0  -0.270571  0  3.961312  0  0.04547  0  -0.09316  -0.259861  0  3.929062  0
C  C48  1  0.15992650  0.32507591  0.85156860  1  0  0.173308  0  3.647884  0  0  0.110378  0  3.913148  0  0  0.125206  0  3.923769  0  0.956734  0  0.144025  0.100846  0  3.905518  0
C  C49  1  0.84007380  0.67492573  0.14843134  1  0  0.173357  0  3.647821  0  0  0.110413  0  3.913079  0  0  0.125248  0  3.923706  0  0.956755  0  0.144024  0.100883  0  3.905449  0
C  C50  1  0.02278385  0.19183140  0.92600927  1  0  0.018324  0  3.748365  0  0  -0.018634  0  4.020453  0  0  -0.0164  0  4.040271  0  0.438282  0  -0.001189  -0.020265  0  4.00734  0
C  C51  1  0.97721506  0.80816934  0.07398943  1  0  0.018263  0  3.748355  0  0  -0.018694  0  4.020458  0  0  -0.016456  0  4.040279  0  0.438259  0  -0.001211  -0.020323  0  4.007345  0
C  C52  1  0.94391913  0.18371520  0.80925443  1  0  -0.053409  0  3.647325  0  0  -0.095071  0  3.907077  0  0  -0.094838  0  3.927823  0  0.300026  0  0.000355  -0.095267  0  3.892822  0
C  C53  1  0.05608117  0.81628644  0.19074468  1  0  -0.053329  0  3.647279  0  0  -0.095002  0  3.907027  0  0  -0.094767  0  3.927772  0  0.300025  0  0.000366  -0.095198  0  3.892772  0
C  C54  1  0.68709188  0.44608744  0.48031915  1  0  -0.071002  0  3.674534  0  0  -0.114261  0  3.940105  0  0  -0.112722  0  3.95895  0  0.288318  0  -0.010308  -0.115367  0  3.927563  0
C  C55  1  0.31290664  0.55391240  0.51968026  1  0  -0.070983  0  3.674452  0  0  -0.114296  0  3.940013  0  0  -0.112759  0  3.958857  0  0.288339  0  -0.01032  -0.115401  0  3.927472  0
C  C56  1  0.57314931  0.45757816  0.39577917  1  0  0.001907  0  3.757132  0  0  -0.032146  0  4.026767  0  0  -0.030538  0  4.04702  0  0.405188  0  -0.008591  -0.033073  0  4.012666  0
C  C57  1  0.42685077  0.54242077  0.60422150  1  0  0.00188  0  3.757123  0  0  -0.032166  0  4.026767  0  0  -0.030557  0  4.047019  0  0.4052  0  -0.008594  -0.033093  0  4.012664  0
C  C58  1  0.65666217  0.36091071  0.30315808  1  0  0.170219  0  3.638403  0  0  0.110503  0  3.904249  0  0  0.124698  0  3.916029  0  0.964507  0  0.139581  0.10146  0  3.895703  0
C  C59  1  0.34333634  0.63908912  0.69684132  1  0  0.170332  0  3.638508  0  0  0.110566  0  3.904344  0  0  0.124762  0  3.916122  0  0.964484  0  0.139608  0.101524  0  3.895797  0
C  C60  1  0.41039396  0.09625748  0.10209990  1  0  0.654291  0  3.983874  0  0  0.600524  0  4.289445  0  0  0.634861  0  4.281055  0  1.651488  0  0.19167  0.57709  0  4.294902  0
C  C61  1  0.58960455  0.90374235  0.89789867  1  0  0.654355  0  3.983791  0  0  0.600554  0  4.289385  0  0  0.634889  0  4.280994  0  1.651483  0  0.19167  0.57712  0  4.294844  0
C  C62  1  0.38576518  0.96510055  0.11867116  1  0  -0.090887  0  3.706393  0  0  -0.088271  0  3.958682  0  0  -0.090237  0  3.973823  0  0.125085  0  -0.019833  -0.088035  0  3.949728  0
C  C63  1  0.61423195  0.03489838  0.88132783  1  0  -0.090939  0  3.706466  0  0  -0.08824  0  3.958642  0  0  -0.090207  0  3.973791  0  0.125057  0  -0.019835  -0.088007  0  3.949695  0
C  C64  1  0.45699094  0.93603557  0.22658492  1  0  0.030709  0  3.700018  0  0  0.031856  0  3.976649  0  0  0.0352  0  3.995495  0  -0.080821  0  -0.026479  0.029561  0  3.964267  0
C  C65  1  0.54300815  0.06396336  0.77341546  1  0  0.030718  0  3.700076  0  0  0.031836  0  3.976693  0  0  0.03518  0  3.995538  0  -0.08085  0  -0.026494  0.029542  0  3.964312  0
C  C66  1  0.43156881  0.81550354  0.24308852  1  0  0.03139  0  3.705074  0  0  0.031151  0  3.980356  0  0  0.034582  0  3.999513  0  -0.080756  0  -0.029547  0.028536  0  3.967851  0
C  C67  1  0.56843422  0.18449539  0.75691217  1  0  0.031387  0  3.705176  0  0  0.031157  0  3.980439  0  0  0.034589  0  3.999597  0  -0.080745  0  -0.029524  0.028541  0  3.967935  0
C  C68  1  0.33119602  0.72181690  0.15314767  1  0  -0.113249  0  3.743777  0  0  -0.108679  0  3.995621  0  0  -0.111523  0  4.012354  0  0.077111  0  -0.026828  -0.107547  0  3.98513  0
C  C69  1  0.66880326  0.27818022  0.84685357  1  0  -0.113352  0  3.74402  0  0  -0.108751  0  3.995831  0  0  -0.111596  0  4.012568  0  0.077059  0  -0.026847  -0.107618  0  3.98534  0
C  C70  1  0.25922520  0.75069135  0.04530568  1  0  0.036297  0  3.688989  0  0  0.037474  0  3.961176  0  0  0.040803  0  3.9808  0  0.009545  0  -0.019387  0.034851  0  3.948277  0
C  C71  1  0.74077743  0.24930668  0.95469654  1  0  0.036429  0  3.689121  0  0  0.037555  0  3.961366  0  0  0.040885  0  3.980991  0  0.009463  0  -0.019343  0.034931  0  3.948466  0
C  C72  1  0.28786035  0.87131007  0.02768644  1  0  0.059664  0  3.672541  0  0  0.060016  0  3.945992  0  0  0.064397  0  3.963462  0  -0.0523  0  -0.012454  0.057021  0  3.934465  0
C  C73  1  0.71213893  0.12868706  0.97231481  1  0  0.059593  0  3.672703  0  0  0.059943  0  3.946125  0  0  0.064323  0  3.963594  0  -0.052157  0  -0.01247  0.05695  0  3.934598  0
C  C74  1  0.29771368  0.59115317  0.17481856  1  0  0.670023  0  3.962228  0  0  0.610789  0  4.279159  0  0  0.645391  0  4.269641  0  1.65793  0  0.196508  0.587202  0  4.285272  0
C  C75  1  0.70228501  0.40884485  0.82518254  1  0  0.670152  0  3.962068  0  0  0.610909  0  4.279008  0  0  0.645511  0  4.26949  0  1.657748  0  0.19655  0.587322  0  4.285123  0
Br  Br76  1  0.58615875  0.06284544  0.35254802  1  0  -0.060747  0  1.375181  0  0  -0.063099  0  1.644105  0  0  -0.064064  0  1.636096  0  -0.05669  0  0.032054  -0.061984  0  1.649739  0
Br  Br77  1  0.41384114  0.93715529  0.64745013  1  0  -0.060731  0  1.375185  0  0  -0.063086  0  1.644116  0  0  -0.064051  0  1.636109  0  -0.056689  0  0.032057  -0.061972  0  1.649751  0
Br  Br78  1  0.53248295  0.77662652  0.38867253  1  0  -0.056667  0  1.388364  0  0  -0.050445  0  1.659355  0  0  -0.052447  0  1.651526  0  -0.05056  0  0.044905  -0.048552  0  1.664748  0
Br  Br79  1  0.46751854  0.22337783  0.61132945  1  0  -0.056697  0  1.38835  0  0  -0.050474  0  1.659325  0  0  -0.052476  0  1.651495  0  -0.050557  0  0.044878  -0.048581  0  1.664719  0
Br  Br80  1  0.11768047  0.62118256  0.92785567  1  0  -0.00839  0  1.386885  0  0  -0.004734  0  1.669405  0  0  -0.006705  0  1.660699  0  -0.026534  0  0.074748  -0.003412  0  1.675344  0
Br  Br81  1  0.88232315  0.37881547  0.07214849  1  0  -0.00842  0  1.386869  0  0  -0.004758  0  1.669417  0  0  -0.006731  0  1.660712  0  -0.02651  0  0.074729  -0.003437  0  1.675357  0
Br  Br82  1  0.19557762  0.91277419  0.88076997  1  0  -0.013063  0  1.343419  0  0  -0.010527  0  1.604104  0  0  -0.012074  0  1.596351  0  -0.031791  0  0.064058  -0.009057  0  1.609132  0
Br  Br83  1  0.80441886  0.08721661  0.11922624  1  0  -0.013008  0  1.343448  0  0  -0.010473  0  1.604124  0  0  -0.012025  0  1.596382  0  -0.03186  0  0.06408  -0.009004  0  1.60915  0
N  N84  1  0.21290887  0.25598168  0.25896258  1  0  -0.368847  0  3.197465  0  0  -0.29737  0  3.479629  0  0  -0.31668  0  3.495361  0  -1.200635  0  -0.345251  -0.283708  0  3.468287  0
N  N85  1  0.78709063  0.74401815  0.74103628  1  0  -0.368852  0  3.197414  0  0  -0.297386  0  3.47959  0  0  -0.316696  0  3.495323  0  -1.200357  0  -0.345255  -0.283725  0  3.468252  0
N  N86  1  0.10003913  0.24163747  0.38570687  1  0  -0.105511  0  3.612672  0  0  -0.014136  0  3.820971  0  0  -0.03008  0  3.847584  0  -1.26472  0  -0.233159  -0.003092  0  3.802189  0
N  N87  1  0.89995899  0.75836146  0.61429241  1  0  -0.105619  0  3.612798  0  0  -0.01413  0  3.821006  0  0  -0.030074  0  3.847619  0  -1.264753  0  -0.233157  -0.003087  0  3.802224  0
N  N88  1  0.03233164  0.26845668  0.76266643  1  0  -0.102659  0  3.594658  0  0  -0.011694  0  3.805355  0  0  -0.026608  0  3.830012  0  -1.264932  0  -0.229364  -0.001498  0  3.788014  0
N  N89  1  0.96766964  0.73154496  0.23733297  1  0  -0.102825  0  3.594719  0  0  -0.011813  0  3.80543  0  0  -0.026726  0  3.830084  0  -1.264895  0  -0.229363  -0.001617  0  3.788089  0
N  N90  1  0.15570577  0.28057228  0.95095698  1  0  -0.372221  0  3.269794  0  0  -0.297117  0  3.554366  0  0  -0.317216  0  3.570252  0  -1.200508  0  -0.351369  -0.283229  0  3.543291  0
N  N91  1  0.84429413  0.71942846  0.04904200  1  0  -0.37218  0  3.269765  0  0  -0.297084  0  3.554347  0  0  -0.317183  0  3.570228  0  -1.200572  0  -0.351354  -0.283198  0  3.543272  0
N  N92  1  0.74090068  0.38499201  0.42067222  1  0  -0.098551  0  3.57008  0  0  -0.00818  0  3.777428  0  0  -0.024256  0  3.803322  0  -1.274829  0  -0.228488  0.002775  0  3.759393  0
N  N93  1  0.25909922  0.61500873  0.57932759  1  0  -0.098669  0  3.570159  0  0  -0.008153  0  3.777358  0  0  -0.024228  0  3.803251  0  -1.274839  0  -0.22847  0.0028  0  3.759324  0
N  N94  1  0.55477336  0.40334827  0.28660980  1  0  -0.36289  0  3.226169  0  0  -0.289662  0  3.502741  0  0  -0.309296  0  3.51946  0  -1.184206  0  -0.349162  -0.276211  0  3.490988  0
N  N95  1  0.44522476  0.59665066  0.71338865  1  0  -0.362942  0  3.226279  0  0  -0.289726  0  3.502873  0  0  -0.309361  0  3.519592  0  -1.184177  0  -0.349185  -0.276275  0  3.49112  0
O  O96  1  0.51417964  0.15467099  0.07236584  1  0  -0.610302  0  2.017795  0  0  -0.559165  0  2.247014  0  0  -0.587129  0  2.241971  0  -1.175652  0  -0.309781  -0.539219  0  2.249801  0
O  O97  1  0.48581749  0.84532794  0.92763150  1  0  -0.610364  0  2.017752  0  0  -0.559213  0  2.246974  0  0  -0.58719  0  2.241956  0  -1.175657  0  -0.3098  -0.539269  0  2.249762  0
O  O98  1  0.49755421  0.36547901  0.01637044  1  0  -0.873854  0  1.833855  0  0  -0.813073  0  2.023693  0  0  -0.833576  0  1.989332  0  -1.289978  0  -0.617845  -0.798161  0  2.047373  0
O  O99  1  0.50244667  0.63452173  0.98363132  1  0  -0.873842  0  1.83385  0  0  -0.813066  0  2.023703  0  0  -0.833567  0  1.989343  0  -1.289994  0  -0.617823  -0.798153  0  2.047382  0
O  O100  1  0.32124381  0.13282191  0.12230091  1  0  -0.638676  0  2.02205  0  0  -0.574565  0  2.27204  0  0  -0.603857  0  2.263156  0  -1.163802  0  -0.328543  -0.554272  0  2.277866  0
O  O101  1  0.67875332  0.86717702  0.87769725  1  0  -0.638635  0  2.022001  0  0  -0.574542  0  2.272034  0  0  -0.603831  0  2.263151  0  -1.16379  0  -0.328517  -0.554248  0  2.27786  0
O  O102  1  0.36359158  0.53684021  0.13848585  1  0  -0.655533  0  2.057751  0  0  -0.581169  0  2.309329  0  0  -0.611617  0  2.297577  0  -1.1786  0  -0.317461  -0.560123  0  2.317225  0
O  O103  1  0.63640850  0.46315872  0.86151565  1  0  -0.655551  0  2.057697  0  0  -0.5812  0  2.309292  0  0  -0.611646  0  2.297539  0  -1.178373  0  -0.317458  -0.560153  0  2.317189  0
O  O104  1  0.21100239  0.55016403  0.22712623  1  0  -0.6125  0  1.959514  0  0  -0.563446  0  2.192876  0  0  -0.588286  0  2.183987  0  -1.184465  0  -0.320728  -0.545755  0  2.198317  0
O  O105  1  0.78899591  0.44983310  0.77287390  1  0  -0.612553  0  1.95947  0  0  -0.563508  0  2.192868  0  0  -0.588347  0  2.183978  0  -1.184371  0  -0.32077  -0.545816  0  2.19831  0
