# generated using pymatgen
data_CdH10C15N3O7
_symmetry_space_group_name_H-M   'P 1'
_cell_length_a   8.03071454
_cell_length_b   9.57956627
_cell_length_c   10.69213620
_cell_angle_alpha   96.93449347
_cell_angle_beta   102.43486701
_cell_angle_gamma   101.07295241
_symmetry_Int_Tables_number   1
_chemical_formula_structural   CdH10C15N3O7
_chemical_formula_sum   'Cd2 H20 C30 N6 O14'
_cell_volume   776.94743639
_cell_formula_units_Z   2
loop_
 _symmetry_equiv_pos_site_id
 _symmetry_equiv_pos_as_xyz
  1  'x, y, z'
loop_
 _atom_site_type_symbol
 _atom_site_label
 _atom_site_symmetry_multiplicity
 _atom_site_fract_x
 _atom_site_fract_y
 _atom_site_fract_z
 _atom_site_occupancy
 _atom_site_hle17_bader_spin_density
 _atom_site_hle17_ddec_charge
 _atom_site_hle17_ddec_spin_density
 _atom_site_hle17_ddec_sum_bond_order
 _atom_site_hle17_magmom
 _atom_site_hse06_10hf_bader_spin_density
 _atom_site_hse06_10hf_ddec_charge
 _atom_site_hse06_10hf_ddec_spin_density
 _atom_site_hse06_10hf_ddec_sum_bond_order
 _atom_site_hse06_10hf_magmom
 _atom_site_hse06_bader_spin_density
 _atom_site_hse06_ddec_charge
 _atom_site_hse06_ddec_spin_density
 _atom_site_hse06_ddec_sum_bond_order
 _atom_site_hse06_magmom
 _atom_site_pbe_bader_spin_density
 _atom_site_pbe_cm5_charge
 _atom_site_pbe_ddec_charge
 _atom_site_pbe_ddec_spin_density
 _atom_site_pbe_ddec_sum_bond_order
 _atom_site_pbe_magmom
Cd  Cd0  1  0.01865351  0.07321890  0.85270262  1  0  1.166884  0  1.675082  0  0  0.973965  0  2.120825  0  0  1.028507  0  2.07001  0  0  0.788334  0.934492  0  2.156309  0
Cd  Cd1  1  0.98134724  0.92677982  0.14729680  1  0  1.166818  0  1.675118  0  0  0.973889  0  2.120858  0  0  1.028429  0  2.070045  0  0  0.788304  0.934415  0  2.15634  0
H  H2  1  0.28479397  0.38917369  0.91385653  1  0  0.081926  0  0.929274  0  0  0.091263  0  0.992011  0  0  0.093354  0  0.990251  0  0  0.116375  0.089763  0  0.993168  0
H  H3  1  0.71520265  0.61082396  0.08614396  1  0  0.081915  0  0.929347  0  0  0.09127  0  0.992052  0  0  0.093361  0  0.990294  0  0  0.11639  0.089771  0  0.993208  0
H  H4  1  0.38397787  0.58790933  0.79819311  1  0  0.117684  0  0.937518  0  0  0.129048  0  0.991557  0  0  0.13216  0  0.990384  0  0  0.113281  0.126754  0  0.992696  0
H  H5  1  0.61601904  0.41208940  0.20180847  1  0  0.117711  0  0.937477  0  0  0.129073  0  0.991512  0  0  0.132186  0  0.990337  0  0  0.113292  0.126779  0  0.992649  0
H  H6  1  0.26100216  0.55471985  0.55504983  1  0  0.097515  0  0.933498  0  0  0.109122  0  0.990646  0  0  0.11196  0  0.988379  0  0  0.11042  0.107223  0  0.992145  0
H  H7  1  0.73899878  0.44528428  0.44495298  1  0  0.097543  0  0.933509  0  0  0.109161  0  0.990644  0  0  0.111999  0  0.988379  0  0  0.110439  0.107261  0  0.992144  0
H  H8  1  0.03261604  0.33558621  0.44509492  1  0  0.122753  0  0.987415  0  0  0.130883  0  1.051294  0  0  0.134348  0  1.049902  0  0  0.108958  0.127831  0  1.053125  0
H  H9  1  0.96738335  0.66441683  0.55490564  1  0  0.122689  0  0.987423  0  0  0.130826  0  1.051305  0  0  0.13429  0  1.049914  0  0  0.108947  0.127771  0  1.053146  0
H  H10  1  0.80685777  0.18036842  0.37497558  1  0  0.12446  0  0.97358  0  0  0.136201  0  1.030251  0  0  0.139532  0  1.028768  0  0  0.11283  0.133914  0  1.03103  0
H  H11  1  0.19314073  0.81963137  0.62502264  1  0  0.1245  0  0.97358  0  0  0.13624  0  1.030267  0  0  0.139571  0  1.028784  0  0  0.112855  0.133965  0  1.031034  0
H  H12  1  0.57138143  0.96000245  0.28924883  1  0  0.109583  0  0.942785  0  0  0.119526  0  1.001689  0  0  0.122667  0  0.999249  0  0  0.11074  0.117129  0  1.003599  0
H  H13  1  0.42861707  0.03999734  0.71075032  1  0  0.109584  0  0.942814  0  0  0.119523  0  1.001715  0  0  0.122665  0  0.999275  0  0  0.110738  0.117126  0  1.003625  0
H  H14  1  0.52720744  0.77137362  0.43126335  1  0  0.109893  0  0.979147  0  0  0.117367  0  1.042006  0  0  0.120694  0  1.040589  0  0  0.105272  0.114937  0  1.043362  0
H  H15  1  0.47279036  0.22862834  0.56873778  1  0  0.109863  0  0.979208  0  0  0.11734  0  1.042069  0  0  0.120668  0  1.040652  0  0  0.10527  0.114911  0  1.043423  0
H  H16  1  0.72170503  0.81725031  0.65657174  1  0  0.086413  0  0.93724  0  0  0.095315  0  0.999174  0  0  0.09756  0  0.99694  0  0  0.117796  0.09363  0  1.000889  0
H  H17  1  0.27829308  0.18275273  0.34342861  1  0  0.086437  0  0.937251  0  0  0.095312  0  0.999227  0  0  0.097558  0  0.996993  0  0  0.117797  0.093628  0  1.000939  0
H  H18  1  0.40600305  0.13466557  0.92732842  1  0  0.423304  0  0.882395  0  0  0.389616  0  0.950342  0  0  0.401903  0  0.932481  0  0  0.2827  0.380906  0  0.962976  0
H  H19  1  0.59399672  0.86533423  0.07267188  1  0  0.423303  0  0.882407  0  0  0.389605  0  0.950368  0  0  0.401895  0  0.932505  0  0  0.282688  0.380895  0  0.963004  0
H  H20  1  0.32129451  0.01221841  0.00202860  1  0  0.425433  0  0.864563  0  0  0.397397  0  0.924376  0  0  0.407986  0  0.908874  0  0  0.291441  0.389688  0  0.93574  0
H  H21  1  0.67870428  0.98778247  0.99797164  1  0  0.425448  0  0.864558  0  0  0.397409  0  0.924366  0  0  0.407999  0  0.90886  0  0  0.291434  0.389699  0  0.935731  0
C  C22  1  0.99705837  0.62190101  0.93731352  1  0  -0.085021  0  3.689542  0  0  -0.083943  0  3.942515  0  0  -0.084881  0  3.956797  0  0  0.001223  -0.084544  0  3.93482  0
C  C23  1  0.00294143  0.37809876  0.06268210  1  0  -0.085013  0  3.689674  0  0  -0.083933  0  3.942604  0  0  -0.08487  0  3.956888  0  0  0.001202  -0.084545  0  3.9349  0
C  C24  1  0.86655073  0.37120542  0.95330195  1  0  -0.085212  0  3.679351  0  0  -0.085866  0  3.937496  0  0  -0.086552  0  3.951305  0  0  0.00213  -0.085522  0  3.929006  0
C  C25  1  0.13345415  0.62879437  0.04669732  1  0  -0.085219  0  3.679247  0  0  -0.085881  0  3.937399  0  0  -0.086566  0  3.95121  0  0  0.002136  -0.085575  0  3.928958  0
C  C26  1  0.86989053  0.49305306  0.89291323  1  0  0.058379  0  3.655498  0  0  0.031841  0  3.923172  0  0  0.033911  0  3.939507  0  0  0.089953  0.029805  0  3.912844  0
C  C27  1  0.13010993  0.50694456  0.10708416  1  0  0.058383  0  3.655477  0  0  0.031852  0  3.923149  0  0  0.033921  0  3.939486  0  0  0.089949  0.029827  0  3.912832  0
C  C28  1  0.99431356  0.74855940  0.86486087  1  0  0.664134  0  3.950423  0  0  0.607622  0  4.256304  0  0  0.641069  0  4.249455  0  0  0.204039  0.584658  0  4.260127  0
C  C29  1  0.00568750  0.25144038  0.13513777  1  0  0.664041  0  3.950491  0  0  0.607547  0  4.256344  0  0  0.640993  0  4.249499  0  0  0.204029  0.584582  0  4.260163  0
C  C30  1  0.71031100  0.24235616  0.91647799  1  0  0.663444  0  3.927538  0  0  0.60625  0  4.240071  0  0  0.639636  0  4.232683  0  0  0.206876  0.583702  0  4.244192  0
C  C31  1  0.28969103  0.75764254  0.08352070  1  0  0.663415  0  3.927703  0  0  0.606232  0  4.240203  0  0  0.639617  0  4.232817  0  0  0.206827  0.583694  0  4.244328  0
C  C32  1  0.22792564  0.38352918  0.81069017  1  0  0.142643  0  3.712046  0  0  0.110069  0  3.971617  0  0  0.115958  0  3.993016  0  0  0.046651  0.1069  0  3.956432  0
C  C33  1  0.77207226  0.61646845  0.18930866  1  0  0.142674  0  3.712061  0  0  0.110085  0  3.97163  0  0  0.115972  0  3.993028  0  0  0.046612  0.106915  0  3.956447  0
C  C34  1  0.28554104  0.49284614  0.74505336  1  0  -0.097635  0  3.705739  0  0  -0.116225  0  3.964447  0  0  -0.122308  0  3.985089  0  0  -0.078608  -0.112709  0  3.950855  0
C  C35  1  0.71446029  0.50715474  0.25494825  1  0  -0.097655  0  3.705747  0  0  -0.116234  0  3.964457  0  0  -0.122316  0  3.985099  0  0  -0.0786  -0.112719  0  3.950866  0
C  C36  1  0.21498359  0.47467685  0.61159764  1  0  0.010471  0  3.703394  0  0  -0.008467  0  3.95605  0  0  -0.004428  0  3.972867  0  0  -0.062467  -0.01109  0  3.945457  0
C  C37  1  0.78501804  0.52532512  0.38840413  1  0  0.010384  0  3.703494  0  0  -0.008572  0  3.956178  0  0  -0.004534  0  3.972992  0  0  -0.062481  -0.011192  0  3.945582  0
C  C38  1  0.08562133  0.35229158  0.54976316  1  0  -0.148923  0  3.689453  0  0  -0.169053  0  3.93809  0  0  -0.176641  0  3.959948  0  0  -0.080441  -0.164332  0  3.925011  0
C  C39  1  0.91437933  0.64771145  0.45023668  1  0  -0.148724  0  3.68936  0  0  -0.168879  0  3.938004  0  0  -0.176455  0  3.959873  0  0  -0.080411  -0.16416  0  3.924925  0
C  C40  1  0.02826398  0.24961403  0.62309231  1  0  0.181475  0  3.762852  0  0  0.174643  0  4.007074  0  0  0.181879  0  4.028219  0  0  0.118778  0.170037  0  3.992632  0
C  C41  1  0.97173600  0.75039117  0.37690857  1  0  0.181376  0  3.762805  0  0  0.174576  0  4.006982  0  0  0.181779  0  4.028173  0  0  0.118724  0.169973  0  3.992538  0
C  C42  1  0.88674695  0.11852520  0.56392236  1  0  0.180435  0  3.746644  0  0  0.175012  0  3.989793  0  0  0.181437  0  4.010928  0  0  0.120121  0.170494  0  3.975452  0
C  C43  1  0.11325056  0.88147569  0.43607861  1  0  0.180293  0  3.74669  0  0  0.174918  0  3.98977  0  0  0.181352  0  4.010911  0  0  0.120098  0.170396  0  3.975437  0
C  C44  1  0.78380487  0.10017591  0.43676183  1  0  -0.138839  0  3.664961  0  0  -0.159871  0  3.91292  0  0  -0.166689  0  3.933509  0  0  -0.078065  -0.155062  0  3.898408  0
C  C45  1  0.21619548  0.89982606  0.56324066  1  0  -0.138786  0  3.665033  0  0  -0.15987  0  3.913019  0  0  -0.166687  0  3.933607  0  0  -0.078082  -0.155069  0  3.898502  0
C  C46  1  0.65273558  0.97512639  0.38781447  1  0  0.009409  0  3.683867  0  0  -0.008645  0  3.9339  0  0  -0.005727  0  3.952785  0  0  -0.064343  -0.010341  0  3.920854  0
C  C47  1  0.34726134  0.02487233  0.61218618  1  0  0.009363  0  3.683913  0  0  -0.008667  0  3.93396  0  0  -0.005749  0  3.952844  0  0  -0.064343  -0.010364  0  3.920918  0
C  C48  1  0.62762497  0.87060201  0.46611663  1  0  -0.112698  0  3.719239  0  0  -0.126159  0  3.9691  0  0  -0.133287  0  3.991837  0  0  -0.082197  -0.121515  0  3.954092  0
C  C49  1  0.37237766  0.12939885  0.53388145  1  0  -0.112638  0  3.719352  0  0  -0.126106  0  3.969218  0  0  -0.133233  0  3.991955  0  0  -0.082168  -0.121463  0  3.954207  0
C  C50  1  0.73463437  0.89578537  0.59139553  1  0  0.140371  0  3.708212  0  0  0.109288  0  3.962457  0  0  0.116321  0  3.980757  0  0  0.051081  0.104561  0  3.950108  0
C  C51  1  0.26537110  0.10421657  0.40860406  1  0  0.140319  0  3.708316  0  0  0.10924  0  3.962585  0  0  0.116273  0  3.980887  0  0  0.051011  0.104515  0  3.950233  0
N  N52  1  0.73948115  0.48393118  0.77069163  1  0  0.516753  0  3.880079  0  0  0.538519  0  4.193783  0  0  0.559471  0  4.199243  0  0  0.064481  0.52445  0  4.190199  0
N  N53  1  0.26051863  0.51606861  0.22930773  1  0  0.516699  0  3.880008  0  0  0.538458  0  4.193716  0  0  0.559409  0  4.199179  0  0  0.064429  0.524389  0  4.190132  0
N  N54  1  0.10235995  0.26615075  0.75161230  1  0  -0.389078  0  3.28273  0  0  -0.31414  0  3.546679  0  0  -0.336001  0  3.568351  0  0  -0.33174  -0.299109  0  3.531309  0
N  N55  1  0.89763857  0.73384903  0.24838498  1  0  -0.389031  0  3.282559  0  0  -0.31411  0  3.546516  0  0  -0.335963  0  3.568201  0  0  -0.331689  -0.29908  0  3.531147  0
N  N56  1  0.86013386  0.01618764  0.63845772  1  0  -0.372815  0  3.278059  0  0  -0.299881  0  3.542456  0  0  -0.319978  0  3.561443  0  0  -0.3292  -0.285983  0  3.529307  0
N  N57  1  0.13986622  0.98381322  0.36154087  1  0  -0.372729  0  3.277917  0  0  -0.299787  0  3.542264  0  0  -0.319886  0  3.561255  0  0  -0.329149  -0.285889  0  3.529114  0
O  O58  1  0.94343753  0.85484752  0.92005537  1  0  -0.677721  0  2.110318  0  0  -0.591274  0  2.373939  0  0  -0.624228  0  2.361492  0  0  -0.332941  -0.566696  0  2.381719  0
O  O59  1  0.05656450  0.14515119  0.07994332  1  0  -0.677737  0  2.110344  0  0  -0.591253  0  2.373893  0  0  -0.624207  0  2.361447  0  0  -0.332957  -0.56668  0  2.381673  0
O  O60  1  0.04003334  0.74205016  0.76114263  1  0  -0.570752  0  1.946757  0  0  -0.533292  0  2.1772  0  0  -0.556247  0  2.171352  0  0  -0.297711  -0.515399  0  2.179851  0
O  O61  1  0.95996584  0.25794748  0.23885641  1  0  -0.570684  0  1.946737  0  0  -0.533236  0  2.177163  0  0  -0.55619  0  2.171316  0  0  -0.297692  -0.515343  0  2.179809  0
O  O62  1  0.73681642  0.11738974  0.88636384  1  0  -0.64474  0  2.002483  0  0  -0.581754  0  2.243478  0  0  -0.608846  0  2.232084  0  0  -0.317009  -0.562898  0  2.251049  0
O  O63  1  0.26318403  0.88260790  0.11363635  1  0  -0.644699  0  2.002515  0  0  -0.58172  0  2.243514  0  0  -0.608797  0  2.232094  0  0  -0.316952  -0.562861  0  2.25108  0
O  O64  1  0.56721000  0.27272105  0.92638771  1  0  -0.599448  0  1.918487  0  0  -0.551824  0  2.13723  0  0  -0.57752  0  2.129726  0  0  -0.310151  -0.533536  0  2.14169  0
O  O65  1  0.43279233  0.72727873  0.07361114  1  0  -0.599463  0  1.918601  0  0  -0.551837  0  2.137335  0  0  -0.577536  0  2.12983  0  0  -0.310166  -0.533548  0  2.141792  0
O  O66  1  0.71196140  0.37335401  0.68880044  1  0  -0.337396  0  1.770054  0  0  -0.320174  0  1.980025  0  0  -0.331595  0  1.976995  0  0  -0.104709  -0.312542  0  1.982141  0
O  O67  1  0.28803741  0.62664686  0.31119794  1  0  -0.337374  0  1.77003  0  0  -0.320155  0  1.980009  0  0  -0.331567  0  1.976964  0  0  -0.104689  -0.312517  0  1.98212  0
O  O68  1  0.67085763  0.58765678  0.75484916  1  0  -0.330243  0  1.765675  0  0  -0.314363  0  1.972977  0  0  -0.324771  0  1.967823  0  0  -0.101961  -0.307647  0  1.976795  0
O  O69  1  0.32914053  0.41234197  0.24515544  1  0  -0.330215  0  1.765619  0  0  -0.314327  0  1.972921  0  0  -0.324741  0  1.967771  0  0  -0.101921  -0.307615  0  1.976743  0
O  O70  1  0.30529765  0.05100749  0.92003744  1  0  -0.842815  0  1.869866  0  0  -0.778007  0  2.06311  0  0  -0.80065  0  2.027851  0  0  -0.591916  -0.761926  0  2.088068  0
O  O71  1  0.69470280  0.94899015  0.07996181  1  0  -0.842815  0  1.869855  0  0  -0.777998  0  2.063089  0  0  -0.800642  0  2.027829  0  0  -0.591888  -0.761915  0  2.088048  0
