# generated using pymatgen
data_ZnH16C25N4ClO4
_symmetry_space_group_name_H-M   'P 1'
_cell_length_a   8.63940749
_cell_length_b   12.11713609
_cell_length_c   12.58420000
_cell_angle_alpha   61.32877450
_cell_angle_beta   74.18545673
_cell_angle_gamma   75.38010850
_symmetry_Int_Tables_number   1
_chemical_formula_structural   ZnH16C25N4ClO4
_chemical_formula_sum   'Zn2 H32 C50 N8 Cl2 O8'
_cell_volume   1100.49004925
_cell_formula_units_Z   2
loop_
 _symmetry_equiv_pos_site_id
 _symmetry_equiv_pos_as_xyz
  1  'x, y, z'
loop_
 _atom_site_type_symbol
 _atom_site_label
 _atom_site_symmetry_multiplicity
 _atom_site_fract_x
 _atom_site_fract_y
 _atom_site_fract_z
 _atom_site_occupancy
 _atom_site_hle17_bader_spin_density
 _atom_site_hle17_ddec_charge
 _atom_site_hle17_ddec_spin_density
 _atom_site_hle17_ddec_sum_bond_order
 _atom_site_hle17_magmom
 _atom_site_hse06_10hf_bader_spin_density
 _atom_site_hse06_10hf_ddec_charge
 _atom_site_hse06_10hf_ddec_spin_density
 _atom_site_hse06_10hf_ddec_sum_bond_order
 _atom_site_hse06_10hf_magmom
 _atom_site_hse06_bader_spin_density
 _atom_site_hse06_ddec_charge
 _atom_site_hse06_ddec_spin_density
 _atom_site_hse06_ddec_sum_bond_order
 _atom_site_hse06_magmom
 _atom_site_pbe_bader_charge
 _atom_site_pbe_bader_spin_density
 _atom_site_pbe_cm5_charge
 _atom_site_pbe_ddec_charge
 _atom_site_pbe_ddec_spin_density
 _atom_site_pbe_ddec_sum_bond_order
 _atom_site_pbe_magmom
Zn  Zn0  1  0.60156987  0.60506447  0.71467269  1  0  0.925381  0  1.99316  0  0  0.737146  0  2.481399  0  0  0.78038  0  2.430234  0  1.19062  0  0.640173  0.707292  0  2.51644  0
Zn  Zn1  1  0.39842919  0.39493466  0.28532829  1  0  0.925367  0  1.993191  0  0  0.73712  0  2.4814  0  0  0.780351  0  2.430237  0  1.190627  0  0.64018  0.707266  0  2.516441  0
H  H2  1  0.19090539  0.31059795  0.10811669  1  0  0.105939  0  0.947476  0  0  0.111946  0  1.015239  0  0  0.115813  0  1.013232  0  0.073379  0  0.104348  0.109193  0  1.016762  0
H  H3  1  0.80909073  0.68940402  0.89188272  1  0  0.105936  0  0.947545  0  0  0.111935  0  1.015312  0  0  0.115801  0  1.013306  0  0.073342  0  0.104369  0.109183  0  1.016833  0
H  H4  1  0.76268055  0.82543529  0.52616935  1  0  0.072374  0  0.952806  0  0  0.079032  0  1.02151  0  0  0.081547  0  1.019222  0  0.120434  0  0.112102  0.077148  0  1.023177  0
H  H5  1  0.23731610  0.17456384  0.47382969  1  0  0.0724  0  0.952785  0  0  0.079041  0  1.021504  0  0  0.081556  0  1.019216  0  0.120076  0  0.112089  0.077167  0  1.023162  0
H  H6  1  0.73109539  0.05894995  0.46874345  1  0  0.122326  0  0.938275  0  0  0.130477  0  0.997692  0  0  0.134198  0  0.996236  0  0.14099  0  0.113126  0.127747  0  0.998944  0
H  H7  1  0.26889850  0.94105107  0.53125285  1  0  0.122308  0  0.938261  0  0  0.130416  0  0.99774  0  0  0.134145  0  0.996269  0  0.141301  0  0.113112  0.127687  0  0.998988  0
H  H8  1  0.54238527  0.13967274  0.61372517  1  0  0.100957  0  0.982452  0  0  0.10715  0  1.05162  0  0  0.10959  0  1.050333  0  0.158656  0  0.100096  0.10528  0  1.052666  0
H  H9  1  0.45761499  0.86032638  0.38627320  1  0  0.100965  0  0.982392  0  0  0.107179  0  1.05152  0  0  0.109624  0  1.050231  0  0.158657  0  0.100117  0.105307  0  1.052568  0
H  H10  1  0.45314162  0.75379386  0.85994489  1  0  0.094275  0  0.942354  0  0  0.101989  0  1.008595  0  0  0.104547  0  1.006256  0  0.139481  0  0.122104  0.100081  0  1.010358  0
H  H11  1  0.54686104  0.24620527  0.14005700  1  0  0.094294  0  0.942323  0  0  0.101998  0  1.008584  0  0  0.104557  0  1.006242  0  0.13948  0  0.122118  0.100083  0  1.010355  0
H  H12  1  0.27342575  0.16954599  0.70008034  1  0  0.106768  0  0.982433  0  0  0.115146  0  1.048932  0  0  0.118338  0  1.047614  0  0.072099  0  0.099936  0.112787  0  1.05002  0
H  H13  1  0.72657348  0.83045218  0.29992025  1  0  0.106771  0  0.982538  0  0  0.115136  0  1.049036  0  0  0.118329  0  1.047718  0  0.071179  0  0.099945  0.112782  0  1.050121  0
H  H14  1  0.44637401  0.83335605  0.00464473  1  0  0.129694  0  0.976796  0  0  0.137958  0  1.041537  0  0  0.141952  0  1.03877  0  0.158178  0  0.110723  0.135062  0  1.043608  0
H  H15  1  0.55363089  0.16664402  0.99535631  1  0  0.129642  0  0.976804  0  0  0.137905  0  1.041549  0  0  0.141899  0  1.038784  0  0.156263  0  0.110712  0.135012  0  1.043615  0
H  H16  1  0.14842105  0.35189277  0.64969708  1  0  0.109924  0  0.989848  0  0  0.117734  0  1.054931  0  0  0.121094  0  1.053442  0  0.128055  0  0.095462  0.115291  0  1.056185  0
H  H17  1  0.85158059  0.64810540  0.35030226  1  0  0.109904  0  0.989872  0  0  0.11771  0  1.054969  0  0  0.12107  0  1.053477  0  0.128067  0  0.095455  0.115266  0  1.056223  0
H  H18  1  0.92214958  0.52984905  0.59545916  1  0  0.074005  0  0.943511  0  0  0.083293  0  1.007266  0  0  0.085497  0  1.005201  0  0.141056  0  0.111806  0.081624  0  1.008845  0
H  H19  1  0.07785206  0.47014913  0.40454178  1  0  0.074048  0  0.943483  0  0  0.083345  0  1.007221  0  0  0.085546  0  1.005159  0  0.141037  0  0.111863  0.081666  0  1.008809  0
H  H20  1  0.68326299  0.40385633  0.95777358  1  0  0.081779  0  0.948883  0  0  0.089196  0  1.015004  0  0  0.091599  0  1.012601  0  0.107165  0  0.115968  0.087322  0  1.016863  0
H  H21  1  0.31673762  0.59614089  0.04222639  1  0  0.081755  0  0.948911  0  0  0.089141  0  1.015057  0  0  0.091555  0  1.012636  0  0.107161  0  0.115949  0.087253  0  1.016933  0
H  H22  1  0.90083672  0.21703826  0.02871239  1  0  0.11998  0  0.946366  0  0  0.125027  0  1.012904  0  0  0.129229  0  1.010589  0  0.144205  0  0.113756  0.122024  0  1.014705  0
H  H23  1  0.09916251  0.78295991  0.97128741  1  0  0.119999  0  0.94634  0  0  0.125047  0  1.012878  0  0  0.129248  0  1.010564  0  0.144211  0  0.11376  0.122044  0  1.01468  0
H  H24  1  0.04442134  0.03844608  0.21857267  1  0  0.126211  0  0.965947  0  0  0.127504  0  1.038581  0  0  0.13263  0  1.034192  0  0.160891  0  0.107218  0.123772  0  1.041862  0
H  H25  1  0.95557994  0.96155400  0.78142665  1  0  0.126217  0  0.965928  0  0  0.127512  0  1.038566  0  0  0.132636  0  1.034178  0  0.160881  0  0.107231  0.123788  0  1.041838  0
H  H26  1  0.01162113  0.91336404  0.44648925  1  0  0.074569  0  0.943507  0  0  0.083135  0  1.010209  0  0  0.085549  0  1.008159  0  0.0823  0  0.11382  0.081252  0  1.011845  0
H  H27  1  0.98837775  0.08663603  0.55351053  1  0  0.074564  0  0.943517  0  0  0.083154  0  1.010184  0  0  0.08555  0  1.008158  0  0.0823  0  0.113817  0.081271  0  1.011821  0
H  H28  1  0.35687109  0.61663907  0.41924120  1  0  0.08495  0  0.958532  0  0  0.090309  0  1.026763  0  0  0.093049  0  1.024349  0  0.149883  0  0.103544  0.08823  0  1.028625  0
H  H29  1  0.64312779  0.38336101  0.58075858  1  0  0.084949  0  0.958542  0  0  0.09031  0  1.026769  0  0  0.093049  0  1.024356  0  0.149874  0  0.103541  0.088231  0  1.028631  0
H  H30  1  0.41174410  0.72903826  0.19178382  1  0  0.126301  0  0.98802  0  0  0.13395  0  1.050311  0  0  0.137893  0  1.048168  0  0.138344  0  0.106944  0.131054  0  1.052064  0
H  H31  1  0.58825598  0.27096181  0.80821653  1  0  0.126312  0  0.987999  0  0  0.133963  0  1.050289  0  0  0.137905  0  1.048147  0  0.138348  0  0.106945  0.131064  0  1.052047  0
H  H32  1  0.83333950  0.31178802  0.42060239  1  0  0.3397  0  0.957808  0  0  0.301015  0  1.048431  0  0  0.314337  0  1.036358  0  0.60965  0  0.282366  0.291766  0  1.056707  0
H  H33  1  0.16666040  0.68821301  0.57939755  1  0  0.339717  0  0.957831  0  0  0.301007  0  1.048511  0  0  0.314326  0  1.036443  0  0.609632  0  0.282366  0.291757  0  1.056785  0
C  C34  1  0.33985733  0.46877086  0.88996114  1  0  0.651509  0  3.914627  0  0  0.60285  0  4.210295  0  0  0.636912  0  4.200695  0  1.585998  0  0.207189  0.579616  0  4.216208  0
C  C35  1  0.66014378  0.53123017  0.11003858  1  0  0.651582  0  3.914607  0  0  0.602833  0  4.21039  0  0  0.636896  0  4.200791  0  1.585981  0  0.207135  0.579599  0  4.216303  0
C  C36  1  0.16175378  0.48327879  0.94240727  1  0  -0.055844  0  3.718461  0  0  -0.045057  0  3.955481  0  0  -0.049488  0  3.975496  0  0.011314  0  -0.009538  -0.042212  0  3.942095  0
C  C37  1  0.83824492  0.51672223  0.05759289  1  0  -0.055832  0  3.718426  0  0  -0.04498  0  3.955397  0  0  -0.049412  0  3.97541  0  0.011285  0  -0.009504  -0.042137  0  3.942011  0
C  C38  1  0.10619938  0.39316572  0.06070093  1  0  -0.087523  0  3.714907  0  0  -0.121834  0  3.971547  0  0  -0.122305  0  3.990117  0  -0.003007  0  -0.078251  -0.121392  0  3.959035  0
C  C39  1  0.89379812  0.60683530  0.93929947  1  0  -0.087574  0  3.715017  0  0  -0.12188  0  3.971617  0  0  -0.122358  0  3.990205  0  -0.002983  0  -0.078296  -0.121437  0  3.959103  0
C  C40  1  0.94603663  0.40924868  0.11976748  1  0  -0.051464  0  3.705949  0  0  -0.037576  0  3.941412  0  0  -0.041345  0  3.960699  0  -0.038484  0  -0.005794  -0.035127  0  3.928517  0
C  C41  1  0.05396087  0.59075234  0.88023291  1  0  -0.051434  0  3.70595  0  0  -0.037524  0  3.941442  0  0  -0.041296  0  3.960733  0  -0.03845  0  -0.005761  -0.035075  0  3.928546  0
C  C42  1  0.90092492  0.31655492  0.25238436  1  0  0.666393  0  3.836835  0  0  0.614415  0  4.144362  0  0  0.648245  0  4.1331  0  1.553078  0  0.222006  0.591297  0  4.151573  0
C  C43  1  0.09907343  0.68344800  0.74761500  1  0  0.666466  0  3.836642  0  0  0.614439  0  4.144244  0  0  0.648264  0  4.132989  0  1.553065  0  0.22201  0.591321  0  4.151456  0
C  C44  1  0.68727355  0.86542217  0.58782639  1  0  0.124347  0  3.711297  0  0  0.0909  0  3.960384  0  0  0.097623  0  3.979898  0  0.373203  0  0.047004  0.086706  0  3.94708  0
C  C45  1  0.31272636  0.13457885  0.41217197  1  0  0.124136  0  3.711325  0  0  0.090698  0  3.960407  0  0  0.097419  0  3.979921  0  0.373589  0  0.04693  0.086494  0  3.9471  0
C  C46  1  0.66734737  0.99410679  0.55639212  1  0  -0.110208  0  3.723718  0  0  -0.120665  0  3.976116  0  0  -0.128665  0  3.998645  0  -0.022386  0  -0.07728  -0.115577  0  3.961005  0
C  C47  1  0.33264875  0.00589519  0.44360491  1  0  -0.110074  0  3.72372  0  0  -0.120497  0  3.976103  0  0  -0.128501  0  3.998633  0  -0.022643  0  -0.077237  -0.11541  0  3.960993  0
C  C48  1  0.56345042  0.03846224  0.63828136  1  0  -0.034743  0  3.676339  0  0  -0.06275  0  3.923591  0  0  -0.059201  0  3.942895  0  -0.031511  0  -0.058904  -0.064664  0  3.910367  0
C  C49  1  0.43654948  0.96153879  0.36171699  1  0  -0.034838  0  3.676297  0  0  -0.06282  0  3.923514  0  0  -0.059278  0  3.942824  0  -0.031467  0  -0.058935  -0.064733  0  3.910291  0
C  C50  1  0.48654220  0.95279296  0.75180054  1  0  0.002774  0  3.74324  0  0  0.024895  0  3.970299  0  0  0.019336  0  3.994135  0  0.022035  0  0.004705  0.028243  0  3.954253  0
C  C51  1  0.51346149  0.04720711  0.24819834  1  0  0.002741  0  3.743265  0  0  0.024812  0  3.97039  0  0  0.019255  0  3.994226  0  0.022019  0  0.004664  0.028158  0  3.954343  0
C  C52  1  0.51380591  0.82470718  0.77577249  1  0  0.105894  0  3.631154  0  0  0.068918  0  3.871638  0  0  0.076154  0  3.888502  0  0.426614  0  0.060292  0.064267  0  3.860334  0
C  C53  1  0.48619675  0.17529194  0.22422861  1  0  0.105918  0  3.631078  0  0  0.068943  0  3.87159  0  0  0.076177  0  3.888454  0  0.426605  0  0.060302  0.064301  0  3.860285  0
C  C54  1  0.37449100  0.99595272  0.84112013  1  0  0.107902  0  3.778519  0  0  0.11932  0  4.012868  0  0  0.122508  0  4.036903  0  -0.01659  0  0.008986  0.117339  0  3.996475  0
C  C55  1  0.62551269  0.00404736  0.15887954  1  0  0.107942  0  3.778623  0  0  0.119374  0  4.012973  0  0  0.122562  0  4.037006  0  -0.01659  0  0.008974  0.117392  0  3.996583  0
C  C56  1  0.27056840  0.11147528  0.79856472  1  0  -0.173515  0  3.643397  0  0  -0.199037  0  3.88313  0  0  -0.205389  0  3.903603  0  -0.011009  0  -0.074714  -0.194714  0  3.8693  0
C  C57  1  0.72943443  0.88852290  0.20143599  1  0  -0.173475  0  3.643521  0  0  -0.198992  0  3.883252  0  0  -0.205343  0  3.903723  0  -0.010114  0  -0.074679  -0.194673  0  3.869426  0
C  C58  1  0.15999530  0.14867806  0.88406375  1  0  0.215385  0  3.772728  0  0  0.216702  0  4.017574  0  0  0.22233  0  4.035927  0  0.570166  0  0.126444  0.212809  0  4.005142  0
C  C59  1  0.84000598  0.85132201  0.11593637  1  0  0.215338  0  3.772789  0  0  0.216644  0  4.017603  0  0  0.222273  0  4.035955  0  0.57019  0  0.126422  0.212751  0  4.005172  0
C  C60  1  0.25104836  0.96742542  0.04803798  1  0  0.212046  0  3.76767  0  0  0.212851  0  4.014421  0  0  0.218876  0  4.033225  0  0.537215  0  0.123214  0.208777  0  4.001536  0
C  C61  1  0.74895189  0.03257370  0.95196277  1  0  0.212115  0  3.76761  0  0  0.212851  0  4.014421  0  0  0.218877  0  4.033224  0  0.53739  0  0.123212  0.208777  0  4.001535  0
C  C62  1  0.36549383  0.92291972  0.96851779  1  0  -0.185387  0  3.628876  0  0  -0.213139  0  3.874365  0  0  -0.219619  0  3.894385  0  -0.047136  0  -0.074893  -0.20878  0  3.860861  0
C  C63  1  0.63451089  0.07708131  0.03148284  1  0  -0.185363  0  3.628867  0  0  -0.213093  0  3.87436  0  0  -0.219574  0  3.894381  0  -0.045378  0  -0.074851  -0.208736  0  3.860854  0
C  C64  1  0.03941725  0.26524723  0.84485657  1  0  0.088791  0  3.713295  0  0  0.098288  0  3.943073  0  0  0.103418  0  3.963502  0  0.008932  0  0.022446  0.095058  0  3.929189  0
C  C65  1  0.96058180  0.73475190  0.15514282  1  0  0.088799  0  3.713224  0  0  0.098382  0  3.942885  0  0  0.103511  0  3.96331  0  0.008957  0  0.022478  0.09515  0  3.929003  0
C  C66  1  0.04708949  0.35687164  0.72191343  1  0  -0.137169  0  3.676692  0  0  -0.155418  0  3.921859  0  0  -0.163001  0  3.941876  0  -0.007371  0  -0.078384  -0.150571  0  3.908535  0
C  C67  1  0.95291059  0.64312843  0.27808533  1  0  -0.137068  0  3.676658  0  0  -0.15534  0  3.921799  0  0  -0.162927  0  3.941825  0  -0.007377  0  -0.078331  -0.150493  0  3.908474  0
C  C68  1  0.92266032  0.45816485  0.69041874  1  0  0.143859  0  3.715243  0  0  0.108886  0  3.969982  0  0  0.117019  0  3.987799  0  0.42392  0  0.047093  0.10365  0  3.957909  0
C  C69  1  0.07734132  0.54183333  0.30958060  1  0  0.143784  0  3.715259  0  0  0.108791  0  3.970019  0  0  0.116928  0  3.987833  0  0.42396  0  0.046996  0.103564  0  3.957947  0
C  C70  1  0.78867041  0.38799009  0.89321115  1  0  0.134528  0  3.706132  0  0  0.101932  0  3.961376  0  0  0.108992  0  3.980622  0  0.475475  0  0.048068  0.097434  0  3.948439  0
C  C71  1  0.21132882  0.61200809  0.10678785  1  0  0.134548  0  3.706109  0  0  0.10199  0  3.961311  0  0  0.109048  0  3.980546  0  0.475407  0  0.048079  0.097503  0  3.948378  0
C  C72  1  0.90842141  0.28442607  0.93192013  1  0  -0.135669  0  3.688127  0  0  -0.156274  0  3.941964  0  0  -0.164604  0  3.964019  0  -0.029591  0  -0.074635  -0.150934  0  3.927257  0
C  C73  1  0.09157800  0.71557116  0.06808008  1  0  -0.135705  0  3.688113  0  0  -0.156352  0  3.941922  0  0  -0.164683  0  3.96398  0  -0.029599  0  -0.074645  -0.15101  0  3.927211  0
C  C74  1  0.22984296  0.89428120  0.18423638  1  0  0.069111  0  3.73593  0  0  0.081248  0  3.965829  0  0  0.084478  0  3.988289  0  -0.056013  0  0.012208  0.07929  0  3.950419  0
C  C75  1  0.77015970  0.10571792  0.81576471  1  0  0.069017  0  3.73598  0  0  0.081217  0  3.965832  0  0  0.084447  0  3.988292  0  -0.055997  0  0.01217  0.079259  0  3.950423  0
C  C76  1  0.11470640  0.94463172  0.25886535  1  0  -0.148368  0  3.695928  0  0  -0.16888  0  3.946674  0  0  -0.175946  0  3.967035  0  -0.022874  0  -0.082623  -0.164211  0  3.93291  0
C  C77  1  0.88529385  0.05536741  0.74113461  1  0  -0.148325  0  3.695915  0  0  -0.168851  0  3.946646  0  0  -0.175915  0  3.967004  0  -0.022883  0  -0.082642  -0.16419  0  3.932875  0
C  C78  1  0.09520203  0.87488184  0.38589524  1  0  0.112243  0  3.735288  0  0  0.083101  0  3.989529  0  0  0.088704  0  4.008392  0  0.479986  0  0.04226  0.079648  0  3.976573  0
C  C79  1  0.90479926  0.12511823  0.61410409  1  0  0.112268  0  3.735239  0  0  0.083113  0  3.989479  0  0  0.088727  0  4.008345  0  0.479932  0  0.042293  0.07966  0  3.976525  0
C  C80  1  0.29010055  0.71034419  0.37089996  1  0  0.125072  0  3.702472  0  0  0.093  0  3.960424  0  0  0.098957  0  3.978273  0  0.498782  0  0.042636  0.089198  0  3.948301  0
C  C81  1  0.70989953  0.28965588  0.62910039  1  0  0.125089  0  3.702494  0  0  0.093019  0  3.960446  0  0  0.098977  0  3.978297  0  0.498703  0  0.04264  0.089217  0  3.948321  0
C  C82  1  0.31982993  0.77455628  0.24292763  1  0  -0.160296  0  3.683414  0  0  -0.17927  0  3.932214  0  0  -0.18726  0  3.954526  0  -0.075045  0  -0.084534  -0.174014  0  3.917207  0
C  C83  1  0.68017032  0.22544284  0.75707312  1  0  -0.160292  0  3.683403  0  0  -0.179297  0  3.932224  0  0  -0.187287  0  3.954537  0  -0.074989  0  -0.084501  -0.174041  0  3.917216  0
N  N84  1  0.60982142  0.78269947  0.69483942  1  0  -0.320537  0  3.32331  0  0  -0.232823  0  3.596644  0  0  -0.252234  0  3.612408  0  -1.232938  0  -0.331328  -0.219901  0  3.585913  0
N  N85  1  0.39017952  0.21730251  0.30515750  1  0  -0.320396  0  3.323128  0  0  -0.232671  0  3.596442  0  0  -0.252078  0  3.612205  0  -1.232963  0  -0.331258  -0.21975  0  3.585711  0
N  N86  1  0.15074730  0.07748243  0.00582250  1  0  -0.347091  0  3.038287  0  0  -0.316959  0  3.29418  0  0  -0.327485  0  3.308302  0  -1.218488  0  -0.297372  -0.309608  0  3.284501  0
N  N87  1  0.84925278  0.92251764  0.99417864  1  0  -0.347129  0  3.03834  0  0  -0.316992  0  3.294268  0  0  -0.327518  0  3.30839  0  -1.218549  0  -0.297408  -0.30964  0  3.284589  0
N  N88  1  0.79376119  0.47283817  0.77377579  1  0  -0.345762  0  3.356323  0  0  -0.257856  0  3.639684  0  0  -0.278381  0  3.655065  0  -1.285055  0  -0.342155  -0.244122  0  3.629174  0
N  N89  1  0.20623907  0.52716095  0.22622417  1  0  -0.345786  0  3.356352  0  0  -0.257865  0  3.639659  0  0  -0.278394  0  3.655046  0  -1.285052  0  -0.342163  -0.244127  0  3.62914  0
N  N90  1  0.18012495  0.75937632  0.44159807  1  0  -0.301592  0  3.237075  0  0  -0.236203  0  3.480756  0  0  -0.251308  0  3.498253  0  -1.261241  0  -0.312608  -0.226021  0  3.468708  0
N  N91  1  0.81987514  0.24062376  0.55840069  1  0  -0.301594  0  3.237062  0  0  -0.236222  0  3.480735  0  0  -0.251326  0  3.498225  0  -1.261129  0  -0.312605  -0.226039  0  3.468687  0
Cl  Cl92  1  0.61190313  0.63603938  0.52245906  1  0  -0.568786  0  0.938606  0  0  -0.505361  0  1.211444  0  0  -0.520512  0  1.185934  0  -0.661356  0  -0.286408  -0.494278  0  1.228972  0
Cl  Cl93  1  0.38809610  0.36395879  0.47754312  1  0  -0.568785  0  0.938602  0  0  -0.505362  0  1.211445  0  0  -0.520502  0  1.185919  0  -0.661359  0  -0.28641  -0.494278  0  1.228972  0
O  O94  1  0.41954572  0.36174501  0.90957801  1  0  -0.601669  0  1.93917  0  0  -0.559661  0  2.164016  0  0  -0.580775  0  2.154056  0  -1.182915  0  -0.316076  -0.544656  0  2.170368  0
O  O95  1  0.58045040  0.63825697  0.09042299  1  0  -0.601716  0  1.939121  0  0  -0.559688  0  2.164014  0  0  -0.580803  0  2.154055  0  -1.182958  0  -0.316075  -0.544683  0  2.170364  0
O  O96  1  0.39762931  0.57645922  0.83096591  1  0  -0.656338  0  2.09222  0  0  -0.579407  0  2.373233  0  0  -0.608212  0  2.356902  0  -1.169286  0  -0.338236  -0.559111  0  2.383694  0
O  O97  1  0.60237163  0.42354275  0.16903499  1  0  -0.656394  0  2.092291  0  0  -0.579414  0  2.37332  0  0  -0.608218  0  2.356987  0  -1.169236  0  -0.338208  -0.559117  0  2.38378  0
O  O98  1  0.84630094  0.37517885  0.32375192  1  0  -0.550552  0  2.129071  0  0  -0.49992  0  2.357053  0  0  -0.524041  0  2.345686  0  -1.172511  0  -0.330978  -0.483039  0  2.364351  0
O  O99  1  0.15370222  0.62482408  0.67624654  1  0  -0.550611  0  2.129071  0  0  -0.499943  0  2.357089  0  0  -0.524067  0  2.345727  0  -1.172445  0  -0.330978  -0.483061  0  2.364387  0
O  O100  1  0.92459973  0.20001712  0.28854100  1  0  -0.582484  0  1.875888  0  0  -0.541238  0  2.0855  0  0  -0.561041  0  2.07622  0  -1.137307  0  -0.313361  -0.527338  0  2.091539  0
O  O101  1  0.07539501  0.79998580  0.71145903  1  0  -0.582493  0  1.875808  0  0  -0.54123  0  2.085452  0  0  -0.56101  0  2.076145  0  -1.137347  0  -0.313358  -0.527332  0  2.091495  0
