# generated using pymatgen
data_CaCuH18C11S(NO6)2
_symmetry_space_group_name_H-M   'P 1'
_cell_length_a   8.85364641
_cell_length_b   9.14259188
_cell_length_c   12.53929077
_cell_angle_alpha   95.49270790
_cell_angle_beta   97.29973152
_cell_angle_gamma   105.95184464
_symmetry_Int_Tables_number   1
_chemical_formula_structural   CaCuH18C11S(NO6)2
_chemical_formula_sum   'Ca2 Cu2 H36 C22 S2 N4 O24'
_cell_volume   958.87746449
_cell_formula_units_Z   2
loop_
 _symmetry_equiv_pos_site_id
 _symmetry_equiv_pos_as_xyz
  1  'x, y, z'
loop_
 _atom_site_type_symbol
 _atom_site_label
 _atom_site_symmetry_multiplicity
 _atom_site_fract_x
 _atom_site_fract_y
 _atom_site_fract_z
 _atom_site_occupancy
 _atom_site_hle17_ddec_charge
 _atom_site_hle17_ddec_spin_density
 _atom_site_hle17_ddec_sum_bond_order
 _atom_site_hle17_magmom
 _atom_site_hse06_10hf_ddec_charge
 _atom_site_hse06_10hf_ddec_spin_density
 _atom_site_hse06_10hf_ddec_sum_bond_order
 _atom_site_hse06_10hf_magmom
 _atom_site_hse06_ddec_charge
 _atom_site_hse06_ddec_spin_density
 _atom_site_hse06_ddec_sum_bond_order
 _atom_site_hse06_magmom
 _atom_site_pbe_cm5_charge
 _atom_site_pbe_ddec_charge
 _atom_site_pbe_ddec_spin_density
 _atom_site_pbe_ddec_sum_bond_order
 _atom_site_pbe_magmom
Ca  Ca0  1  0.53198657  0.81869248  0.88940792  1  1.568403  0.000754  1.023234  0.001  1.446179  0.001031  1.353462  0.001  1.487437  0.000688  1.309618  0.001  0.845226  1.414797  0.001363  1.385474  0.001
Ca  Ca1  1  0.46801225  0.18131346  0.11059281  1  1.56839  0.000765  1.023298  0.001  1.446205  0.001057  1.353479  0.001  1.487462  0.000665  1.309638  0.001  0.845204  1.414813  0.001362  1.385489  0.001
Cu  Cu2  1  0.64477333  0.09937735  0.64043631  1  0.835138  0.686963  1.939338  0.503  0.800549  0.76242  2.353324  0.603  0.881389  0.822804  2.286444  0.679  0.768818  0.752185  0.719433  2.39848  0.553
Cu  Cu3  1  0.35523321  0.90061962  0.35956615  1  0.835393  0.687078  1.939498  0.504  0.800561  0.762414  2.353365  0.603  0.881423  0.822801  2.286518  0.679  0.768847  0.752186  0.719447  2.398472  0.553
H  H4  1  0.81620459  0.69555287  0.56069659  1  0.112093  -5.2e-05  0.956298  0.0  0.122068  0.000254  1.015097  0.0  0.126319  0.000162  1.01296  0.0  0.105872  0.119031  0.000217  1.016781  0.0
H  H5  1  0.18379542  0.30444515  0.43930695  1  0.111966  -5e-05  0.956391  0.0  0.12198  0.000254  1.015157  0.0  0.126227  0.000163  1.013022  0.0  0.105838  0.11894  0.000217  1.016838  0.0
H  H6  1  0.91618209  0.62311014  0.39246991  1  0.094697  0.000354  0.93248  0.001  0.108182  0.000131  0.988057  0.0  0.111257  8.2e-05  0.98537  0.0  0.106668  0.106067  0.00029  0.989785  0.0
H  H7  1  0.08381252  0.37688090  0.60753114  1  0.094747  0.000353  0.932474  0.001  0.108243  0.000132  0.988036  0.0  0.111318  8.2e-05  0.985347  0.0  0.106688  0.106128  0.00029  0.989767  0.0
H  H8  1  0.85143143  0.02866317  0.26805127  1  0.113347  0.0004  0.939194  0.0  0.120876  0.000281  1.004669  0.0  0.124806  0.000207  1.000944  0.0  0.111289  0.118007  0.000348  1.007723  0.0
H  H9  1  0.14857153  0.97133720  0.73195347  1  0.113302  0.000399  0.939149  0.0  0.120827  0.000281  1.004634  0.0  0.124758  0.000207  1.000908  0.0  0.111261  0.117956  0.000349  1.007698  0.0
H  H10  1  0.75909749  0.20310957  0.36188871  1  0.090582  0.008776  0.906854  0.011  0.102529  0.005899  0.968014  0.007  0.103916  0.004393  0.963949  0.005  0.128919  0.100668  0.007181  0.97178  0.008
H  H11  1  0.24090021  0.79688837  0.63811223  1  0.090543  0.008777  0.90686  0.011  0.102498  0.0059  0.968025  0.007  0.103885  0.004394  0.96396  0.005  0.128921  0.100645  0.007183  0.971789  0.008
H  H12  1  0.55341340  0.33551566  0.44607940  1  0.126347  0.000899  0.929322  0.001  0.140799  0.000581  0.986593  0.001  0.142825  0.000451  0.985625  0.0  0.124063  0.139168  0.000621  0.987578  0.001
H  H13  1  0.44658394  0.66447304  0.55391617  1  0.126341  0.000898  0.929271  0.001  0.14077  0.00058  0.986543  0.001  0.142793  0.000451  0.985572  0.0  0.124058  0.139142  0.000622  0.987532  0.001
H  H14  1  0.75238381  0.43322904  0.50398460  1  0.094415  0.001374  0.914394  0.001  0.115075  0.000944  0.966864  0.001  0.115163  0.000747  0.967078  0.001  0.115116  0.115321  0.001088  0.966085  0.001
H  H15  1  0.24761236  0.56676761  0.49601055  1  0.094419  0.001374  0.914438  0.001  0.115054  0.000944  0.966888  0.001  0.115138  0.000747  0.967099  0.001  0.115125  0.115301  0.001088  0.966106  0.001
H  H16  1  0.41042220  0.30247330  0.78775640  1  0.09693  0.001697  0.94895  0.002  0.10887  0.001005  1.013535  0.001  0.109265  0.000785  1.013958  0.001  0.113138  0.109053  0.001146  1.012862  0.001
H  H17  1  0.58957477  0.69753022  0.21223924  1  0.096964  0.001696  0.948914  0.002  0.108878  0.001005  1.013528  0.001  0.109272  0.000785  1.013954  0.001  0.113137  0.109058  0.001146  1.012858  0.001
H  H18  1  0.61301155  0.37781793  0.84407592  1  0.114696  0.000989  0.912697  0.001  0.129947  0.000749  0.968276  0.001  0.132125  0.000612  0.965658  0.001  0.120552  0.128059  0.000828  0.971072  0.001
H  H19  1  0.38698867  0.62218905  0.15591862  1  0.114715  0.000989  0.912629  0.001  0.129953  0.00075  0.968213  0.001  0.132135  0.000612  0.965593  0.001  0.120562  0.128063  0.000828  0.971006  0.001
H  H20  1  0.67748582  0.66496607  0.72421490  1  0.411704  -0.000137  0.902813  0.0  0.381656  -1.9e-05  0.966197  0.0  0.39221  -2.8e-05  0.950817  0.0  0.291146  0.374088  -3.1e-05  0.977321  0.0
H  H21  1  0.32250888  0.33503744  0.27578214  1  0.411751  -0.000137  0.902766  0.0  0.381699  -1.9e-05  0.966154  0.0  0.392254  -2.7e-05  0.950773  0.0  0.291164  0.374129  -3.2e-05  0.97728  0.0
H  H22  1  0.74544045  0.83804797  0.71633489  1  0.424438  0.000128  0.876763  0.0  0.395034  0.000176  0.938321  0.0  0.405734  6.3e-05  0.922796  0.0  0.293242  0.387485  0.000335  0.949327  0.0
H  H23  1  0.25455473  0.16195324  0.28366046  1  0.424501  0.000128  0.876664  0.0  0.3951  0.000175  0.93822  0.0  0.405798  6.3e-05  0.922697  0.0  0.293275  0.387546  0.000334  0.94923  0.0
H  H24  1  0.87492542  0.03372204  0.92780541  1  0.437061  -5e-06  0.85824  0.0  0.40589  -9e-06  0.920558  0.0  0.415876  -9e-06  0.906044  0.0  0.30519  0.398772  -9e-06  0.930912  0.0
H  H25  1  0.12507846  0.96628169  0.07219484  1  0.437105  -5e-06  0.858183  0.0  0.405935  -9e-06  0.920495  0.0  0.41592  -9e-06  0.905982  0.0  0.305225  0.398816  -9e-06  0.930849  0.0
H  H26  1  0.84661733  0.94425802  0.02983480  1  0.429364  -2e-06  0.869738  0.0  0.398099  -3e-06  0.933739  0.0  0.408194  -3e-06  0.918907  0.0  0.307392  0.390984  -1e-06  0.944188  0.0
H  H27  1  0.15339081  0.05574464  0.97016576  1  0.42938  -2e-06  0.869705  0.0  0.398109  -3e-06  0.933716  0.0  0.408205  -3e-06  0.918882  0.0  0.307394  0.390993  -1e-06  0.944166  0.0
H  H28  1  0.43663343  0.55125068  0.71399636  1  0.415593  -0.000201  0.897888  0.0  0.381684  -0.000123  0.968055  0.0  0.39306  -0.000115  0.951613  0.0  0.289845  0.373686  -9.9e-05  0.97957  0.0
H  H29  1  0.56336375  0.44874948  0.28600229  1  0.415602  -0.000201  0.897881  0.0  0.38169  -0.000124  0.968048  0.0  0.393066  -0.000115  0.951608  0.0  0.289847  0.373697  -9.9e-05  0.979557  0.0
H  H30  1  0.29896095  0.52050872  0.78602294  1  0.419448  -8e-06  0.884866  0.0  0.38963  1e-06  0.947456  0.0  0.399306  -3e-06  0.933291  0.0  0.29193  0.382786  3e-06  0.957464  0.0
H  H31  1  0.70103899  0.47949719  0.21397550  1  0.419365  -8e-06  0.88498  0.0  0.389596  1e-06  0.947504  0.0  0.399252  -2e-06  0.933357  0.0  0.29191  0.382759  3e-06  0.957507  0.0
H  H32  1  0.22576759  0.86010884  0.94253866  1  0.430237  -7e-06  0.873868  0.0  0.398164  -1e-05  0.938452  0.0  0.40998  -9e-06  0.921151  0.0  0.296095  0.389711  -1e-05  0.950837  0.0
H  H33  1  0.77423030  0.13988570  0.05746369  1  0.430194  -7e-06  0.873927  0.0  0.398134  -1e-05  0.938489  0.0  0.40995  -8e-06  0.921189  0.0  0.296063  0.389678  -1e-05  0.950881  0.0
H  H34  1  0.17058603  0.68910155  0.87988996  1  0.429318  -9e-06  0.82431  0.0  0.413423  -6e-06  0.873111  0.0  0.421775  -5e-06  0.860938  0.0  0.325384  0.407106  2e-06  0.882482  0.0
H  H35  1  0.82940391  0.31089296  0.12011807  1  0.429434  -9e-06  0.824236  0.0  0.413505  -5e-06  0.873024  0.0  0.421862  -5e-06  0.860843  0.0  0.325367  0.407183  2e-06  0.882402  0.0
H  H36  1  0.71841092  0.62827332  0.02339685  1  0.436125  1.3e-05  0.862016  0.0  0.403586  3.2e-05  0.9272  0.0  0.41422  2.1e-05  0.911588  0.0  0.296854  0.396003  3.8e-05  0.938309  0.0
H  H37  1  0.28159115  0.37172806  0.97660150  1  0.436197  1.3e-05  0.861957  0.0  0.403658  3.2e-05  0.927134  0.0  0.414294  2.1e-05  0.911519  0.0  0.296882  0.396075  3.9e-05  0.938243  0.0
H  H38  1  0.74882012  0.66434222  0.90611869  1  0.421924  -8e-06  0.851125  0.0  0.400549  -8e-06  0.910096  0.0  0.40997  -7e-06  0.895973  0.0  0.312851  0.393626  3e-06  0.920578  0.0
H  H39  1  0.25118143  0.33566139  0.09387736  1  0.421944  -8e-06  0.851105  0.0  0.400565  -8e-06  0.910073  0.0  0.409987  -7e-06  0.895947  0.0  0.312854  0.393643  3e-06  0.920557  0.0
C  C40  1  0.77633517  0.90282256  0.51187240  1  0.367052  -0.009119  3.795962  -0.007  0.349586  -0.002808  4.056441  -0.003  0.370827  -0.003613  4.071745  -0.003  0.103033  0.336589  -0.001873  4.04356  -0.002
C  C41  1  0.22367218  0.09717327  0.48812926  1  0.367004  -0.009108  3.796134  -0.007  0.349595  -0.00281  4.05657  -0.003  0.370832  -0.003611  4.071878  -0.003  0.103061  0.336597  -0.001874  4.043684  -0.002
C  C42  1  0.82525106  0.76776435  0.49611439  1  -0.194186  0.009076  3.706038  0.01  -0.209255  0.004686  3.961888  0.006  -0.219105  0.003716  3.980366  0.005  -0.105721  -0.202322  0.005521  3.947896  0.007
C  C43  1  0.17475059  0.23223142  0.50388916  1  -0.194037  0.009061  3.705952  0.01  -0.209155  0.004686  3.961821  0.006  -0.218999  0.003716  3.980301  0.005  -0.105655  -0.202216  0.005522  3.947818  0.007
C  C44  1  0.87993972  0.72778958  0.40271374  1  -0.018063  -0.007641  3.766059  -0.004  -0.049796  -0.002396  4.02437  -0.001  -0.043379  -0.002938  4.041963  -0.001  -0.081466  -0.054944  -0.002278  4.012676  -0.001
C  C45  1  0.12005963  0.27220613  0.59728881  1  -0.018107  -0.007614  3.765949  -0.004  -0.049835  -0.002395  4.024323  -0.001  -0.043418  -0.002936  4.041916  -0.001  -0.08149  -0.054987  -0.002278  4.012631  -0.001
C  C46  1  0.88923787  0.82214356  0.31970395  1  -0.175542  0.001093  3.79311  0.002  -0.150512  -0.000429  4.053374  0.0  -0.162883  -9.9e-05  4.077441  0.0  -0.040544  -0.142722  -0.000657  4.038993  0.0
C  C47  1  0.11076379  0.17785220  0.68029960  1  -0.17568  0.001076  3.793083  0.002  -0.150708  -0.000425  4.053425  0.0  -0.163083  -0.000101  4.077491  0.0  -0.040604  -0.142917  -0.000657  4.039045  0.0
C  C48  1  0.84419825  0.95552548  0.33227420  1  -0.051663  -0.008295  3.717249  -0.005  -0.088882  -0.002661  3.971201  -0.002  -0.081611  -0.003134  3.989435  -0.002  -0.075588  -0.094466  -0.002373  3.959759  -0.001
C  C49  1  0.15579992  0.04447013  0.66772425  1  -0.051526  -0.008268  3.717146  -0.005  -0.088697  -0.002667  3.971092  -0.002  -0.081423  -0.003132  3.989325  -0.002  -0.075522  -0.094286  -0.002372  3.959669  -0.001
C  C50  1  0.78718448  0.99886211  0.42702056  1  -0.117387  0.00581  3.793178  0.008  -0.100135  0.00246  4.045656  0.005  -0.116602  0.001868  4.073887  0.004  -0.03114  -0.089202  0.00336  4.025373  0.006
C  C51  1  0.21281798  0.00113249  0.57298140  1  -0.117435  0.0058  3.793347  0.008  -0.100215  0.002463  4.045854  0.005  -0.116679  0.001867  4.074074  0.004  -0.031199  -0.089281  0.003361  4.025572  0.006
C  C52  1  0.74318789  0.13956405  0.43196284  1  0.161379  -0.030856  3.690675  -0.02  0.112769  -0.011211  3.9662  -0.007  0.133487  -0.014114  3.976315  -0.009  0.08353  0.099289  -0.009102  3.960078  -0.005
C  C53  1  0.25681520  0.86043281  0.56803692  1  0.161469  -0.030829  3.690906  -0.02  0.112809  -0.011213  3.966449  -0.007  0.13353  -0.014107  3.976573  -0.009  0.083555  0.099324  -0.009103  3.960331  -0.005
C  C54  1  0.64803493  0.33956294  0.51322554  1  -0.113575  0.002068  3.673051  0.001  -0.170031  0.002661  3.934951  0.002  -0.16825  0.001528  3.944291  0.001  -0.061536  -0.170515  0.003476  3.927981  0.002
C  C55  1  0.35196287  0.66043145  0.48676881  1  -0.113455  0.002069  3.673105  0.001  -0.169785  0.00266  3.934772  0.002  -0.167986  0.001526  3.944093  0.001  -0.061457  -0.170268  0.003474  3.927801  0.002
C  C56  1  0.59192769  0.37928466  0.61914985  1  0.551495  -0.011392  3.840427  -0.007  0.510015  -0.002233  4.13376  -0.001  0.54014  -0.003686  4.13705  -0.002  0.225999  0.489656  -0.001081  4.130845  0.0
C  C57  1  0.40807386  0.62071893  0.38084540  1  0.55148  -0.011398  3.840463  -0.007  0.50996  -0.002235  4.133782  -0.001  0.540081  -0.003689  4.137076  -0.002  0.226006  0.489595  -0.001083  4.130866  0.0
C  C58  1  0.52746315  0.28255855  0.78747409  1  -0.114761  0.00055  3.719145  -0.002  -0.162686  0.001976  3.970436  0.0  -0.160518  0.001014  3.980816  -0.001  -0.064205  -0.164255  0.002646  3.964128  0.0
C  C59  1  0.47253356  0.71744393  0.21252705  1  -0.114893  0.000552  3.719164  -0.002  -0.162795  0.001974  3.970414  0.0  -0.160633  0.001022  3.980795  -0.001  -0.064252  -0.164349  0.002643  3.964079  0.0
C  C60  1  0.52167001  0.13371817  0.83311715  1  0.706324  -0.000261  3.806275  0.001  0.663302  0.001691  4.098664  0.002  0.698105  0.000977  4.091672  0.002  0.234273  0.639507  0.002316  4.102677  0.003
C  C61  1  0.47832995  0.86628777  0.16688289  1  0.706361  -0.000263  3.806249  0.001  0.663374  0.00169  4.098577  0.002  0.698179  0.000976  4.091585  0.002  0.234296  0.639578  0.002315  4.10259  0.003
S  S62  1  0.95128854  0.76014718  0.19908241  1  1.323289  -3.6e-05  5.615838  0.0  1.220174  -4.8e-05  6.145383  0.0  1.267967  -6.2e-05  6.12196  0.0  0.517703  1.187542  -0.000121  6.160282  0.0
S  S63  1  0.04871374  0.23985083  0.80091894  1  1.323481  -3.6e-05  5.615742  0.0  1.220399  -4.5e-05  6.145288  0.0  1.268198  -6.1e-05  6.12186  0.0  0.517755  1.187761  -0.00012  6.160196  0.0
N  N64  1  0.68646840  0.19431535  0.51178550  1  -0.309992  0.110571  3.335645  0.143  -0.267218  0.073223  3.667695  0.101  -0.299753  0.061143  3.684351  0.091  -0.376684  -0.248976  0.080007  3.658924  0.105
N  N65  1  0.31353061  0.80567918  0.48821535  1  -0.310217  0.110542  3.335953  0.143  -0.267355  0.073227  3.667847  0.101  -0.299913  0.061141  3.684528  0.091  -0.376778  -0.249113  0.080004  3.659055  0.105
N  N66  1  0.57017231  0.26983356  0.68080823  1  -0.469989  0.109787  3.343136  0.14  -0.434924  0.070971  3.670808  0.094  -0.477332  0.058224  3.692221  0.083  -0.433814  -0.408633  0.078234  3.657201  0.1
N  N67  1  0.42982224  0.73016538  0.31918852  1  -0.469965  0.109752  3.343423  0.14  -0.434842  0.070961  3.671021  0.094  -0.477257  0.058215  3.692456  0.083  -0.433845  -0.408563  0.078222  3.657388  0.1
O  O68  1  0.82168008  0.61989887  0.14689149  1  -0.711922  2.5e-05  1.991382  0.0  -0.644989  -4.8e-05  2.225156  0.0  -0.665963  -3.1e-05  2.206976  0.0  -0.336969  -0.629838  0.000162  2.236812  0.0
O  O69  1  0.17831679  0.38010017  0.85310866  1  -0.712005  2.5e-05  1.991334  0.0  -0.645082  -4.9e-05  2.225117  0.0  -0.666069  -3.1e-05  2.206949  0.0  -0.337008  -0.62993  0.000162  2.236771  0.0
O  O70  1  0.10137376  0.72646304  0.22879628  1  -0.651935  -0.00089  1.956545  0.0  -0.617011  -0.000849  2.215176  0.0  -0.638833  -0.001057  2.199297  0.0  -0.342421  -0.602563  -0.000578  2.226254  0.0
O  O71  1  0.89862783  0.27353261  0.77120168  1  -0.651988  -0.00089  1.956322  0.0  -0.617077  -0.000849  2.214981  0.0  -0.638891  -0.001061  2.199091  0.0  -0.342463  -0.602632  -0.000578  2.226066  0.0
O  O72  1  0.96293371  0.88600585  0.13130048  1  -0.696731  1.8e-05  2.017042  0.0  -0.630116  -8e-06  2.254718  0.0  -0.651024  -4e-06  2.237794  0.0  -0.331991  -0.615595  -2.9e-05  2.266262  0.0
O  O73  1  0.03706925  0.11400253  0.86870555  1  -0.696761  1.8e-05  2.017209  0.0  -0.630144  -1e-05  2.254882  0.0  -0.651061  -2e-06  2.237964  0.0  -0.33197  -0.615622  -2.9e-05  2.266428  0.0
O  O74  1  0.72388584  0.93107750  0.60276730  1  -0.585803  0.059794  2.173267  0.083  -0.539151  0.041361  2.45934  0.061  -0.57811  0.032462  2.451347  0.052  -0.335124  -0.513035  0.04785  2.464236  0.068
O  O75  1  0.27613134  0.06892884  0.39723905  1  -0.585808  0.059795  2.17354  0.083  -0.539149  0.041364  2.459538  0.061  -0.578102  0.032463  2.451561  0.052  -0.335091  -0.51303  0.047855  2.464403  0.068
O  O76  1  0.56854382  0.51039088  0.63903732  1  -0.631098  0.013716  2.035225  0.018  -0.566183  0.006501  2.256502  0.009  -0.593233  0.00314  2.248635  0.005  -0.315286  -0.546717  0.010454  2.261601  0.013
O  O77  1  0.43145693  0.48960586  0.36095824  1  -0.631135  0.013707  2.03508  0.018  -0.566232  0.006499  2.256423  0.009  -0.593265  0.00314  2.248518  0.005  -0.315289  -0.54676  0.010451  2.261514  0.013
O  O78  1  0.55839513  0.02672745  0.77515804  1  -0.672557  0.045018  2.029383  0.062  -0.617144  0.037364  2.29956  0.055  -0.654732  0.030357  2.287422  0.048  -0.355058  -0.591806  0.041906  2.307976  0.059
O  O79  1  0.44160435  0.97328080  0.22484370  1  -0.672653  0.045027  2.029268  0.062  -0.617252  0.037374  2.299411  0.055  -0.65485  0.030358  2.28729  0.048  -0.355153  -0.591911  0.041916  2.307811  0.059
O  O80  1  0.48172286  0.11449115  0.92435304  1  -0.690965  0.007337  1.998906  0.009  -0.633997  0.005176  2.242525  0.007  -0.663312  0.002855  2.234621  0.004  -0.344393  -0.612411  0.007606  2.246889  0.009
O  O81  1  0.51827907  0.88552172  0.07564999  1  -0.690952  0.007337  1.999148  0.009  -0.633926  0.005176  2.242663  0.007  -0.663239  0.002857  2.234755  0.004  -0.344292  -0.612345  0.007607  2.247032  0.009
O  O82  1  0.72507126  0.76598803  0.77085956  1  -0.896448  0.001085  1.813345  0.002  -0.843904  0.000647  1.984062  0.001  -0.864864  0.00028  1.951825  0.0  -0.62454  -0.828936  0.000693  2.007327  0.001
O  O83  1  0.27491805  0.23401654  0.22913787  1  -0.896514  0.001083  1.81324  0.002  -0.843965  0.000645  1.983954  0.001  -0.864928  0.000284  1.951716  0.0  -0.624577  -0.828999  0.000692  2.007228  0.001
O  O84  1  0.79526320  0.99481726  0.97536475  1  -0.865381  -8.5e-05  1.889434  0.0  -0.804073  -9.3e-05  2.065387  0.0  -0.825932  -7.6e-05  2.035565  0.0  -0.58991  -0.788191  -9.2e-05  2.086017  0.0
O  O85  1  0.20473824  0.00518186  0.02463500  1  -0.865462  -8.4e-05  1.889432  0.0  -0.804157  -9.6e-05  2.065409  0.0  -0.826015  -7.4e-05  2.035584  0.0  -0.589954  -0.788272  -9.2e-05  2.08604  0.0
O  O86  1  0.37385853  0.60280494  0.75727483  1  -0.895443  0.000168  1.805214  0.0  -0.844821  0.000116  1.991231  0.0  -0.866516  3.3e-05  1.960391  0.0  -0.63687  -0.828811  0.000321  2.013066  0.0
O  O87  1  0.62613813  0.39719745  0.24272151  1  -0.895389  0.000168  1.805296  0.0  -0.844813  0.000116  1.991257  0.0  -0.866484  3.5e-05  1.960478  0.0  -0.636868  -0.828821  0.000321  2.013067  0.0
O  O88  1  0.25037707  0.78802725  0.88644614  1  -0.877271  0.000219  1.79719  0.0  -0.826088  0.000299  1.970545  0.0  -0.845704  0.000188  1.939297  0.0  -0.615684  -0.812004  0.00042  1.993355  0.0
O  O89  1  0.74962008  0.21196054  0.11356211  1  -0.877344  0.000219  1.797196  0.0  -0.826149  0.000296  1.970486  0.0  -0.84577  0.000188  1.939229  0.0  -0.615639  -0.812064  0.00042  1.993301  0.0
O  O90  1  0.66453796  0.63295235  0.94989144  1  -0.870659  0.00027  1.785966  0.0  -0.817696  0.000321  1.956467  0.0  -0.837683  0.000197  1.926315  0.0  -0.615171  -0.803197  0.000461  1.977872  0.0
O  O91  1  0.33546508  0.36705246  0.05010641  1  -0.870753  0.00027  1.785934  0.0  -0.817783  0.00032  1.956411  0.0  -0.837769  0.000198  1.926254  0.0  -0.615199  -0.80329  0.000461  1.977808  0.0
