# generated using pymatgen
data_Sm6CoH36C20S6(N4O27)2
_symmetry_space_group_name_H-M   'P 1'
_cell_length_a   6.57060237
_cell_length_b   9.41325061
_cell_length_c   21.61900000
_cell_angle_alpha   97.14026568
_cell_angle_beta   94.43713358
_cell_angle_gamma   97.99093997
_symmetry_Int_Tables_number   1
_chemical_formula_structural   Sm6CoH36C20S6(N4O27)2
_chemical_formula_sum   'Sm6 Co1 H36 C20 S6 N8 O54'
_cell_volume   1307.78902374
_cell_formula_units_Z   1
loop_
 _symmetry_equiv_pos_site_id
 _symmetry_equiv_pos_as_xyz
  1  'x, y, z'
loop_
 _atom_site_type_symbol
 _atom_site_label
 _atom_site_symmetry_multiplicity
 _atom_site_fract_x
 _atom_site_fract_y
 _atom_site_fract_z
 _atom_site_occupancy
 _atom_site_hse06_10hf_ddec_charge
 _atom_site_hse06_10hf_ddec_spin_density
 _atom_site_hse06_10hf_ddec_sum_bond_order
 _atom_site_hse06_10hf_magmom
 _atom_site_hse06_ddec_charge
 _atom_site_hse06_ddec_spin_density
 _atom_site_hse06_ddec_sum_bond_order
 _atom_site_hse06_magmom
 _atom_site_pbe_bader_charge
 _atom_site_pbe_bader_spin_density
 _atom_site_pbe_cm5_charge
 _atom_site_pbe_ddec_charge
 _atom_site_pbe_ddec_spin_density
 _atom_site_pbe_ddec_sum_bond_order
 _atom_site_pbe_magmom
Sm  Sm0  1  0.35257016  0.00690150  0.86292609  1  2.285224  -0.000209  1.966926  0.0  2.325361  -0.0001  1.925535  0.0  2.262955  -0.000247  1.538015  2.255271  -0.000346  1.995673  0.0
Sm  Sm1  1  0.64742799  0.99309999  0.13707172  1  2.285198  -0.000209  1.966842  0.0  2.325334  -0.000103  1.92545  0.0  2.262827  -0.000247  1.538019  2.255237  -0.000346  1.995584  0.0
Sm  Sm2  1  0.07694427  0.87460495  0.67976319  1  2.25762  -9e-06  1.852323  0.0  2.299163  -1e-06  1.812938  0.0  2.23752  -2.4e-05  1.503287  2.163037  -2.8e-05  2.000037  0.0
Sm  Sm3  1  0.92305763  0.12539979  0.32023582  1  2.257613  -1e-05  1.852305  0.0  2.299161  -1e-06  1.81292  0.0  2.237489  -2.6e-05  1.503283  2.16303  -2.9e-05  2.000029  0.0
Sm  Sm4  1  0.33781584  0.28738953  0.57763059  1  2.245988  0.0  1.943485  0.0  2.284145  -1e-06  1.905264  0.0  2.243608  4e-06  1.542416  2.217683  3e-06  1.970798  0.0
Sm  Sm5  1  0.66218864  0.71261303  0.42237113  1  2.246001  2e-06  1.94347  0.0  2.284167  -5e-06  1.905251  0.0  2.243609  4e-06  1.542434  2.217694  3e-06  1.970781  0.0
Co  Co6  1  0.99999997  0.49999749  0.99999959  1  0.73404  1.013451  2.84405  0.951  0.803136  1.007838  2.76765  0.955  1.131058  0.956013  0.632655  0.695652  1.020205  2.889969  0.948
H  H7  1  0.57878744  0.61901125  0.69301061  1  0.11901  0.0  1.011056  0.0  0.122062  0.0  1.007529  0.0  0.197293  -0.0  0.149911  0.1164  0.0  1.014237  0.0
H  H8  1  0.42122080  0.38099456  0.30699231  1  0.11899  0.0  1.011067  0.0  0.12204  0.0  1.007543  0.0  0.197331  -1e-06  0.149903  0.116378  -0.0  1.014246  0.0
H  H9  1  0.83656362  0.26786543  0.85831736  1  0.132115  -0.000116  0.999894  0.0  0.135511  -7.2e-05  0.995863  0.0  0.221514  2e-06  0.151659  0.129408  -0.000149  1.00313  0.0
H  H10  1  0.16343018  0.73213714  0.14168227  1  0.132054  -0.000117  0.999968  0.0  0.135463  -7.2e-05  0.995915  0.0  0.221506  1e-06  0.151655  0.12935  -0.000149  1.003195  0.0
H  H11  1  0.57367614  0.63631752  0.81171920  1  0.312798  -1e-06  0.939376  0.0  0.321811  1e-06  0.932038  0.0  0.537195  -3e-06  0.32263  0.306389  -4e-06  0.94477  0.0
H  H12  1  0.42632789  0.36368288  0.18828378  1  0.312785  -1e-06  0.939395  0.0  0.321796  1e-06  0.932058  0.0  0.537223  -3e-06  0.322635  0.306373  -4e-06  0.944791  0.0
H  H13  1  0.91741139  0.38093717  0.76055373  1  0.328152  -1.5e-05  0.940524  0.0  0.336633  -1.3e-05  0.93355  0.0  0.584843  -8e-06  0.326616  0.322109  -2e-05  0.945713  0.0
H  H14  1  0.08258630  0.61906215  0.23944489  1  0.328141  -1.5e-05  0.940608  0.0  0.336621  -1.3e-05  0.933634  0.0  0.584862  -8e-06  0.326621  0.322102  -2e-05  0.945785  0.0
H  H15  1  0.10086677  0.51863901  0.64426296  1  0.417445  -2e-06  0.907054  0.0  0.427361  -1e-06  0.892356  0.0  0.63694  -5e-06  0.311483  0.410755  -7e-06  0.916779  0.0
H  H16  1  0.89912740  0.48135814  0.35573731  1  0.417427  -2e-06  0.907083  0.0  0.427344  -0.0  0.892382  0.0  0.636978  -5e-06  0.311461  0.41074  -7e-06  0.916803  0.0
H  H17  1  0.04787169  0.50228789  0.57142004  1  0.42157  -0.0  0.880204  0.0  0.430457  0.0  0.869072  0.0  0.608581  1e-06  0.320918  0.415166  1e-06  0.888001  0.0
H  H18  1  0.95212377  0.49770818  0.42857973  1  0.421581  0.0  0.880202  0.0  0.430468  -0.0  0.86906  0.0  0.608609  1e-06  0.320917  0.415173  1e-06  0.888005  0.0
H  H19  1  0.19925882  0.96349491  0.52966897  1  0.425591  -0.0  0.892757  0.0  0.436088  -0.0  0.877381  0.0  0.655785  1e-06  0.311615  0.417933  1e-06  0.903914  0.0
H  H20  1  0.80073993  0.03650225  0.47033094  1  0.425607  -0.0  0.892745  0.0  0.436105  -0.0  0.877369  0.0  0.65574  1e-06  0.31162  0.417948  1e-06  0.903903  0.0
H  H21  1  0.31243762  0.02630215  0.47479154  1  0.425014  -0.0  0.880105  0.0  0.434128  -0.0  0.866528  0.0  0.632005  1e-06  0.323809  0.418109  1e-06  0.890545  0.0
H  H22  1  0.68756922  0.97369717  0.52520683  1  0.424948  -0.0  0.880173  0.0  0.434058  0.0  0.866607  0.0  0.632049  1e-06  0.323791  0.418038  1e-06  0.89062  0.0
H  H23  1  0.29316249  0.77116910  0.56351339  1  0.434704  -0.0  0.8773  0.0  0.445033  -0.0  0.862221  0.0  0.65372  1e-06  0.315292  0.427238  1e-06  0.888056  0.0
H  H24  1  0.70684001  0.22883130  0.43648585  1  0.434709  0.0  0.877303  0.0  0.445039  -0.0  0.862222  0.0  0.653776  1e-06  0.315282  0.427243  0.0  0.888059  0.0
H  H25  1  0.04997697  0.74804101  0.54481359  1  0.41125  -0.0  0.921032  0.0  0.421998  -0.0  0.905273  0.0  0.651606  1e-06  0.311967  0.40375  1e-06  0.931739  0.0
H  H26  1  0.95002248  0.25195939  0.45518651  1  0.41129  0.0  0.920978  0.0  0.422035  0.0  0.905223  0.0  0.651597  1e-06  0.311965  0.403787  1e-06  0.931692  0.0
H  H27  1  0.55924535  0.86067416  0.70906848  1  0.415643  0.0  0.910672  0.0  0.425923  -0.0  0.895493  0.0  0.638131  -1e-06  0.313051  0.408002  -0.0  0.921793  0.0
H  H28  1  0.44075233  0.13932515  0.29093059  1  0.415614  0.0  0.910699  0.0  0.425892  0.0  0.895525  0.0  0.638085  -1e-06  0.313033  0.407974  -1e-06  0.921818  0.0
H  H29  1  0.52375380  0.92760668  0.64926429  1  0.438663  -1e-06  0.852073  0.0  0.447678  -0.0  0.841846  0.0  0.64334  -0.0  0.32911  0.431789  -0.0  0.859482  0.0
H  H30  1  0.47624481  0.07239697  0.35073597  1  0.43863  -0.0  0.852139  0.0  0.447644  -0.0  0.841911  0.0  0.643343  -1e-06  0.329128  0.431755  -0.0  0.859539  0.0
H  H31  1  0.05214050  0.07419355  0.95326775  1  0.411604  -5e-06  0.892503  0.0  0.420565  -7e-06  0.88115  0.0  0.654861  2.9e-05  0.317695  0.405058  -4e-06  0.900466  0.0
H  H32  1  0.94786177  0.92580577  0.04673190  1  0.411584  -5e-06  0.892534  0.0  0.420545  -7e-06  0.881181  0.0  0.654856  2.9e-05  0.317679  0.405036  -5e-06  0.900497  0.0
H  H33  1  0.22996904  0.20547363  0.97983335  1  0.415896  3.5e-05  0.909605  0.0  0.426976  -2.2e-05  0.893644  0.0  0.646265  0.000256  0.298405  0.408095  8.1e-05  0.920811  0.0
H  H34  1  0.77003475  0.79452569  0.02016726  1  0.41587  3.5e-05  0.909636  0.0  0.42695  -2.2e-05  0.893675  0.0  0.64623  0.000257  0.298394  0.408067  8.1e-05  0.920845  0.0
H  H35  1  0.68988580  0.16561323  0.96464455  1  0.408786  3.4e-05  0.920818  0.0  0.420142  2e-05  0.904193  0.0  0.661266  6.7e-05  0.304849  0.400776  6.7e-05  0.932533  0.0
H  H36  1  0.31011364  0.83438718  0.03535509  1  0.408811  3.4e-05  0.920771  0.0  0.420166  2e-05  0.904147  0.0  0.661274  6.7e-05  0.304862  0.400797  6.7e-05  0.932491  0.0
H  H37  1  0.67768198  0.00115657  0.97430517  1  0.426062  -6e-06  0.889506  0.0  0.436463  -3e-06  0.873967  0.0  0.645508  -3e-06  0.31016  0.418597  -5e-06  0.900702  0.0
H  H38  1  0.32231594  0.99884383  0.02569490  1  0.426035  -6e-06  0.889543  0.0  0.436437  -3e-06  0.874002  0.0  0.645514  -3e-06  0.31015  0.418567  -5e-06  0.900743  0.0
H  H39  1  0.64737887  0.58153329  0.03494715  1  0.377589  -0.000227  0.966142  0.0  0.388817  -0.000318  0.951778  0.0  0.636042  -0.00012  0.299637  0.369787  -0.000127  0.974744  0.0
H  H40  1  0.35262469  0.41846495  0.96505339  1  0.377603  -0.000227  0.966092  0.0  0.388827  -0.000318  0.95176  0.0  0.636043  -0.00012  0.299616  0.369801  -0.000128  0.974691  0.0
H  H41  1  0.63362550  0.58092252  0.96129361  1  0.402504  -0.000139  0.929464  0.0  0.412864  -0.000241  0.914508  0.0  0.643814  9e-06  0.303141  0.395394  -3.5e-05  0.939698  0.0
H  H42  1  0.36637630  0.41907463  0.03870776  1  0.402492  -0.000139  0.929477  0.0  0.412856  -0.000241  0.914514  0.0  0.643793  9e-06  0.303124  0.395386  -3.5e-05  0.939705  0.0
C  C43  1  0.29904903  0.16725494  0.72123665  1  0.657142  -1.6e-05  4.161844  0.0  0.694007  -5e-06  4.146551  0.0  1.598288  -2.9e-05  0.228844  0.632453  -3.2e-05  4.16619  0.0
C  C44  1  0.70094888  0.83274546  0.27876296  1  0.657273  -1.4e-05  4.161704  0.0  0.694139  -5e-06  4.146407  0.0  1.598438  -3e-05  0.228898  0.632567  -3.3e-05  4.166035  0.0
C  C45  1  0.39712214  0.31845873  0.73957565  1  0.031485  -7.5e-05  3.949972  0.0  0.029329  -4.9e-05  3.967766  0.0  0.435858  -0.00013  0.101002  0.032507  -0.000136  3.939095  0.0
C  C46  1  0.60287295  0.68154275  0.26042579  1  0.031397  -7.5e-05  3.94988  0.0  0.029221  -4.9e-05  3.967708  0.0  0.435699  -0.000124  0.10094  0.03249  -0.00013  3.938891  0.0
C  C47  1  0.45016936  0.40820096  0.79660277  1  -0.00717  4e-06  3.925277  0.0  -0.007814  1.1e-05  3.943561  0.0  0.372015  4.1e-05  0.095968  -0.006596  -8e-06  3.91306  0.0
C  C48  1  0.54982856  0.59179945  0.20339868  1  -0.007145  4e-06  3.925363  0.0  -0.007789  1.1e-05  3.94365  0.0  0.371859  4.7e-05  0.095992  -0.006594  -4e-06  3.913117  0.0
C  C49  1  0.43866769  0.38610598  0.86266970  1  0.621662  -9.7e-05  4.255468  0.0  0.655477  -8e-05  4.244937  0.0  1.629393  -7.9e-05  0.224327  0.598817  -0.000136  4.262  0.0
C  C50  1  0.56132648  0.61389117  0.13733103  1  0.621599  -9.7e-05  4.255464  0.0  0.655416  -8e-05  4.244931  0.0  1.6293  -7.9e-05  0.224318  0.598756  -0.000136  4.261988  0.0
C  C51  1  0.52125733  0.53091725  0.71787348  1  0.236576  -2.5e-05  3.856306  0.0  0.251309  -1.8e-05  3.86501  0.0  1.043892  -2.9e-05  0.178338  0.22693  -3.8e-05  3.851108  0.0
C  C52  1  0.47874892  0.46908640  0.28212881  1  0.236628  -2.7e-05  3.856459  0.0  0.25136  -1.8e-05  3.865163  0.0  1.043809  -2.4e-05  0.178325  0.226973  -3.2e-05  3.851277  0.0
C  C53  1  0.18084546  0.71052840  0.93528555  1  0.638692  -0.004814  4.141598  -0.003  0.67908  -0.002461  4.126639  -0.001  1.55662  -0.006857  0.236058  0.609136  -0.008328  4.153831  -0.005
C  C54  1  0.81915916  0.28946767  0.06471444  1  0.638681  -0.004813  4.141762  -0.003  0.67907  -0.002461  4.126805  -0.001  1.556545  -0.006856  0.236113  0.609121  -0.008326  4.153992  -0.005
C  C55  1  0.06862101  0.59983260  0.88669551  1  -0.003179  -0.004085  3.969238  -0.002  -0.001827  -0.002912  3.984777  -0.002  0.411267  -0.004859  0.09212  -0.004712  -0.005377  3.96084  -0.003
C  C56  1  0.93138560  0.40016563  0.11330418  1  -0.003218  -0.004083  3.969163  -0.002  -0.001863  -0.002913  3.984701  -0.002  0.41131  -0.004856  0.092096  -0.004742  -0.005374  3.960755  -0.003
C  C57  1  0.05095916  0.57659406  0.82140949  1  0.015284  -0.000681  3.880677  0.0  0.014366  -8e-05  3.896775  0.0  0.437305  -0.001557  0.098506  0.015264  -0.001781  3.871313  -0.001
C  C58  1  0.94903899  0.42340743  0.17859064  1  0.015318  -0.000681  3.880718  0.0  0.014396  -8e-05  3.896819  0.0  0.437262  -0.001554  0.098548  0.015308  -0.001778  3.871341  -0.001
C  C59  1  0.10805300  0.66807438  0.77268336  1  0.622645  -0.000435  4.239458  0.0  0.65798  -0.000137  4.227043  0.0  1.624016  -0.000926  0.216968  0.599087  -0.001067  4.241952  0.0
C  C60  1  0.89194690  0.33192819  0.22731686  1  0.622776  -0.000433  4.239317  0.0  0.658113  -0.000137  4.226899  0.0  1.624115  -0.000925  0.217058  0.599219  -0.001067  4.241807  0.0
C  C61  1  0.91265962  0.37822335  0.85883715  1  0.19958  -0.004839  3.808448  -0.003  0.217157  -0.00379  3.816154  -0.002  0.980102  -0.004972  0.170269  0.187867  -0.005538  3.804054  -0.003
C  C62  1  0.08733829  0.62177705  0.14116246  1  0.199622  -0.004839  3.808508  -0.003  0.21719  -0.003788  3.816214  -0.002  0.980214  -0.004969  0.170269  0.187917  -0.005535  3.804103  -0.003
S  S63  1  0.67827999  0.64029403  0.56431213  1  1.526211  2e-06  6.336963  0.0  1.58223  -2e-06  6.298553  0.0  3.835122  2e-06  0.594958  1.486939  2e-06  6.361396  0.0
S  S64  1  0.32171816  0.35970745  0.43568800  1  1.526108  2e-06  6.337249  0.0  1.582122  -2e-06  6.298839  0.0  3.834993  2e-06  0.594929  1.486839  2e-06  6.361679  0.0
S  S65  1  0.83487805  0.17452139  0.62875287  1  1.576694  -6e-06  6.304409  0.0  1.633202  -2e-06  6.263594  0.0  3.859862  2e-06  0.602163  1.537001  -0.0  6.330287  0.0
S  S66  1  0.16512621  0.82548010  0.37124555  1  1.5768  -5e-06  6.303895  0.0  1.633304  -3e-06  6.263075  0.0  3.859605  2e-06  0.602183  1.537104  -0.0  6.329767  0.0
S  S67  1  0.77496864  0.93860598  0.81606023  1  1.512709  -1.2e-05  6.356753  0.0  1.568423  -5e-06  6.317873  0.0  3.826333  -1e-05  0.57585  1.47394  -2.3e-05  6.380365  0.0
S  S68  1  0.22503080  0.06139442  0.18393803  1  1.512403  -1.4e-05  6.356917  0.0  1.56812  -4e-06  6.318044  0.0  3.826266  -1.1e-05  0.575689  1.473634  -2.4e-05  6.38052  0.0
N  N69  1  0.44142896  0.39767057  0.69150983  1  -0.437944  -1.6e-05  3.465519  0.0  -0.453047  -3e-06  3.481232  0.0  -1.208792  -4.4e-05  -0.409632  -0.428236  -4.1e-05  3.455737  0.0
N  N70  1  0.55857247  0.60233200  0.30849275  1  -0.438006  -1.5e-05  3.465473  0.0  -0.453103  -3e-06  3.481187  0.0  -1.208604  -4.4e-05  -0.40965  -0.428323  -4.2e-05  3.455667  0.0
N  N71  1  0.52646490  0.54168047  0.78097218  1  -0.236853  -2.5e-05  3.642163  0.0  -0.253295  -8e-06  3.65691  0.0  -1.295277  -6.2e-05  -0.360922  -0.225767  -6.4e-05  3.632425  0.0
N  N72  1  0.47354042  0.45831885  0.21903031  1  -0.236773  -2.4e-05  3.64222  0.0  -0.253208  -8e-06  3.656962  0.0  -1.295244  -6.3e-05  -0.360898  -0.225702  -6.5e-05  3.632498  0.0
N  N73  1  0.97984523  0.47688673  0.90903209  1  -0.292138  -0.005684  3.598323  -0.004  -0.317533  -0.005258  3.611069  -0.003  -1.176489  -0.006017  -0.349296  -0.277134  -0.005567  3.590656  -0.004
N  N74  1  0.02015375  0.52311150  0.09096788  1  -0.292104  -0.005685  3.598359  -0.004  -0.317501  -0.005259  3.611111  -0.003  -1.176491  -0.006017  -0.349273  -0.277104  -0.005567  3.59069  -0.004
N  N75  1  0.95217527  0.43574631  0.80584313  1  -0.230051  -0.000466  3.620752  0.0  -0.246525  -0.000308  3.635956  0.0  -1.277653  -0.001017  -0.349962  -0.219341  -0.00076  3.611257  0.0
N  N76  1  0.04782265  0.56425410  0.19415601  1  -0.230061  -0.000465  3.620902  0.0  -0.246533  -0.000308  3.636111  0.0  -1.277765  -0.001017  -0.349954  -0.219348  -0.00076  3.611396  0.0
O  O77  1  0.83556704  0.62936513  0.51687272  1  -0.756577  1e-06  2.227874  0.0  -0.778277  -1e-06  2.209021  0.0  -1.325268  2e-06  -0.394434  -0.741348  -1e-06  2.240673  0.0
O  O78  1  0.16443041  0.37063311  0.48312676  1  -0.756548  -2e-06  2.227854  0.0  -0.778217  0.0  2.20898  0.0  -1.325353  2e-06  -0.394438  -0.741325  -1e-06  2.240657  0.0
O  O79  1  0.58738138  0.49409229  0.57389901  1  -0.758664  -0.0  2.344258  0.0  -0.779596  -0.0  2.325138  0.0  -1.362032  2e-06  -0.41967  -0.744098  0.0  2.357896  0.0
O  O80  1  0.41262417  0.50590811  0.42610308  1  -0.758721  -2e-06  2.344471  0.0  -0.779653  1e-06  2.325353  0.0  -1.361866  2e-06  -0.419692  -0.744148  0.0  2.358101  0.0
O  O81  1  0.78532190  0.71735517  0.62435742  1  -0.760099  -8e-06  2.344137  0.0  -0.781927  0.0  2.325805  0.0  -1.360104  -5e-06  -0.427366  -0.736057  -6e-06  2.357925  0.0
O  O82  1  0.21467260  0.28265064  0.37564332  1  -0.760051  -6e-06  2.344212  0.0  -0.781883  -0.0  2.325883  0.0  -1.360123  -6e-06  -0.427322  -0.736002  -6e-06  2.357998  0.0
O  O83  1  0.52290097  0.72265286  0.53748710  1  -0.714506  -0.0  2.199286  0.0  -0.735827  -1e-06  2.181352  0.0  -1.344279  3e-06  -0.352136  -0.699764  0.0  2.212497  0.0
O  O84  1  0.47709648  0.27734538  0.46251052  1  -0.714481  1e-06  2.199376  0.0  -0.735794  -4e-06  2.181422  0.0  -1.344316  3e-06  -0.352156  -0.699741  0.0  2.212585  0.0
O  O85  1  0.98323585  0.21283646  0.58280100  1  -0.786548  -3e-06  2.320545  0.0  -0.808812  -1e-06  2.302407  0.0  -1.357708  -1e-06  -0.445803  -0.770595  -3e-06  2.332805  0.0
O  O86  1  0.01676618  0.78716178  0.41719627  1  -0.786617  -4e-06  2.320445  0.0  -0.808881  -1e-06  2.30231  0.0  -1.357583  -2e-06  -0.445846  -0.770674  -3e-06  2.332713  0.0
O  O87  1  0.84449187  0.02151994  0.64143324  1  -0.813538  -1e-06  2.269643  0.0  -0.835236  -3e-06  2.249992  0.0  -1.345617  0.0  -0.449881  -0.788729  0.0  2.284588  0.0
O  O88  1  0.15550499  0.97848263  0.35856738  1  -0.813583  1e-06  2.269596  0.0  -0.835272  -4e-06  2.249931  0.0  -1.345674  -0.0  -0.449894  -0.788794  0.0  2.284579  0.0
O  O89  1  0.87474335  0.27561270  0.68693028  1  -0.668034  -0.0  2.171559  0.0  -0.68819  -4e-06  2.154623  0.0  -1.366677  -1.3e-05  -0.339113  -0.653725  -7e-06  2.183261  0.0
O  O90  1  0.12527488  0.72438987  0.31306760  1  -0.667992  -2e-06  2.17133  0.0  -0.688143  -1e-06  2.154396  0.0  -1.366697  -1.4e-05  -0.339102  -0.653695  -8e-06  2.18306  0.0
O  O91  1  0.62408343  0.17076146  0.59693208  1  -0.80688  -0.0  2.307284  0.0  -0.827697  1e-06  2.285847  0.0  -1.363259  1e-06  -0.455523  -0.792404  -1e-06  2.322899  0.0
O  O92  1  0.37592069  0.82924652  0.40306901  1  -0.806907  -2e-06  2.307119  0.0  -0.827736  1e-06  2.28571  0.0  -1.363112  0.0  -0.45553  -0.792434  -1e-06  2.322738  0.0
O  O93  1  0.27193750  0.12142436  0.66260137  1  -0.717742  -8e-06  2.379723  0.0  -0.742515  -5e-06  2.369854  0.0  -1.182885  -1.9e-05  -0.379169  -0.694155  -1.8e-05  2.385099  0.0
O  O94  1  0.72805760  0.87857713  0.33739777  1  -0.717795  -1.1e-05  2.379662  0.0  -0.742579  -4e-06  2.369824  0.0  -1.183041  -1.9e-05  -0.379134  -0.694215  -1.8e-05  2.385048  0.0
O  O95  1  0.23554130  0.08295985  0.76030722  1  -0.766611  -1.7e-05  2.383  0.0  -0.789833  -7e-06  2.369894  0.0  -1.206736  -3.6e-05  -0.419319  -0.743316  -3.2e-05  2.390893  0.0
O  O96  1  0.76444829  0.91703731  0.23969155  1  -0.766697  -1.7e-05  2.383025  0.0  -0.789923  -8e-06  2.369927  0.0  -1.206735  -3.6e-05  -0.419384  -0.743409  -3.2e-05  2.390922  0.0
O  O97  1  0.40160569  0.25830968  0.87604040  1  -0.696984  0.000132  2.344531  0.0  -0.720379  7.9e-05  2.332338  0.0  -1.203573  0.000389  -0.4203  -0.680748  0.000164  2.352996  0.0
O  O98  1  0.59839213  0.74168315  0.12395879  1  -0.696968  0.000132  2.344411  0.0  -0.720363  7.9e-05  2.33222  0.0  -1.203306  0.000389  -0.420305  -0.680738  0.000165  2.352874  0.0
O  O99  1  0.46434317  0.49892215  0.90305700  1  -0.565943  -2.4e-05  2.226428  0.0  -0.590373  -6.7e-05  2.217764  0.0  -1.18499  0.00049  -0.304107  -0.549261  2.7e-05  2.23227  0.0
O  O100  1  0.53564961  0.50106851  0.09694520  1  -0.565947  -2.4e-05  2.226451  0.0  -0.59038  -6.7e-05  2.217776  0.0  -1.185023  0.000491  -0.304134  -0.549278  2.8e-05  2.232296  0.0
O  O101  1  0.28771389  0.82379181  0.92452879  1  -0.641631  -0.003932  2.356562  -0.003  -0.664957  -0.002318  2.342599  -0.002  -1.194872  -0.00584  -0.3993  -0.625848  -0.005917  2.366922  -0.005
O  O102  1  0.71229753  0.17620751  0.07547015  1  -0.641582  -0.003932  2.356811  -0.003  -0.664908  -0.002317  2.342845  -0.002  -1.194816  -0.005839  -0.399295  -0.625796  -0.005916  2.367171  -0.005
O  O103  1  0.16926565  0.67868382  0.99194976  1  -0.511012  -0.004455  2.368195  -0.003  -0.549819  -0.004985  2.354734  -0.004  -1.087648  -0.002189  -0.289977  -0.48482  -0.002623  2.376797  -0.001
O  O104  1  0.83073767  0.32131333  0.00804979  1  -0.511035  -0.004456  2.368301  -0.003  -0.549838  -0.004987  2.354818  -0.004  -1.08755  -0.002189  -0.290047  -0.484848  -0.002623  2.376906  -0.001
O  O105  1  0.21034284  0.79590750  0.78702073  1  -0.774177  -0.00014  2.429521  0.0  -0.798734  -2e-06  2.418877  0.0  -1.209987  -0.000453  -0.419406  -0.75131  -0.000426  2.434956  0.0
O  O106  1  0.78965730  0.20409615  0.21297910  1  -0.774204  -0.00014  2.429426  0.0  -0.798763  -2e-06  2.418786  0.0  -1.210013  -0.000453  -0.419414  -0.751327  -0.000426  2.434843  0.0
O  O107  1  0.04636691  0.61981045  0.71587136  1  -0.625079  -0.000412  2.245942  0.0  -0.647331  -0.000162  2.234556  0.0  -1.186481  -0.00083  -0.339141  -0.603717  -0.000831  2.252798  -0.001
O  O108  1  0.95362971  0.38019103  0.28412920  1  -0.625152  -0.000412  2.245882  0.0  -0.647403  -0.000162  2.234492  0.0  -1.186534  -0.000831  -0.339183  -0.603787  -0.00083  2.25274  -0.001
O  O109  1  0.66377347  0.06457498  0.80917047  1  -0.749829  1e-05  2.222784  0.0  -0.771072  9e-06  2.206409  0.0  -1.338023  -2.4e-05  -0.410151  -0.73486  -3e-06  2.233733  0.0
O  O110  1  0.33622269  0.93542434  0.19082811  1  -0.749722  7e-06  2.222801  0.0  -0.770948  9e-06  2.20639  0.0  -1.337927  -2.5e-05  -0.41013  -0.734758  -3e-06  2.233747  0.0
O  O111  1  0.63600137  0.83264908  0.84534615  1  -0.718858  -4.9e-05  2.185256  0.0  -0.739152  -2e-05  2.168841  0.0  -1.341505  -6.1e-05  -0.374175  -0.704819  -7.9e-05  2.19688  0.0
O  O112  1  0.36399913  0.16734916  0.15465062  1  -0.718741  -4.5e-05  2.185212  0.0  -0.739038  -2.1e-05  2.1688  0.0  -1.341503  -6.2e-05  -0.374124  -0.704709  -7.9e-05  2.196835  0.0
O  O113  1  0.80860095  0.86863802  0.75199899  1  -0.770616  -5e-06  2.300338  0.0  -0.792938  -1e-06  2.282508  0.0  -1.355876  -1.6e-05  -0.411467  -0.746561  -1.2e-05  2.312947  0.0
O  O114  1  0.19139544  0.13136239  0.24799965  1  -0.770518  -3e-06  2.300223  0.0  -0.792838  -1e-06  2.282388  0.0  -1.355818  -1.6e-05  -0.411441  -0.746465  -1.2e-05  2.312831  0.0
O  O115  1  0.97495007  0.98583679  0.85427756  1  -0.769753  -3.1e-05  2.322486  0.0  -0.790619  -1.6e-05  2.303121  0.0  -1.362937  -3.8e-05  -0.406598  -0.754581  -5.7e-05  2.33456  0.0
O  O116  1  0.02504854  0.01416686  0.14571993  1  -0.769665  -2.9e-05  2.322453  0.0  -0.790538  -1.5e-05  2.303097  0.0  -1.363003  -3.9e-05  -0.40655  -0.754497  -5.7e-05  2.33452  0.0
O  O117  1  0.16091705  0.50557999  0.60394499  1  -0.866432  -5e-06  2.08573  0.0  -0.882647  -1e-06  2.058107  0.0  -1.215726  -1.1e-05  -0.617843  -0.853754  -1.2e-05  2.103027  0.0
O  O118  1  0.83907804  0.49442150  0.39605506  1  -0.866427  -5e-06  2.085734  0.0  -0.882639  -1e-06  2.058098  0.0  -1.215802  -1.2e-05  -0.617827  -0.853748  -1.2e-05  2.10303  0.0
O  O119  1  0.24892652  0.05423194  0.51283097  1  -0.866861  -0.0  2.057451  0.0  -0.882829  -0.0  2.025174  0.0  -1.266675  3e-06  -0.646135  -0.855691  -0.0  2.081231  0.0
O  O120  1  0.75109031  0.94576413  0.48717023  1  -0.866719  -0.0  2.05747  0.0  -0.882688  -1e-06  2.025191  0.0  -1.266696  3e-06  -0.646109  -0.85555  -1e-06  2.081255  0.0
O  O121  1  0.16566721  0.81525726  0.57058750  1  -0.854023  -0.0  2.058218  0.0  -0.873609  -1e-06  2.025375  0.0  -1.276025  2e-06  -0.609926  -0.831602  -1e-06  2.083923  0.0
O  O122  1  0.83433307  0.18473990  0.42941290  1  -0.854089  -0.0  2.058116  0.0  -0.873701  -1e-06  2.025323  0.0  -1.275995  1e-06  -0.609915  -0.831661  -1e-06  2.083816  0.0
O  O123  1  0.44754514  0.86903437  0.67687230  1  -0.867501  -1e-06  2.062558  0.0  -0.884132  0.0  2.033663  0.0  -1.258037  -6e-06  -0.632767  -0.847187  -4e-06  2.087111  0.0
O  O124  1  0.55245254  0.13096495  0.32312678  1  -0.867423  -1e-06  2.062646  0.0  -0.88405  -0.0  2.03375  0.0  -1.258019  -7e-06  -0.632769  -0.847112  -4e-06  2.087196  0.0
O  O125  1  0.20045143  0.09733246  0.96608498  1  -0.835814  0.000138  2.040362  0.0  -0.854482  8.3e-05  2.010606  0.0  -1.283995  0.0005  -0.599084  -0.822473  0.000193  2.06089  0.0
O  O126  1  0.79955084  0.90266685  0.03391374  1  -0.835771  0.000138  2.040412  0.0  -0.854441  8.3e-05  2.010661  0.0  -1.28405  0.0005  -0.59905  -0.822425  0.000193  2.060927  0.0
O  O127  1  0.63958825  0.06558319  0.94389203  1  -0.893574  -8.7e-05  2.091638  0.0  -0.911621  -7.4e-05  2.057745  0.0  -1.293135  -3.7e-05  -0.653224  -0.880798  -6.4e-05  2.115561  0.0
O  O128  1  0.36040837  0.93441830  0.05610853  1  -0.893543  -8.8e-05  2.091604  0.0  -0.911589  -7.4e-05  2.057708  0.0  -1.293088  -3.8e-05  -0.65323  -0.880763  -6.4e-05  2.115531  0.0
O  O129  1  0.72343272  0.61934480  0.00074310  1  -0.754349  0.024102  2.176771  0.04  -0.780703  0.019446  2.14513  0.033  -1.235986  0.056694  -0.551518  -0.734507  0.029001  2.196138  0.047
O  O130  1  0.27657297  0.38064911  0.99925773  1  -0.754367  0.024102  2.176683  0.04  -0.780723  0.019445  2.14507  0.033  -1.236075  0.056696  -0.551479  -0.734519  0.029001  2.196033  0.047
