# generated using pymatgen
data_DyH4C12(O4F3)2
_symmetry_space_group_name_H-M   'P 1'
_cell_length_a   8.81751614
_cell_length_b   8.82010270
_cell_length_c   11.11273465
_cell_angle_alpha   107.69518481
_cell_angle_beta   109.78582000
_cell_angle_gamma   100.94385339
_symmetry_Int_Tables_number   1
_chemical_formula_structural   DyH4C12(O4F3)2
_chemical_formula_sum   'Dy2 H8 C24 O16 F12'
_cell_volume   732.28208967
_cell_formula_units_Z   2
loop_
 _symmetry_equiv_pos_site_id
 _symmetry_equiv_pos_as_xyz
  1  'x, y, z'
loop_
 _atom_site_type_symbol
 _atom_site_label
 _atom_site_symmetry_multiplicity
 _atom_site_fract_x
 _atom_site_fract_y
 _atom_site_fract_z
 _atom_site_occupancy
 _atom_site_hle17_bader_spin_density
 _atom_site_hle17_ddec_charge
 _atom_site_hle17_ddec_spin_density
 _atom_site_hle17_ddec_sum_bond_order
 _atom_site_hle17_magmom
 _atom_site_hse06_10hf_bader_spin_density
 _atom_site_hse06_10hf_ddec_charge
 _atom_site_hse06_10hf_ddec_spin_density
 _atom_site_hse06_10hf_ddec_sum_bond_order
 _atom_site_hse06_10hf_magmom
 _atom_site_hse06_bader_spin_density
 _atom_site_hse06_ddec_charge
 _atom_site_hse06_ddec_spin_density
 _atom_site_hse06_ddec_sum_bond_order
 _atom_site_hse06_magmom
 _atom_site_pbe_bader_spin_density
 _atom_site_pbe_cm5_charge
 _atom_site_pbe_ddec_charge
 _atom_site_pbe_ddec_spin_density
 _atom_site_pbe_ddec_sum_bond_order
 _atom_site_pbe_magmom
Dy  Dy0  1  0.87101129  0.66299622  0.53424122  1  0  2.274385  0  1.585867  0  0  2.130569  0  2.053443  0  0  2.258217  0  1.862988  0  0  1.508489  2.09481  0  2.08377  0
Dy  Dy1  1  0.12898862  0.33700373  0.46575939  1  0  2.274378  0  1.585875  0  0  2.130559  0  2.053451  0  0  2.258208  0  1.863  0  0  1.508475  2.094796  0  2.083782  0
H  H2  1  0.60506250  0.59406136  0.64092887  1  0  0.471914  0  0.796004  0  0  0.441998  0  0.859435  0  0  0.452876  0  0.843399  0  0  0.320066  0.434499  0  0.870611  0
H  H3  1  0.95328890  0.96468694  0.35914762  1  0  0.471471  0  0.79671  0  0  0.441454  0  0.859878  0  0  0.452319  0  0.843873  0  0  0.320495  0.433981  0  0.871003  0
H  H4  1  0.39493741  0.40593859  0.35907083  1  0  0.47191  0  0.796018  0  0  0.441999  0  0.859432  0  0  0.452876  0  0.843398  0  0  0.320062  0.434502  0  0.870603  0
H  H5  1  0.04670851  0.03530925  0.64085231  1  0  0.471515  0  0.796712  0  0  0.44149  0  0.859846  0  0  0.452355  0  0.843841  0  0  0.320513  0.434016  0  0.870972  0
H  H6  1  0.71680695  0.77647663  0.74465262  1  0  0.451745  0  0.792948  0  0  0.43195  0  0.847827  0  0  0.440615  0  0.838288  0  0  0.333079  0.42609  0  0.854462  0
H  H7  1  0.03200922  0.97219914  0.25527808  1  0  0.451606  0  0.792217  0  0  0.431681  0  0.847456  0  0  0.440356  0  0.838444  0  0  0.332896  0.425772  0  0.854178  0
H  H8  1  0.28319449  0.22352079  0.25534960  1  0  0.451782  0  0.792888  0  0  0.431977  0  0.847801  0  0  0.440646  0  0.838249  0  0  0.333064  0.426115  0  0.854445  0
H  H9  1  0.96798588  0.02780085  0.74472122  1  0  0.451607  0  0.792209  0  0  0.431689  0  0.847446  0  0  0.440366  0  0.838431  0  0  0.332874  0.425781  0  0.854166  0
C  C10  1  0.51721825  0.98012692  0.62102510  1  0  0.195771  0  3.808181  0  0  0.161772  0  4.109946  0  0  0.170913  0  4.117691  0  0  0.0898  0.155413  0  4.104672  0
C  C11  1  0.35906301  0.89642162  0.37892282  1  0  0.194459  0  3.807934  0  0  0.160478  0  4.11027  0  0  0.169597  0  4.118036  0  0  0.089431  0.154094  0  4.104942  0
C  C12  1  0.48278167  0.01987302  0.37897190  1  0  0.195771  0  3.808198  0  0  0.161781  0  4.109961  0  0  0.170922  0  4.117705  0  0  0.089766  0.155422  0  4.104685  0
C  C13  1  0.64093692  0.10357831  0.62107328  1  0  0.194504  0  3.807857  0  0  0.160523  0  4.110217  0  0  0.169642  0  4.117984  0  0  0.089462  0.154138  0  4.104891  0
C  C14  1  0.37344720  0.87359084  0.49995102  1  0  -0.185364  0  3.741083  0  0  -0.192795  0  4.005286  0  0  -0.195944  0  4.015195  0  0  -0.016307  -0.190427  0  3.997655  0
C  C15  1  0.62655393  0.12640909  0.50004721  1  0  -0.185357  0  3.741099  0  0  -0.192843  0  4.005377  0  0  -0.195992  0  4.015286  0  0  -0.016347  -0.190475  0  3.997744  0
C  C16  1  0.23899667  0.73919979  0.50005797  1  0  0.781111  0  3.819457  0  0  0.734815  0  4.109489  0  0  0.772524  0  4.097475  0  0  0.248925  0.709639  0  4.119671  0
C  C17  1  0.76100323  0.26080016  0.49994263  1  0  0.78109  0  3.819348  0  0  0.734828  0  4.109346  0  0  0.772536  0  4.097333  0  0  0.248908  0.709652  0  4.119529  0
C  C18  1  0.62898766  0.66482679  0.29430234  1  0  0.672115  0  3.915475  0  0  0.626011  0  4.216022  0  0  0.657586  0  4.218621  0  0  0.19371  0.603727  0  4.219752  0
C  C19  1  0.37101663  0.33517185  0.70569825  1  0  0.672111  0  3.915428  0  0  0.625991  0  4.215996  0  0  0.657569  0  4.218597  0  0  0.19368  0.603705  0  4.219728  0
C  C20  1  0.50434747  0.65232917  0.15714352  1  0  -0.234436  0  3.736104  0  0  -0.23904  0  4.008421  0  0  -0.248359  0  4.027917  0  0  -0.031575  -0.232572  0  3.99504  0
C  C21  1  0.49565528  0.34767201  0.84285635  1  0  -0.234451  0  3.736063  0  0  -0.239057  0  4.008415  0  0  -0.248366  0  4.027874  0  0  -0.031536  -0.232589  0  3.995035  0
C  C22  1  0.54739589  0.75217307  0.08834027  1  0  0.214174  0  3.771367  0  0  0.174116  0  4.08115  0  0  0.185042  0  4.089382  0  0  0.096249  0.166624  0  4.075566  0
C  C23  1  0.66422328  0.45955362  0.91162401  1  0  0.214011  0  3.772884  0  0  0.173778  0  4.084813  0  0  0.184718  0  4.093027  0  0  0.09559  0.1661  0  4.079399  0
C  C24  1  0.45260642  0.24782685  0.91166098  1  0  0.214151  0  3.771303  0  0  0.174156  0  4.081017  0  0  0.185082  0  4.089252  0  0  0.096244  0.166662  0  4.075435  0
C  C25  1  0.33578094  0.54044122  0.08837296  1  0  0.213948  0  3.772805  0  0  0.173818  0  4.084635  0  0  0.184757  0  4.092847  0  0  0.095649  0.166141  0  4.079222  0
C  C26  1  0.42973324  0.74377988  0.96350787  1  0  0.19787  0  3.788617  0  0  0.158356  0  4.097134  0  0  0.166882  0  4.103958  0  0  0.091192  0.152193  0  4.092653  0
C  C27  1  0.78067673  0.46681763  0.03649214  1  0  0.201391  0  3.78381  0  0  0.15858  0  4.096031  0  0  0.167113  0  4.102835  0  0  0.091235  0.152398  0  4.09165  0
C  C28  1  0.57026468  0.25622136  0.03649430  1  0  0.197809  0  3.788671  0  0  0.158252  0  4.097217  0  0  0.166786  0  4.104033  0  0  0.091154  0.15209  0  4.092738  0
C  C29  1  0.21932309  0.53317853  0.96350664  1  0  0.201444  0  3.783742  0  0  0.158564  0  4.096005  0  0  0.167089  0  4.102814  0  0  0.091186  0.15238  0  4.091626  0
C  C30  1  0.26213859  0.63651775  0.89918306  1  0  -0.17497  0  3.707966  0  0  -0.177788  0  3.970885  0  0  -0.179964  0  3.981335  0  0  -0.012689  -0.175999  0  3.963178  0
C  C31  1  0.73785968  0.36348096  0.10081770  1  0  -0.17487  0  3.707875  0  0  -0.177695  0  3.970804  0  0  -0.179881  0  3.981249  0  0  -0.012689  -0.17591  0  3.9631  0
C  C32  1  0.13217281  0.63559865  0.76821146  1  0  0.759005  0  3.839561  0  0  0.709274  0  4.135138  0  0  0.745439  0  4.12882  0  0  0.232634  0.684623  0  4.144189  0
C  C33  1  0.86782554  0.36440384  0.23178933  1  0  0.759  0  3.83944  0  0  0.709246  0  4.135055  0  0  0.745416  0  4.128731  0  0  0.232664  0.684597  0  4.144105  0
O  O34  1  0.12843453  0.78659920  0.53541365  1  0  -0.699871  0  2.022879  0  0  -0.655968  0  2.274575  0  0  -0.692316  0  2.259186  0  0  -0.382849  -0.637746  0  2.281947  0
O  O35  1  0.25114210  0.59335717  0.46477906  1  0  -0.700478  0  2.022501  0  0  -0.656599  0  2.274184  0  0  -0.692952  0  2.258807  0  0  -0.383506  -0.638314  0  2.281552  0
O  O36  1  0.87156819  0.21340199  0.46458892  1  0  -0.699899  0  2.022871  0  0  -0.655999  0  2.274553  0  0  -0.692347  0  2.259165  0  0  -0.382843  -0.637776  0  2.281927  0
O  O37  1  0.74885660  0.40664279  0.53522122  1  0  -0.700477  0  2.02244  0  0  -0.656604  0  2.274109  0  0  -0.692954  0  2.258729  0  0  -0.383502  -0.638319  0  2.281477  0
O  O38  1  0.68200181  0.69787635  0.64964862  1  0  -0.89037  0  1.835561  0  0  -0.847477  0  2.03703  0  0  -0.875551  0  2.003501  0  0  -0.617757  -0.834689  0  2.055544  0
O  O39  1  0.04833094  0.03266569  0.35022029  1  0  -0.888666  0  1.835417  0  0  -0.845984  0  2.037141  0  0  -0.874045  0  2.004171  0  0  -0.617422  -0.833156  0  2.055714  0
O  O40  1  0.31799535  0.30212615  0.35035094  1  0  -0.890398  0  1.835538  0  0  -0.847514  0  2.036973  0  0  -0.875588  0  2.003447  0  0  -0.617734  -0.834725  0  2.055485  0
O  O41  1  0.95166493  0.96733304  0.64977982  1  0  -0.888701  0  1.835435  0  0  -0.846025  0  2.037072  0  0  -0.874086  0  2.004104  0  0  -0.617403  -0.833195  0  2.055646  0
O  O42  1  0.58342735  0.57060836  0.35192334  1  0  -0.681668  0  1.977903  0  0  -0.63843  0  2.217791  0  0  -0.67006  0  2.20807  0  0  -0.368378  -0.622148  0  2.223728  0
O  O43  1  0.21927227  0.23191005  0.64805807  1  0  -0.681175  0  1.976011  0  0  -0.638589  0  2.216519  0  0  -0.670247  0  2.20678  0  0  -0.368487  -0.622344  0  2.222482  0
O  O44  1  0.41657377  0.42939157  0.64807489  1  0  -0.681609  0  1.977842  0  0  -0.638389  0  2.217763  0  0  -0.670019  0  2.208031  0  0  -0.368367  -0.622103  0  2.223697  0
O  O45  1  0.78073442  0.76808857  0.35194407  1  0  -0.681122  0  1.97602  0  0  -0.638563  0  2.216538  0  0  -0.670218  0  2.206801  0  0  -0.3685  -0.622316  0  2.222498  0
O  O46  1  0.04714466  0.73403709  0.78149178  1  0  -0.657238  0  1.910483  0  0  -0.623652  0  2.141397  0  0  -0.654887  0  2.1268  0  0  -0.35477  -0.607826  0  2.149502  0
O  O47  1  0.95284925  0.26596291  0.21850630  1  0  -0.657222  0  1.91041  0  0  -0.62362  0  2.141324  0  0  -0.654854  0  2.126726  0  0  -0.354745  -0.607792  0  2.149428  0
O  O48  1  0.11320354  0.53630999  0.64983086  1  0  -0.811323  0  2.181483  0  0  -0.754014  0  2.438571  0  0  -0.800023  0  2.4288  0  0  -0.406494  -0.733966  0  2.443326  0
O  O49  1  0.88680212  0.46369621  0.35017010  1  0  -0.811361  0  2.181492  0  0  -0.75405  0  2.438603  0  0  -0.800061  0  2.428833  0  0  -0.406552  -0.734001  0  2.443355  0
F  F50  1  0.54097687  0.96403224  0.74299716  1  0  -0.164468  0  1.274484  0  0  -0.121438  0  1.454932  0  0  -0.129718  0  1.443838  0  0  -0.084955  -0.115333  0  1.462339  0
F  F51  1  0.22095935  0.79866586  0.25696042  1  0  -0.163096  0  1.273161  0  0  -0.121517  0  1.453714  0  0  -0.12981  0  1.442615  0  0  -0.084888  -0.115383  0  1.461119  0
F  F52  1  0.45902236  0.03597276  0.25700086  1  0  -0.164458  0  1.274469  0  0  -0.121418  0  1.454911  0  0  -0.1297  0  1.443815  0  0  -0.084912  -0.115313  0  1.462316  0
F  F53  1  0.77903430  0.20134046  0.74303729  1  0  -0.163105  0  1.273146  0  0  -0.121517  0  1.453701  0  0  -0.129812  0  1.442602  0  0  -0.084894  -0.115384  0  1.461106  0
F  F54  1  0.70586634  0.86119591  0.13921067  1  0  -0.158484  0  1.27273  0  0  -0.104366  0  1.440285  0  0  -0.111465  0  1.428146  0  0  -0.074321  -0.098955  0  1.448461  0
F  F55  1  0.72236998  0.56711375  0.86070180  1  0  -0.157116  0  1.274041  0  0  -0.104043  0  1.442711  0  0  -0.111163  0  1.43058  0  0  -0.07406  -0.098672  0  1.450881  0
F  F56  1  0.29413589  0.13880022  0.86078876  1  0  -0.158481  0  1.272694  0  0  -0.104364  0  1.440215  0  0  -0.111464  0  1.428077  0  0  -0.074308  -0.098951  0  1.44839  0
F  F57  1  0.27763869  0.43288358  0.13929967  1  0  -0.157079  0  1.274053  0  0  -0.104041  0  1.442693  0  0  -0.11116  0  1.430563  0  0  -0.074064  -0.098668  0  1.450863  0
F  F58  1  0.48169836  0.84201633  0.90327052  1  0  -0.146621  0  1.267963  0  0  -0.106425  0  1.448032  0  0  -0.113703  0  1.436048  0  0  -0.082698  -0.101072  0  1.45612  0
F  F59  1  0.93904665  0.57916977  0.09682149  1  0  -0.155757  0  1.277352  0  0  -0.106747  0  1.448737  0  0  -0.114035  0  1.436763  0  0  -0.082631  -0.101401  0  1.456855  0
F  F60  1  0.51829512  0.15798241  0.09672715  1  0  -0.146608  0  1.268025  0  0  -0.106404  0  1.448105  0  0  -0.113683  0  1.436118  0  0  -0.082694  -0.10105  0  1.456192  0
F  F61  1  0.06095400  0.42082892  0.90318172  1  0  -0.15575  0  1.277354  0  0  -0.106732  0  1.44876  0  0  -0.114019  0  1.436788  0  0  -0.082615  -0.101387  0  1.456878  0
