# generated using pymatgen
data_Sm2Cu3P6H24C30(NO3)6
_symmetry_space_group_name_H-M   'P 1'
_cell_length_a   10.30405276
_cell_length_b   11.39343283
_cell_length_c   11.39311286
_cell_angle_alpha   111.32574535
_cell_angle_beta   107.54169434
_cell_angle_gamma   107.54054790
_symmetry_Int_Tables_number   1
_chemical_formula_structural   Sm2Cu3P6H24C30(NO3)6
_chemical_formula_sum   'Sm2 Cu3 P6 H24 C30 N6 O18'
_cell_volume   1053.17885132
_cell_formula_units_Z   1
loop_
 _symmetry_equiv_pos_site_id
 _symmetry_equiv_pos_as_xyz
  1  'x, y, z'
loop_
 _atom_site_type_symbol
 _atom_site_label
 _atom_site_symmetry_multiplicity
 _atom_site_fract_x
 _atom_site_fract_y
 _atom_site_fract_z
 _atom_site_occupancy
 _atom_site_hle17_ddec_charge
 _atom_site_hle17_ddec_spin_density
 _atom_site_hle17_ddec_sum_bond_order
 _atom_site_hle17_magmom
 _atom_site_hse06_10hf_ddec_charge
 _atom_site_hse06_10hf_ddec_spin_density
 _atom_site_hse06_10hf_ddec_sum_bond_order
 _atom_site_hse06_10hf_magmom
 _atom_site_hse06_ddec_charge
 _atom_site_hse06_ddec_spin_density
 _atom_site_hse06_ddec_sum_bond_order
 _atom_site_hse06_magmom
 _atom_site_pbe_cm5_charge
 _atom_site_pbe_ddec_charge
 _atom_site_pbe_ddec_spin_density
 _atom_site_pbe_ddec_sum_bond_order
 _atom_site_pbe_magmom
Sm  Sm0  1  0.50000233  0.00000019  0.00000043  1  2.401657  -0.0005  1.803125  -0.001  2.322829  -0.000624  2.169537  -0.001  2.360285  -0.000343  2.123802  -0.001  1.576732  2.284308  -0.000407  2.21386  0.0
Sm  Sm1  1  0.99999703  0.00000003  0.99999858  1  2.435394  -7.2e-05  1.73951  0.0  2.349832  -0.000234  2.117549  0.0  2.386981  -0.000124  2.073226  0.0  1.56812  2.279205  -0.000153  2.227579  0.0
Cu  Cu2  1  0.99999849  0.99999912  0.50000297  1  0.845888  -0.715389  1.849351  -0.506  0.812474  -0.790688  2.248638  -0.613  0.897916  -0.857963  2.179027  -0.689  0.767641  0.75697  -0.743847  2.299365  -0.564
Cu  Cu3  1  0.99999925  0.50000408  0.00000090  1  0.845912  -0.715192  1.849658  -0.506  0.813321  -0.790552  2.248478  -0.613  0.898896  -0.857808  2.178477  -0.689  0.768241  0.757537  -0.743691  2.299585  -0.564
Cu  Cu4  1  0.49999497  0.49999628  0.49999582  1  0.845528  0.758839  1.849423  0.506  0.812276  0.826059  2.248713  0.613  0.898441  0.904819  2.177981  0.689  0.767407  0.75629  0.7711  2.30008  0.564
P  P5  1  0.17302969  0.01539183  0.76523339  1  1.480225  -0.003892  4.984749  -0.001  1.323266  -0.006156  5.506519  -0.004  1.376381  -0.004574  5.464011  -0.003  0.345733  1.285415  -0.007181  5.532435  -0.004
P  P6  1  0.15766938  0.74983883  0.98459309  1  1.478807  -0.003896  4.987753  -0.001  1.322195  -0.006154  5.509381  -0.004  1.375271  -0.00457  5.4671  -0.003  0.346265  1.284342  -0.007166  5.535159  -0.004
P  P7  1  0.40773775  0.23472302  0.25020805  1  1.479393  0.004395  4.987942  0.001  1.322316  0.006502  5.509518  0.004  1.375409  0.004934  5.467173  0.003  0.345314  1.284485  0.007491  5.535325  0.004
P  P8  1  0.82696956  0.98460712  0.23476925  1  1.480335  -0.003889  4.984627  -0.001  1.323377  -0.00616  5.506392  -0.004  1.376497  -0.004576  5.463867  -0.003  0.345769  1.285518  -0.00718  5.532301  -0.004
P  P9  1  0.84233150  0.25016543  0.01540578  1  1.478862  -0.003896  4.987752  -0.001  1.322244  -0.006152  5.509361  -0.004  1.375321  -0.004569  5.467075  -0.003  0.346316  1.284397  -0.007167  5.535141  -0.004
P  P10  1  0.59225579  0.76527061  0.74978584  1  1.479312  0.004394  4.9882  0.001  1.322206  0.006499  5.509759  0.004  1.375297  0.004934  5.467429  0.003  0.345303  1.284383  0.00749  5.53556  0.004
H  H11  1  0.33678929  0.31392940  0.02138268  1  0.124836  -0.000583  0.94226  -0.001  0.136482  -0.000497  0.997284  -0.001  0.140169  -0.000346  0.995685  0.0  0.121309  0.133556  -0.000629  0.998954  -0.001
H  H12  1  0.02288477  0.70739925  0.68607438  1  0.125328  -0.000658  0.9425  -0.001  0.137091  -0.000646  0.997256  -0.001  0.140892  -0.000462  0.995515  0.0  0.121112  0.134076  -0.000792  0.999042  -0.001
H  H13  1  0.31527411  0.97867589  0.29274172  1  0.124584  0.000604  0.942356  0.001  0.136555  0.000512  0.99702  0.001  0.140288  0.000356  0.995366  0.0  0.121007  0.133534  0.000646  0.998824  0.001
H  H14  1  0.66321460  0.68607273  0.97862063  1  0.124801  -0.000583  0.942197  -0.001  0.136444  -0.000497  0.99724  -0.001  0.140131  -0.000346  0.99564  0.0  0.121302  0.133518  -0.000629  0.99891  -0.001
H  H15  1  0.97711761  0.29260394  0.31392100  1  0.125256  -0.000658  0.942393  -0.001  0.137045  -0.000647  0.997138  -0.001  0.140821  -0.000462  0.995429  0.0  0.121092  0.134029  -0.000792  0.998927  -0.001
H  H16  1  0.68472505  0.02131881  0.70725847  1  0.124582  0.000602  0.942304  0.001  0.136558  0.000512  0.996967  0.001  0.140284  0.000356  0.99532  0.0  0.121008  0.133536  0.000646  0.998772  0.001
H  H17  1  0.37363479  0.54648366  0.02750393  1  0.101044  -0.000227  0.938504  0.0  0.114189  3.9e-05  0.994269  0.0  0.1167  5.6e-05  0.993108  0.0  0.112684  0.112425  1.4e-05  0.994985  0.0
H  H18  1  0.82723649  0.48101765  0.45352000  1  0.101326  -0.000312  0.938175  0.0  0.114329  -4e-05  0.99415  0.0  0.116835  -1.4e-05  0.992989  0.0  0.112798  0.112572  -7.2e-05  0.994848  0.0
H  H19  1  0.34620502  0.97257605  0.51918667  1  0.101107  0.000328  0.938723  0.0  0.114367  3e-05  0.994356  0.0  0.11686  7e-06  0.993239  0.0  0.11253  0.112598  6e-05  0.995053  0.0
H  H20  1  0.62636804  0.45351634  0.97249656  1  0.101063  -0.000227  0.938501  0.0  0.114195  3.9e-05  0.994282  0.0  0.116707  5.6e-05  0.993121  0.0  0.112682  0.112432  1.3e-05  0.994999  0.0
H  H21  1  0.17276435  0.51898448  0.54647721  1  0.101337  -0.000311  0.938199  0.0  0.114364  -4e-05  0.99414  0.0  0.11687  -1.4e-05  0.99298  0.0  0.112793  0.112608  -7.2e-05  0.994839  0.0
H  H22  1  0.65379777  0.02742183  0.48081391  1  0.101174  0.00033  0.93873  0.0  0.114402  2.9e-05  0.994388  0.0  0.116898  6e-06  0.993274  0.0  0.11255  0.112629  6e-05  0.995082  0.0
H  H23  1  0.25772142  0.54376233  0.80025883  1  0.121433  -0.000485  0.935563  -0.001  0.133504  -0.000452  0.989418  -0.001  0.136965  -0.000326  0.988228  0.0  0.117733  0.130697  -0.000565  0.990999  -0.001
H  H24  1  0.71398162  0.25653001  0.45630629  1  0.121629  -0.000617  0.935728  -0.001  0.133532  -0.000596  0.989756  -0.001  0.136985  -0.000434  0.988573  0.0  0.117668  0.130721  -0.000738  0.991338  -0.001
H  H25  1  0.45767951  0.19987868  0.74373339  1  0.121898  0.000559  0.935472  0.001  0.134167  0.000497  0.989266  0.001  0.137557  0.000359  0.988144  0.0  0.11805  0.131419  0.00062  0.990764  0.001
H  H26  1  0.74227424  0.45623555  0.19974069  1  0.121514  -0.000484  0.935517  -0.001  0.13358  -0.000452  0.989367  -0.001  0.137042  -0.000327  0.988175  0.0  0.117767  0.130773  -0.000565  0.990949  -0.001
H  H27  1  0.28601670  0.74347318  0.54369501  1  0.121765  -0.000618  0.935694  -0.001  0.133637  -0.000596  0.989749  -0.001  0.137074  -0.000433  0.988589  0.0  0.1177  0.130829  -0.000738  0.991333  -0.001
H  H28  1  0.54231872  0.80012026  0.25626546  1  0.121932  0.000559  0.935398  0.001  0.134172  0.000497  0.98922  0.001  0.137562  0.000359  0.988099  0.0  0.118061  0.131421  0.000621  0.990716  0.001
H  H29  1  0.08565606  0.30433044  0.57266725  1  0.094018  -0.000824  0.943543  -0.002  0.104073  -0.000708  1.002836  -0.001  0.106015  -0.00052  1.001614  -0.001  0.120961  0.102394  -0.000861  1.003926  -0.002
H  H30  1  0.78130538  0.26837302  0.69574480  1  0.093648  -0.000781  0.943288  -0.002  0.103745  -0.000682  1.002705  -0.001  0.105769  -0.000496  1.001393  -0.001  0.120948  0.102069  -0.000831  1.003802  -0.002
H  H31  1  0.51299800  0.42743520  0.73175482  1  0.094262  0.000833  0.943909  0.002  0.103849  0.000707  1.003669  0.001  0.10575  0.00052  1.002497  0.001  0.121035  0.102246  0.000858  1.00469  0.002
H  H32  1  0.91433752  0.69566532  0.42733532  1  0.093964  -0.000824  0.94353  -0.002  0.104039  -0.000708  1.002808  -0.001  0.105973  -0.00052  1.001596  -0.001  0.120933  0.102366  -0.000862  1.003886  -0.002
H  H33  1  0.21869608  0.73163443  0.30425802  1  0.09371  -0.000782  0.943241  -0.002  0.103731  -0.000682  1.002741  -0.001  0.105753  -0.000496  1.001435  -0.001  0.120931  0.102055  -0.000831  1.003838  -0.002
H  H34  1  0.48699510  0.57256162  0.26823922  1  0.094263  0.000834  0.943953  0.002  0.103866  0.000707  1.003694  0.001  0.105769  0.000519  1.002521  0.001  0.121042  0.102265  0.000857  1.004714  0.002
C  C35  1  0.19698447  0.19135946  0.79443376  1  -0.056674  0.00831  3.699028  0.008  -0.030683  0.001683  3.940567  0.002  -0.028962  0.002696  3.961586  0.003  0.112151  -0.031723  0.000818  3.927134  0.001
C  C36  1  0.00564141  0.60306514  0.80866717  1  -0.055129  0.008312  3.69917  0.008  -0.030061  0.001686  3.942075  0.002  -0.028356  0.002716  3.963176  0.004  0.112125  -0.031033  0.000781  3.928477  0.001
C  C37  1  0.40248212  0.20559769  0.39703530  1  -0.056641  -0.007722  3.69904  -0.008  -0.030321  -0.001487  3.940124  -0.002  -0.028581  -0.002472  3.961193  -0.004  0.11152  -0.031371  -0.000648  3.926666  -0.001
C  C38  1  0.80301531  0.80864055  0.20557029  1  -0.056649  0.008314  3.699124  0.008  -0.030645  0.001681  3.940647  0.002  -0.028922  0.002698  3.961664  0.003  0.112182  -0.031685  0.000819  3.927208  0.001
C  C39  1  0.99435899  0.39694018  0.19133020  1  -0.055228  0.008305  3.699198  0.008  -0.030113  0.001683  3.942086  0.002  -0.028406  0.002713  3.96318  0.004  0.112105  -0.031086  0.000781  3.928488  0.001
C  C40  1  0.59751243  0.79439594  0.60295886  1  -0.056775  -0.007735  3.699231  -0.008  -0.030386  -0.001486  3.940245  -0.002  -0.028645  -0.002472  3.961314  -0.004  0.111487  -0.031441  -0.000648  3.926791  -0.001
C  C41  1  0.28550442  0.31781100  0.92494178  1  -0.081877  -0.008445  3.695847  -0.009  -0.101233  -0.002871  3.936507  -0.003  -0.106865  -0.002811  3.956948  -0.003  -0.063566  -0.097906  -0.002978  3.923467  -0.003
C  C42  1  0.96772515  0.60709151  0.68219787  1  -0.084104  -0.008606  3.699134  -0.009  -0.103279  -0.003125  3.940028  -0.003  -0.108995  -0.003055  3.96043  -0.003  -0.063903  -0.099899  -0.003238  3.926985  -0.003
C  C43  1  0.36047158  0.07511950  0.39304912  1  -0.082199  0.00917  3.698702  0.009  -0.101907  0.003279  3.939011  0.003  -0.107548  0.003227  3.959407  0.003  -0.063605  -0.098528  0.00338  3.925998  0.003
C  C44  1  0.71449740  0.68218901  0.07506107  1  -0.081837  -0.00845  3.695801  -0.009  -0.101184  -0.00287  3.936449  -0.003  -0.106816  -0.002813  3.956893  -0.003  -0.063554  -0.097859  -0.002978  3.923407  -0.003
C  C45  1  0.03227675  0.39291275  0.31779864  1  -0.083942  -0.008599  3.698856  -0.009  -0.103154  -0.003122  3.939747  -0.003  -0.108855  -0.003054  3.960164  -0.003  -0.063882  -0.099772  -0.003238  3.926702  -0.003
C  C46  1  0.63952602  0.92487413  0.60694851  1  -0.082161  0.009187  3.69884  0.009  -0.101888  0.003278  3.939115  0.003  -0.107524  0.00323  3.95951  0.003  -0.063573  -0.098516  0.00338  3.926123  0.003
C  C47  1  0.30591765  0.44569527  0.92779479  1  -0.006777  0.009873  3.700814  0.009  -0.027811  0.003139  3.958643  0.003  -0.024574  0.003427  3.976256  0.003  -0.059931  -0.030058  0.002877  3.946851  0.002
C  C48  1  0.86031282  0.48207415  0.55431307  1  -0.005994  0.009391  3.701768  0.009  -0.026895  0.002594  3.9592  0.003  -0.023646  0.002903  3.976846  0.003  -0.059682  -0.029143  0.002396  3.947383  0.002
C  C49  1  0.37818569  0.07230995  0.51813330  1  -0.006867  -0.008869  3.704422  -0.009  -0.027935  -0.002469  3.962131  -0.003  -0.024685  -0.002731  3.979715  -0.003  -0.059508  -0.030159  -0.0023  3.950308  -0.002
C  C50  1  0.69408213  0.55430474  0.07220663  1  -0.006764  0.009877  3.70084  0.009  -0.027792  0.003139  3.958666  0.003  -0.024558  0.003429  3.976282  0.003  -0.059923  -0.030042  0.002877  3.946877  0.002
C  C51  1  0.13968957  0.51792905  0.44568582  1  -0.005986  0.009384  3.70173  0.009  -0.026884  0.002594  3.95915  0.003  -0.023636  0.0029  3.976787  0.003  -0.059644  -0.029134  0.002396  3.947338  0.002
C  C52  1  0.62181351  0.92768687  0.48186680  1  -0.006943  -0.008883  3.704618  -0.009  -0.027985  -0.002467  3.962296  -0.003  -0.024739  -0.002734  3.979882  -0.003  -0.059538  -0.030204  -0.0023  3.950464  -0.002
C  C53  1  0.23885867  0.44464926  0.80077519  1  -0.102352  -0.010331  3.696377  -0.011  -0.118679  -0.003928  3.951809  -0.005  -0.124869  -0.003657  3.971533  -0.004  -0.075486  -0.114919  -0.004143  3.939157  -0.005
C  C54  1  0.79426479  0.35613518  0.55540134  1  -0.102725  -0.010653  3.695644  -0.011  -0.118847  -0.004287  3.951093  -0.005  -0.125032  -0.004001  3.97082  -0.005  -0.075567  -0.115087  -0.004518  3.93847  -0.005
C  C55  1  0.43822673  0.19934726  0.64408099  1  -0.101796  0.011236  3.696631  0.011  -0.118453  0.004391  3.952115  0.005  -0.124583  0.004161  3.97191  0.005  -0.075263  -0.114716  0.004589  3.93941  0.005
C  C56  1  0.76113855  0.55534969  0.19922602  1  -0.102496  -0.010334  3.696501  -0.011  -0.118825  -0.003927  3.951938  -0.005  -0.125012  -0.003657  3.971654  -0.004  -0.075522  -0.115066  -0.004143  3.93929  -0.005
C  C57  1  0.20573817  0.64387120  0.44459975  1  -0.102964  -0.010648  3.695772  -0.011  -0.119077  -0.004287  3.951237  -0.005  -0.12525  -0.003999  3.970967  -0.005  -0.075667  -0.115315  -0.004518  3.93862  -0.005
C  C58  1  0.56177097  0.80065062  0.35591821  1  -0.101836  0.011251  3.696617  0.011  -0.118464  0.004392  3.952102  0.005  -0.124593  0.004164  3.971895  0.005  -0.075298  -0.114725  0.004589  3.939391  0.005
C  C59  1  0.14651530  0.31462768  0.67518815  1  0.130032  0.006393  3.673323  0.006  0.101295  0.000108  3.92822  0.001  0.10958  0.001388  3.948541  0.002  0.048933  0.096114  -0.00081  3.914378  0.0
C  C60  1  0.83190747  0.36060164  0.68544839  1  0.130483  0.006411  3.670744  0.006  0.101646  0.000114  3.925738  0.001  0.109872  0.001399  3.946035  0.002  0.049045  0.096453  -0.000876  3.911905  0.0
C  C61  1  0.47135720  0.32491147  0.63957069  1  0.129  -0.005788  3.671977  -0.006  0.100551  0.000122  3.927328  -0.001  0.108845  -0.001134  3.947681  -0.002  0.048586  0.09532  0.001036  3.913465  0.0
C  C62  1  0.85348085  0.68536914  0.32481200  1  0.130111  0.006394  3.673473  0.006  0.101375  0.000107  3.928354  0.001  0.109666  0.001388  3.948677  0.002  0.048963  0.096192  -0.00081  3.914501  0.0
C  C63  1  0.16809501  0.63940581  0.31455296  1  0.130475  0.006407  3.670731  0.006  0.101723  0.000114  3.925719  0.001  0.109952  0.001398  3.946009  0.002  0.04911  0.096532  -0.000876  3.911888  0.0
C  C64  1  0.52863585  0.67508323  0.36042257  1  0.128935  -0.005802  3.672028  -0.006  0.100462  0.000121  3.927411  -0.001  0.108758  -0.001137  3.947758  -0.002  0.048589  0.09523  0.001035  3.913553  0.0
N  N65  1  0.12639034  0.19152531  0.67343247  1  -0.298908  -0.083316  3.397775  -0.103  -0.253843  -0.057338  3.683423  -0.076  -0.28455  -0.048437  3.70808  -0.067  -0.344377  -0.234652  -0.062282  3.668186  -0.079
N  N66  1  0.93487490  0.48192269  0.80853865  1  -0.298685  -0.083406  3.397496  -0.104  -0.253529  -0.057388  3.683511  -0.076  -0.284259  -0.048522  3.7082  -0.068  -0.344398  -0.234279  -0.062319  3.668253  -0.079
N  N67  1  0.45292714  0.32661879  0.51817999  1  -0.298105  0.088335  3.396746  0.104  -0.253037  0.060012  3.681947  0.076  -0.28392  0.05128  3.70669  0.068  -0.343949  -0.233738  0.064661  3.666718  0.079
N  N68  1  0.87360635  0.80847257  0.32657172  1  -0.298925  -0.083314  3.397869  -0.103  -0.253892  -0.057336  3.683542  -0.076  -0.284599  -0.048437  3.708196  -0.067  -0.344421  -0.2347  -0.062281  3.668303  -0.079
N  N69  1  0.06512452  0.51808476  0.19146187  1  -0.298651  -0.083402  3.397549  -0.104  -0.253554  -0.05739  3.683574  -0.076  -0.284287  -0.048523  3.70827  -0.068  -0.344381  -0.234301  -0.062319  3.668311  -0.079
N  N70  1  0.54706281  0.67337378  0.48181253  1  -0.297899  0.088343  3.396628  0.104  -0.252864  0.060011  3.68182  0.076  -0.283745  0.05128  3.706564  0.068  -0.343919  -0.233565  0.064659  3.666593  0.079
O  O71  1  0.11032170  0.92873454  0.60206896  1  -0.807147  -0.082372  1.997466  -0.106  -0.75897  -0.054785  2.301007  -0.075  -0.798366  -0.044132  2.280961  -0.064  -0.392011  -0.732806  -0.061461  2.31603  -0.082
O  O72  1  0.18164750  0.67330563  0.07123452  1  -0.807308  -0.082383  1.998715  -0.106  -0.759478  -0.054812  2.302466  -0.075  -0.798889  -0.044153  2.282318  -0.064  -0.392651  -0.733263  -0.061512  2.317575  -0.082
O  O73  1  0.50822235  0.39786662  0.32667661  1  -0.807025  0.08724  1.997978  0.106  -0.758896  0.057187  2.301651  0.075  -0.798422  0.046611  2.281494  0.064  -0.391987  -0.732665  0.06362  2.316785  0.082
O  O74  1  0.88967910  0.07126546  0.39793449  1  -0.807236  -0.082375  1.997493  -0.106  -0.759082  -0.054785  2.301037  -0.075  -0.798483  -0.044131  2.280996  -0.064  -0.392078  -0.732917  -0.061464  2.316056  -0.082
O  O75  1  0.81835081  0.32669757  0.92876415  1  -0.807289  -0.082381  1.998666  -0.106  -0.759478  -0.05481  2.302388  -0.075  -0.798887  -0.04415  2.282232  -0.064  -0.392676  -0.733266  -0.061507  2.3175  -0.082
O  O76  1  0.49177375  0.60212808  0.67331924  1  -0.807012  0.087237  1.997989  0.106  -0.758896  0.057183  2.301709  0.075  -0.7984  0.046612  2.281507  0.064  -0.392023  -0.732666  0.063617  2.31684  0.082
O  O77  1  0.05664359  0.95863195  0.81251779  1  -0.974393  -0.002007  1.97782  -0.003  -0.912885  -0.000961  2.256907  -0.002  -0.938655  -0.000355  2.234145  -0.001  -0.477993  -0.886163  -0.001815  2.273347  -0.003
O  O78  1  0.09804200  0.85387842  0.04139866  1  -0.974028  -0.002182  1.976886  -0.003  -0.912395  -0.001055  2.255686  -0.002  -0.938158  -0.000392  2.232925  -0.001  -0.478448  -0.885668  -0.001907  2.27211  -0.003
O  O79  1  0.24410224  0.18749926  0.14615894  1  -0.974124  0.002105  1.979058  0.003  -0.91263  0.000973  2.258254  0.002  -0.93839  0.000355  2.235471  0.001  -0.477609  -0.885903  0.001843  2.274676  0.003
O  O80  1  0.94335517  0.04136805  0.18748422  1  -0.974394  -0.002009  1.977767  -0.003  -0.912883  -0.000959  2.256856  -0.002  -0.938655  -0.000355  2.234093  -0.001  -0.477977  -0.88616  -0.001815  2.273296  -0.003
O  O81  1  0.90195889  0.14612584  0.95860109  1  -0.974032  -0.002181  1.976906  -0.003  -0.912404  -0.001052  2.255704  -0.002  -0.938166  -0.00039  2.232942  -0.001  -0.478486  -0.885675  -0.001907  2.27213  -0.003
O  O82  1  0.75589187  0.81249755  0.85383626  1  -0.974086  0.002104  1.97914  0.003  -0.91257  0.000973  2.2583  0.002  -0.93835  0.000353  2.235557  0.001  -0.47755  -0.885842  0.001843  2.274717  0.003
O  O83  1  0.33230193  0.03454115  0.84549820  1  -0.952683  -0.009502  1.964463  -0.012  -0.893796  -0.005287  2.240691  -0.007  -0.919238  -0.00324  2.216741  -0.004  -0.474047  -0.871526  -0.007646  2.255401  -0.01
O  O84  1  0.29772985  0.81092767  0.96534554  1  -0.952144  -0.009325  1.966889  -0.012  -0.893187  -0.005231  2.242859  -0.007  -0.918637  -0.003234  2.218947  -0.004  -0.473519  -0.870903  -0.007677  2.257543  -0.01
O  O85  1  0.48669149  0.15434976  0.18909725  1  -0.952593  0.009845  1.966489  0.012  -0.893773  0.005396  2.242818  0.007  -0.919229  0.003381  2.218873  0.004  -0.474081  -0.871488  0.007773  2.257503  0.01
O  O86  1  0.66769891  0.96546098  0.15450515  1  -0.952705  -0.009503  1.964398  -0.012  -0.893817  -0.005284  2.240625  -0.007  -0.919257  -0.00324  2.216673  -0.004  -0.474038  -0.871548  -0.007645  2.255334  -0.01
O  O87  1  0.70227152  0.18907552  0.03465483  1  -0.952149  -0.009324  1.966874  -0.012  -0.893198  -0.005229  2.24284  -0.007  -0.918646  -0.003235  2.218921  -0.004  -0.473513  -0.870915  -0.007676  2.257527  -0.01
O  O88  1  0.51329948  0.84564281  0.81089642  1  -0.952583  0.009846  1.966558  0.012  -0.893747  0.005397  2.242873  0.007  -0.919198  0.00338  2.218919  0.004  -0.474091  -0.871461  0.007773  2.257562  0.01
