# generated using pymatgen
data_Cu3H30C30(N14O)2
_symmetry_space_group_name_H-M   'P 1'
_cell_length_a   13.13573259
_cell_length_b   14.53329754
_cell_length_c   15.38557878
_cell_angle_alpha   89.99961993
_cell_angle_beta   89.93596389
_cell_angle_gamma   89.99986651
_symmetry_Int_Tables_number   1
_chemical_formula_structural   Cu3H30C30(N14O)2
_chemical_formula_sum   'Cu6 H60 C60 N56 O4'
_cell_volume   2937.18993071
_cell_formula_units_Z   2
loop_
 _symmetry_equiv_pos_site_id
 _symmetry_equiv_pos_as_xyz
  1  'x, y, z'
loop_
 _atom_site_type_symbol
 _atom_site_label
 _atom_site_symmetry_multiplicity
 _atom_site_fract_x
 _atom_site_fract_y
 _atom_site_fract_z
 _atom_site_occupancy
 _atom_site_pbe_bader_charge
 _atom_site_pbe_bader_spin_density
 _atom_site_pbe_cm5_charge
 _atom_site_pbe_ddec_charge
 _atom_site_pbe_ddec_spin_density
 _atom_site_pbe_ddec_sum_bond_order
 _atom_site_pbe_magmom
Cu  Cu0  1  0.50780751  0.28586331  0.90598134  1  1.012158  0.508257  0.77122  0.60013  0.661404  2.444966  0.507
Cu  Cu1  1  0.99219320  0.78585988  0.59402239  1  1.012005  0.508246  0.771199  0.599976  0.661397  2.445275  0.507
Cu  Cu2  1  0.49219891  0.71414131  0.09402503  1  1.011974  0.50827  0.771215  0.600087  0.66143  2.445322  0.507
Cu  Cu3  1  0.00784074  0.21410208  0.40595152  1  1.011918  0.508282  0.771162  0.599687  0.661444  2.445625  0.507
Cu  Cu4  1  0.50000137  0.50000096  0.00000392  1  1.083437  0.592408  0.841344  0.605035  0.776574  2.561165  0.59
Cu  Cu5  1  0.00001987  0.99999016  0.50000265  1  1.083664  0.592436  0.841389  0.605259  0.7766  2.560786  0.59
H  H6  1  0.79041814  0.15564613  0.13827462  1  0.087364  0.00133  0.114919  0.124264  0.000718  0.989842  0.001
H  H7  1  0.76514873  0.42794048  0.24800158  1  0.074834  0.001314  0.115068  0.124583  0.000687  0.995021  0.001
H  H8  1  0.22693536  0.31450529  0.15401208  1  0.1351  0.00088  0.109475  0.120777  0.000382  1.034859  0.001
H  H9  1  0.10719577  0.21548009  0.23870276  1  0.143147  0.00176  0.119369  0.089333  0.000803  1.026374  0.001
H  H10  1  0.13033020  0.38173889  0.45643354  1  0.112208  0.002065  0.118915  0.091363  0.00098  1.020716  0.002
H  H11  1  0.25647178  0.48603814  0.38219102  1  0.143997  0.001083  0.115124  0.128725  0.000617  0.980688  0.001
H  H12  1  0.88952690  0.37775244  0.36391668  1  0.150995  0.002357  0.121147  0.101355  0.00111  1.026453  0.002
H  H13  1  0.91429032  0.11766660  0.25824977  1  0.126156  0.002376  0.122558  0.093872  0.001106  1.003918  0.002
H  H14  1  0.52120357  0.01863294  0.08566686  1  0.09234  2.6e-05  0.109134  0.131548  5e-05  1.01937  0.0
H  H15  1  0.49105687  0.99900128  0.19775033  1  0.04866  8e-06  0.101264  0.110299  -1.8e-05  1.00413  0.0
H  H16  1  0.60029294  0.06589301  0.16950307  1  0.060354  2.9e-05  0.099655  0.107098  1.4e-05  0.993543  0.0
H  H17  1  0.39513011  0.23715835  0.22544551  1  0.047793  8e-06  0.106796  0.120042  -1e-06  1.023984  0.0
H  H18  1  0.50466715  0.18402147  0.27247792  1  0.074488  -2.2e-05  0.106734  0.121958  -3.6e-05  0.972248  0.0
H  H19  1  0.38493012  0.12530470  0.27292228  1  0.066314  1.8e-05  0.103879  0.119588  9e-06  0.980605  0.0
H  H20  1  0.38368096  0.23438659  0.08716764  1  0.08016  0.000111  0.11662  0.039404  3e-05  1.032678  0.0
H  H21  1  0.70957924  0.65566065  0.36173595  1  0.087054  0.001331  0.114947  0.124349  0.000718  0.989874  0.001
H  H22  1  0.73485019  0.92795847  0.25200663  1  0.074798  0.001313  0.115169  0.124793  0.000687  0.994911  0.001
H  H23  1  0.27306592  0.81449020  0.34597223  1  0.135417  0.000881  0.109533  0.120928  0.000383  1.034735  0.001
H  H24  1  0.39281490  0.71547018  0.26128544  1  0.143766  0.001758  0.119416  0.089508  0.000803  1.026254  0.001
H  H25  1  0.36967774  0.88172642  0.04355166  1  0.112604  0.002064  0.118964  0.091402  0.00098  1.020572  0.002
H  H26  1  0.24351839  0.98601645  0.11778764  1  0.143921  0.001083  0.115185  0.128685  0.000617  0.980806  0.001
H  H27  1  0.61049047  0.87776599  0.13608213  1  0.151164  0.002358  0.121151  0.101419  0.001111  1.026315  0.002
H  H28  1  0.58572013  0.61767876  0.24175521  1  0.126516  0.002377  0.122497  0.093713  0.001106  1.003876  0.002
H  H29  1  0.97878582  0.51861560  0.41433936  1  0.092121  2.6e-05  0.109092  0.131544  5e-05  1.019519  0.0
H  H30  1  0.00892708  0.49899443  0.30225359  1  0.048711  8e-06  0.101232  0.110362  -1.8e-05  1.004073  0.0
H  H31  1  0.89968641  0.56587503  0.33050933  1  0.060397  2.9e-05  0.099658  0.107201  1.4e-05  0.993476  0.0
H  H32  1  0.10482486  0.73715717  0.27456065  1  0.047074  8e-06  0.106808  0.120032  -1e-06  1.023795  0.0
H  H33  1  0.99528752  0.68401641  0.22753175  1  0.074267  -2.2e-05  0.106853  0.122108  -3.6e-05  0.972167  0.0
H  H34  1  0.11502898  0.62530935  0.22708004  1  0.066938  1.8e-05  0.103877  0.119575  9e-06  0.980615  0.0
H  H35  1  0.11628469  0.73438993  0.41283271  1  0.080592  0.000111  0.116567  0.039249  3e-05  1.032864  0.0
H  H36  1  0.20956312  0.84434404  0.86174080  1  0.086806  0.001331  0.114919  0.124303  0.000718  0.989924  0.001
H  H37  1  0.23485309  0.57204831  0.75201322  1  0.074859  0.001313  0.115219  0.124834  0.000687  0.994927  0.001
H  H38  1  0.77306884  0.68551241  0.84597543  1  0.135209  0.00088  0.109534  0.120849  0.000382  1.034815  0.001
H  H39  1  0.89281680  0.78452590  0.76128672  1  0.1438  0.001758  0.11938  0.08937  0.000803  1.026312  0.001
H  H40  1  0.86966105  0.61827123  0.54355525  1  0.112673  0.002063  0.118916  0.091398  0.000979  1.020622  0.002
H  H41  1  0.74350580  0.51398919  0.61778995  1  0.143822  0.001083  0.115209  0.128779  0.000617  0.980729  0.001
H  H42  1  0.11050313  0.62223566  0.63608388  1  0.151318  0.002358  0.121167  0.101421  0.001111  1.026245  0.002
H  H43  1  0.08571461  0.88232289  0.74174880  1  0.126391  0.002375  0.122609  0.09391  0.001106  1.003827  0.002
H  H44  1  0.47875253  0.98137305  0.91435957  1  0.091542  2.6e-05  0.108987  0.131374  5e-05  1.019676  0.0
H  H45  1  0.50889692  0.00102398  0.80228195  1  0.048709  8e-06  0.10127  0.110377  -1.8e-05  1.004065  0.0
H  H46  1  0.39966317  0.93412813  0.83052011  1  0.060131  2.9e-05  0.099773  0.107317  1.4e-05  0.993457  0.0
H  H47  1  0.60483371  0.76287104  0.77455233  1  0.048245  8e-06  0.106836  0.120043  -1e-06  1.023585  0.0
H  H48  1  0.49527989  0.81600448  0.72752510  1  0.074147  -2.2e-05  0.106812  0.122044  -3.7e-05  0.972113  0.0
H  H49  1  0.61501463  0.87473226  0.72708398  1  0.065935  1.8e-05  0.10383  0.119495  9e-06  0.980614  0.0
H  H50  1  0.61628976  0.76561803  0.91281526  1  0.080078  0.000111  0.11658  0.039238  3e-05  1.033049  0.0
H  H51  1  0.29041953  0.34435291  0.63828016  1  0.087514  0.00133  0.114928  0.12433  0.000718  0.989922  0.001
H  H52  1  0.26512272  0.07205922  0.74800098  1  0.126055  0.001266  0.115245  0.124919  0.000687  0.994723  0.001
H  H53  1  0.72694207  0.18551786  0.65402114  1  0.135172  0.00088  0.109515  0.120806  0.000382  1.034782  0.001
H  H54  1  0.60717785  0.28452205  0.73870986  1  0.14326  0.001759  0.119369  0.089352  0.000803  1.026353  0.001
H  H55  1  0.63032722  0.11825824  0.95643781  1  0.112166  0.002064  0.118912  0.091338  0.000979  1.020747  0.002
H  H56  1  0.75648657  0.01397853  0.88219987  1  0.144062  0.001083  0.115179  0.128665  0.000617  0.98073  0.001
H  H57  1  0.38949233  0.12223588  0.86393069  1  0.152055  0.002356  0.121146  0.101331  0.001111  1.026425  0.002
H  H58  1  0.41429233  0.38232104  0.75826286  1  0.126408  0.002376  0.122552  0.093827  0.001106  1.003816  0.002
H  H59  1  0.02121154  0.48137320  0.58564490  1  0.092057  2.6e-05  0.109053  0.131343  5e-05  1.019717  0.0
H  H60  1  0.99106345  0.50100606  0.69772610  1  0.048931  8e-06  0.101269  0.110327  -1.8e-05  1.004118  0.0
H  H61  1  0.10030712  0.43412477  0.66948336  1  0.060397  2.9e-05  0.099685  0.107157  1.4e-05  0.993439  0.0
H  H62  1  0.89515114  0.26284882  0.72543526  1  0.048048  8e-06  0.106738  0.119919  -1e-06  1.02384  0.0
H  H63  1  0.00468541  0.31599509  0.77247261  1  0.074457  -2.2e-05  0.10675  0.121961  -3.6e-05  0.972338  0.0
H  H64  1  0.88494174  0.37470904  0.77290352  1  0.066396  1.8e-05  0.103812  0.119446  9e-06  0.98055  0.0
H  H65  1  0.88369966  0.26560781  0.58717037  1  0.079842  0.000112  0.11661  0.039321  3.1e-05  1.032817  0.0
C  C66  1  0.69591902  0.32164029  0.11696999  1  0.942612  0.006067  0.209163  0.212564  0.004904  4.065397  0.007
C  C67  1  0.76846077  0.29540781  0.18382718  1  -0.009306  -0.00278  0.021695  0.087017  -0.003338  3.99937  -0.002
C  C68  1  0.81091092  0.20684079  0.18690760  1  -0.024155  0.006081  -0.077055  -0.160923  0.004164  3.927726  0.005
C  C69  1  0.79713085  0.35882881  0.24807531  1  0.096504  0.006122  -0.075319  -0.153789  0.004271  3.92307  0.005
C  C70  1  0.32670368  0.46220511  0.21439084  1  0.927531  0.003835  0.200832  0.211388  0.00299  4.0828  0.004
C  C71  1  0.25347069  0.40704685  0.26252668  1  -0.033431  -0.002857  0.018873  0.083487  -0.003335  4.002845  -0.002
C  C72  1  0.20922479  0.33038102  0.22163730  1  -0.048552  0.00493  -0.079281  -0.159458  0.00337  3.925982  0.004
C  C73  1  0.14108937  0.27654387  0.26770272  1  0.441107  -0.001102  0.043884  0.092747  -0.001547  3.943003  -0.001
C  C74  1  0.15520498  0.36958425  0.38990289  1  0.490613  -0.000562  0.048054  0.097164  -0.00086  3.942577  0.0
C  C75  1  0.22473362  0.42680053  0.34836621  1  0.000845  0.005847  -0.079854  -0.164173  0.004001  3.923055  0.005
C  C76  1  0.86625721  0.33231905  0.31128486  1  0.423187  -0.000806  0.047383  0.08582  -0.001285  3.932088  -0.001
C  C77  1  0.87967907  0.18554526  0.25229324  1  0.477352  -0.001331  0.050841  0.095646  -0.001747  3.931876  -0.001
C  C78  1  0.52149950  0.04895274  0.15084682  1  0.253909  5.1e-05  -0.135083  -0.273536  5.3e-05  3.926558  0.0
C  C79  1  0.43456378  0.17153105  0.23520681  1  0.26422  9e-06  -0.127442  -0.269132  -5e-06  3.911883  0.0
C  C80  1  0.42806513  0.17064881  0.07649487  1  1.389431  -0.000203  0.163498  0.296466  -0.000313  4.137079  0.0
C  C81  1  0.80408324  0.82165309  0.38304020  1  0.942474  0.006065  0.209145  0.212455  0.004903  4.065589  0.007
C  C82  1  0.73153927  0.79542398  0.31618187  1  -0.00958  -0.002779  0.021643  0.087264  -0.003338  3.999009  -0.002
C  C83  1  0.68909167  0.70685776  0.31309876  1  -0.023344  0.006082  -0.077207  -0.161396  0.004164  3.927715  0.005
C  C84  1  0.70287739  0.85884342  0.25193530  1  0.096367  0.006123  -0.075252  -0.153987  0.004271  3.922694  0.005
C  C85  1  0.17330632  0.96219409  0.28559580  1  0.927293  0.003836  0.200733  0.211523  0.002991  4.082144  0.004
C  C86  1  0.24652882  0.90702845  0.23745445  1  -0.033854  -0.002857  0.019108  0.083621  -0.003335  4.002518  -0.002
C  C87  1  0.29077948  0.83036638  0.27834691  1  -0.048465  0.004928  -0.079463  -0.159721  0.003369  3.925966  0.004
C  C88  1  0.35891883  0.77653561  0.23228899  1  0.440093  -0.001096  0.04378  0.092574  -0.001544  3.942786  -0.001
C  C89  1  0.34480070  0.86957687  0.11008303  1  0.490728  -0.000562  0.048046  0.097388  -0.000862  3.942456  0.0
C  C90  1  0.27526126  0.92678405  0.15161608  1  0.001059  0.005846  -0.080063  -0.164308  0.004001  3.923528  0.005
C  C91  1  0.63376027  0.83233012  0.18871619  1  0.424235  -0.000815  0.047408  0.085859  -0.00129  3.93175  -0.001
C  C92  1  0.62033577  0.68555869  0.24770873  1  0.477319  -0.001329  0.050999  0.096262  -0.001744  3.931802  -0.001
C  C93  1  0.97847839  0.54893929  0.34916114  1  0.253565  5.1e-05  -0.135044  -0.273841  5.3e-05  3.926481  0.0
C  C94  1  0.06539289  0.67152796  0.26479912  1  0.264147  9e-06  -0.127586  -0.26931  -5e-06  3.911821  0.0
C  C95  1  0.07191820  0.67064941  0.42350980  1  1.389028  -0.000203  0.163499  0.296382  -0.000312  4.13722  0.0
C  C96  1  0.30407441  0.67834920  0.88305001  1  0.942317  0.006066  0.209085  0.212418  0.004904  4.065937  0.007
C  C97  1  0.23153191  0.70458030  0.81618891  1  -0.009263  -0.00278  0.021626  0.087229  -0.003338  3.999035  -0.002
C  C98  1  0.18908405  0.79314869  0.81310654  1  -0.02349  0.00608  -0.0772  -0.16131  0.004164  3.927793  0.005
C  C99  1  0.20287858  0.64115998  0.75194081  1  0.096355  0.006123  -0.075231  -0.153887  0.004271  3.922725  0.005
C  C100  1  0.67328452  0.53781258  0.78560184  1  0.927782  0.003833  0.200703  0.211373  0.002989  4.082413  0.004
C  C101  1  0.74651599  0.59297497  0.73746276  1  -0.033626  -0.002857  0.018968  0.08362  -0.003335  4.002424  -0.002
C  C102  1  0.79077483  0.66962910  0.77835411  1  -0.048633  0.004928  -0.079335  -0.159456  0.003369  3.926065  0.004
C  C103  1  0.85891556  0.72345869  0.73229195  1  0.440534  -0.001099  0.043728  0.092593  -0.001545  3.942881  -0.001
C  C104  1  0.84479312  0.63042037  0.61008656  1  0.490622  -0.000562  0.048013  0.097276  -0.000861  3.942289  0.0
C  C105  1  0.77525230  0.57321717  0.65162322  1  0.001013  0.005845  -0.079958  -0.164363  0.004  3.923147  0.005
C  C106  1  0.13376368  0.66767250  0.68871828  1  0.423995  -0.000814  0.047358  0.085751  -0.001289  3.931672  -0.001
C  C107  1  0.12033116  0.81444491  0.74771119  1  0.477405  -0.001329  0.050857  0.095907  -0.001744  3.931753  -0.001
C  C108  1  0.47844899  0.95106701  0.84917895  1  0.254447  5.1e-05  -0.135211  -0.27393  5.3e-05  3.926085  0.0
C  C109  1  0.56539012  0.82850247  0.76479492  1  0.264401  9e-06  -0.12748  -0.269246  -5e-06  3.911556  0.0
C  C110  1  0.57191543  0.82934687  0.92350430  1  1.389428  -0.000204  0.163645  0.29664  -0.000313  4.137276  0.0
C  C111  1  0.19592469  0.17835978  0.61696942  1  0.942432  0.00607  0.209067  0.212443  0.004906  4.065397  0.007
C  C112  1  0.26844957  0.20459372  0.68384007  1  -0.009173  -0.002778  0.021703  0.087094  -0.003336  3.999327  -0.002
C  C113  1  0.31090407  0.29315718  0.68691474  1  -0.0241  0.006081  -0.076988  -0.16102  0.004164  3.927926  0.005
C  C114  1  0.29710385  0.14117014  0.74808597  1  0.044731  0.00617  -0.075494  -0.15418  0.004271  3.922785  0.005
C  C115  1  0.82672452  0.03781879  0.71439501  1  0.925531  0.003836  0.200922  0.211552  0.002988  4.082662  0.004
C  C116  1  0.75348832  0.09297066  0.76253374  1  -0.033671  -0.002857  0.018964  0.083385  -0.003335  4.002634  -0.002
C  C117  1  0.70923003  0.16963136  0.72164581  1  -0.048483  0.004928  -0.079335  -0.159388  0.003369  3.926018  0.004
C  C118  1  0.64108230  0.22345663  0.76770502  1  0.440951  -0.001099  0.04373  0.092572  -0.001544  3.942883  -0.001
C  C119  1  0.65520120  0.13041536  0.88990643  1  0.491117  -0.000564  0.048052  0.097239  -0.000862  3.942507  0.0
C  C120  1  0.72474370  0.07321163  0.84837078  1  0.000798  0.005846  -0.079947  -0.164045  0.004  3.922925  0.005
C  C121  1  0.36622555  0.16767450  0.81130119  1  0.423011  -0.00081  0.047382  0.08597  -0.001287  3.93186  -0.001
C  C122  1  0.37966376  0.31444731  0.75230803  1  0.477437  -0.00133  0.050805  0.095926  -0.001745  3.931864  -0.001
C  C123  1  0.02151288  0.45105844  0.65082375  1  0.253582  5.1e-05  -0.135079  -0.273402  5.3e-05  3.926491  0.0
C  C124  1  0.93458311  0.32848286  0.73519744  1  0.263553  9e-06  -0.12733  -0.268818  -5e-06  3.911879  0.0
C  C125  1  0.92807760  0.32933732  0.57648484  1  1.38967  -0.000203  0.163577  0.296664  -0.000312  4.137321  0.0
N  N126  1  0.59402967  0.40178075  0.04371109  1  -0.16826  0.082913  -0.12561  -0.020426  0.058403  3.598572  0.076
N  N127  1  0.59647067  0.31737607  0.00932931  1  -0.190541  0.060682  -0.129156  -0.042097  0.043046  3.568182  0.056
N  N128  1  0.66025905  0.26518467  0.05410716  1  -0.608512  0.009626  -0.204305  -0.242513  0.005581  3.173951  0.007
N  N129  1  0.65521064  0.40691005  0.11121474  1  -0.596546  0.007268  -0.204802  -0.233051  0.003799  3.155019  0.005
N  N130  1  0.40304743  0.37333412  0.95076754  1  -0.272468  0.093437  -0.335425  -0.551251  0.063458  3.197609  0.082
N  N131  1  0.31748352  0.34882904  0.96778189  1  -0.342546  0.000738  0.08161  0.428544  -0.009623  4.470877  -0.013
N  N132  1  0.23425012  0.32742717  0.98535469  1  0.014323  0.130951  -0.207984  -0.382763  0.084419  2.483386  0.093
N  N133  1  0.42862775  0.50043549  0.11544316  1  -0.206306  0.089545  -0.134493  -0.035643  0.062924  3.628389  0.081
N  N134  1  0.37199941  0.43048781  0.14158833  1  -0.614302  0.004167  -0.211907  -0.245227  0.00163  3.209995  0.003
N  N135  1  0.41959366  0.57241279  0.16895433  1  -0.162427  0.001871  -0.104847  -0.09815  -9.4e-05  3.365082  0.003
N  N136  1  0.35563274  0.54955064  0.23268570  1  -0.638744  0.009108  -0.223538  -0.274151  0.005535  3.194096  0.007
N  N137  1  0.11439929  0.29549044  0.35046952  1  -1.221506  0.077422  -0.351104  -0.233791  0.052249  3.62958  0.067
N  N138  1  0.90753244  0.24756811  0.31277798  1  -1.218414  0.092033  -0.345947  -0.204154  0.062183  3.631236  0.081
N  N139  1  0.45893565  0.13122457  0.15123493  1  -1.186231  -3.8e-05  -0.28793  0.019334  -3.6e-05  3.722619  0.0
N  N140  1  0.90599065  0.90177220  0.45629538  1  -0.168554  0.082905  -0.12564  -0.020357  0.058399  3.598811  0.076
N  N141  1  0.90354380  0.81737554  0.49067508  1  -0.190682  0.060685  -0.129099  -0.04209  0.043047  3.568712  0.056
N  N142  1  0.83974185  0.76519077  0.44589947  1  -0.608551  0.00963  -0.204248  -0.242368  0.005584  3.173892  0.007
N  N143  1  0.84480281  0.90691723  0.38879168  1  -0.59633  0.007269  -0.204794  -0.233098  0.0038  3.155053  0.005
N  N144  1  0.09696494  0.87331596  0.54922144  1  -0.271654  0.093417  -0.335457  -0.55141  0.063447  3.198108  0.082
N  N145  1  0.18252892  0.84880532  0.53220853  1  -0.343035  0.000747  0.081745  0.428743  -0.009627  4.471973  -0.013
N  N146  1  0.26576466  0.82739653  0.51463718  1  0.014152  0.130972  -0.208087  -0.382904  0.084428  2.484137  0.093
N  N147  1  0.07140248  0.00042725  0.38455941  1  -0.206321  0.089543  -0.134647  -0.035792  0.062922  3.628222  0.081
N  N148  1  0.12801141  0.93047706  0.35840306  1  -0.613911  0.004168  -0.211781  -0.245187  0.001629  3.209747  0.003
N  N149  1  0.08044552  0.07241041  0.33104716  1  -0.162633  0.001873  -0.104638  -0.097939  -9e-05  3.365404  0.003
N  N150  1  0.14439053  0.04954721  0.26731136  1  -0.638723  0.009103  -0.223607  -0.274268  0.005532  3.194255  0.007
N  N151  1  0.38561496  0.79548958  0.14952143  1  -1.221878  0.077419  -0.351029  -0.23395  0.052249  3.62928  0.067
N  N152  1  0.59249137  0.74758202  0.18722101  1  -1.219568  0.092031  -0.346082  -0.204672  0.062177  3.631863  0.081
N  N153  1  0.04103862  0.63122025  0.34877518  1  -1.185208  -3.8e-05  -0.28784  0.019663  -3.6e-05  3.722421  0.0
N  N154  1  0.40597215  0.59821699  0.95630242  1  -0.168482  0.082925  -0.125381  -0.019998  0.058411  3.598458  0.076
N  N155  1  0.40353039  0.68261891  0.99068420  1  -0.190578  0.060692  -0.129132  -0.04219  0.043054  3.568278  0.056
N  N156  1  0.33973363  0.73480688  0.94590763  1  -0.60859  0.009628  -0.204264  -0.242387  0.005582  3.174108  0.007
N  N157  1  0.34478508  0.59308218  0.88880070  1  -0.596426  0.00727  -0.20488  -0.233278  0.003801  3.155574  0.005
N  N158  1  0.59696129  0.62668014  0.04923168  1  -0.271824  0.093407  -0.335351  -0.551265  0.063444  3.197941  0.082
N  N159  1  0.68252595  0.65118866  0.03222253  1  -0.342608  0.000755  0.081638  0.42864  -0.009623  4.47193  -0.013
N  N160  1  0.76576085  0.67259809  0.01465688  1  0.013789  0.130939  -0.208091  -0.382897  0.084411  2.484159  0.093
N  N161  1  0.57138171  0.49957257  0.88456321  1  -0.205797  0.089538  -0.134385  -0.035445  0.062919  3.628485  0.081
N  N162  1  0.62799941  0.56952507  0.85841282  1  -0.614696  0.004169  -0.211886  -0.245366  0.00163  3.210264  0.003
N  N163  1  0.58041506  0.42759596  0.83104684  1  -0.162931  0.00187  -0.104917  -0.098471  -9.3e-05  3.365732  0.003
N  N164  1  0.64435849  0.45046292  0.76731024  1  -0.638777  0.009105  -0.223512  -0.273981  0.005533  3.194391  0.007
N  N165  1  0.88561479  0.70450661  0.64952451  1  -1.22176  0.077413  -0.350962  -0.233878  0.052244  3.629193  0.067
N  N166  1  0.09249152  0.75242000  0.68721802  1  -1.219273  0.092024  -0.346092  -0.204531  0.062173  3.631472  0.081
N  N167  1  0.54102660  0.86878487  0.84877331  1  -1.185213  -3.8e-05  -0.287797  0.019819  -3.6e-05  3.721569  0.0
N  N168  1  0.09405613  0.09819802  0.54370651  1  -0.168134  0.082919  -0.125518  -0.020443  0.058407  3.598502  0.076
N  N169  1  0.09650992  0.18260086  0.50930342  1  -0.190455  0.060689  -0.129047  -0.041874  0.043053  3.567571  0.056
N  N170  1  0.16028445  0.23479871  0.55408353  1  -0.608264  0.009623  -0.204332  -0.242526  0.00558  3.173874  0.007
N  N171  1  0.15521196  0.09308876  0.61122055  1  -0.596754  0.007272  -0.204863  -0.233104  0.003801  3.155416  0.005
N  N172  1  0.90309127  0.12660609  0.45069987  1  -0.274664  0.093468  -0.334688  -0.550248  0.063459  3.198871  0.082
N  N173  1  0.81753933  0.15111467  0.46774984  1  -0.340144  0.000722  0.080895  0.427691  -0.009605  4.472223  -0.013
N  N174  1  0.73432251  0.17251382  0.48535308  1  0.014239  0.130881  -0.208007  -0.382849  0.084389  2.483812  0.093
N  N175  1  0.92864121  0.99956842  0.61545352  1  -0.206101  0.089547  -0.134532  -0.035834  0.062926  3.62868  0.081
N  N176  1  0.87202547  0.06952825  0.64159751  1  -0.613659  0.004164  -0.212046  -0.245356  0.00163  3.2103  0.003
N  N177  1  0.91959669  0.92759352  0.66895666  1  -0.162011  0.001867  -0.104733  -0.097968  -9.6e-05  3.365484  0.003
N  N178  1  0.85563951  0.95046016  0.73268855  1  -0.638446  0.009112  -0.223605  -0.274266  0.005538  3.193935  0.007
N  N179  1  0.61438389  0.20450471  0.85047193  1  -1.221487  0.077409  -0.35091  -0.233741  0.052242  3.629139  0.067
N  N180  1  0.40750664  0.25241985  0.81279509  1  -1.219494  0.092035  -0.345994  -0.2046  0.062177  3.631594  0.081
N  N181  1  0.95895261  0.36877405  0.65121946  1  -1.185256  -3.8e-05  -0.287927  0.019138  -3.6e-05  3.722758  0.0
O  O182  1  0.44724184  0.14080035  0.00227966  1  -1.177141  -0.00082  -0.317317  -0.492632  -0.000946  2.275797  0.0
O  O183  1  0.05275146  0.64079359  0.49772327  1  -1.177319  -0.000819  -0.317335  -0.492526  -0.000945  2.275731  0.0
O  O184  1  0.55274861  0.85918500  0.99771887  1  -1.177533  -0.00082  -0.317468  -0.492738  -0.000946  2.276071  0.0
O  O185  1  0.94725348  0.35917594  0.50227075  1  -1.177335  -0.000819  -0.317394  -0.492632  -0.000946  2.275781  0.0
