# generated using pymatgen
data_NdCuH8C14(NO4)2
_symmetry_space_group_name_H-M   'P 1'
_cell_length_a   9.26136369
_cell_length_b   11.51209079
_cell_length_c   17.26710000
_cell_angle_alpha   104.87774177
_cell_angle_beta   90.00000000
_cell_angle_gamma   113.71900052
_symmetry_Int_Tables_number   1
_chemical_formula_structural   NdCuH8C14(NO4)2
_chemical_formula_sum   'Nd4 Cu4 H32 C56 N8 O32'
_cell_volume   1617.83036012
_cell_formula_units_Z   4
loop_
 _symmetry_equiv_pos_site_id
 _symmetry_equiv_pos_as_xyz
  1  'x, y, z'
loop_
 _atom_site_type_symbol
 _atom_site_label
 _atom_site_symmetry_multiplicity
 _atom_site_fract_x
 _atom_site_fract_y
 _atom_site_fract_z
 _atom_site_occupancy
 _atom_site_hle17_bader_spin_density
 _atom_site_hle17_ddec_charge
 _atom_site_hle17_ddec_spin_density
 _atom_site_hle17_ddec_sum_bond_order
 _atom_site_hle17_magmom
 _atom_site_hse06_10hf_bader_spin_density
 _atom_site_hse06_10hf_ddec_charge
 _atom_site_hse06_10hf_ddec_spin_density
 _atom_site_hse06_10hf_ddec_sum_bond_order
 _atom_site_hse06_10hf_magmom
 _atom_site_hse06_bader_spin_density
 _atom_site_hse06_ddec_charge
 _atom_site_hse06_ddec_spin_density
 _atom_site_hse06_ddec_sum_bond_order
 _atom_site_hse06_magmom
 _atom_site_pbe_bader_charge
 _atom_site_pbe_bader_spin_density
 _atom_site_pbe_cm5_charge
 _atom_site_pbe_ddec_charge
 _atom_site_pbe_ddec_spin_density
 _atom_site_pbe_ddec_sum_bond_order
 _atom_site_pbe_magmom
Nd  Nd0  1  0.30282289  0.96841512  0.92521761  1  0  2.274503  0  1.634703  0  0  2.113629  0  2.101875  0  0  2.21401  0  1.951186  0  2.24505  0  1.469574  2.07948  0  2.137261  0
Nd  Nd1  1  0.33435008  0.03157751  0.57485144  1  0  2.274327  0  1.634687  0  0  2.113909  0  2.10126  0  0  2.213936  0  1.951192  0  2.241068  0  1.469615  2.079539  0  2.136854  0
Nd  Nd2  1  0.69717857  0.03158542  0.07478214  1  0  2.274506  0  1.634685  0  0  2.113648  0  2.101822  0  0  2.214012  0  1.951162  0  2.245118  0  1.46956  2.0795  0  2.137208  0
Nd  Nd3  1  0.66565089  0.96842204  0.42514872  1  0  2.27433  0  1.634656  0  0  2.113846  0  2.101327  0  0  2.213936  0  1.951157  0  2.24105  0  1.469595  2.079477  0  2.13692  0
Cu  Cu4  1  0.23787175  0.32273288  0.13014452  1  0  0.502037  0  1.653223  0  0  0.364465  0  2.091022  0  0  0.372435  0  2.044965  0  0.674559  0  0.552921  0.363721  0  2.119597  0
Cu  Cu5  1  0.91507371  0.67718561  0.36986088  1  0  0.501137  0  1.653414  0  0  0.363687  0  2.091442  0  0  0.371746  0  2.045257  0  0.674557  0  0.552762  0.363118  0  2.11977  0
Cu  Cu6  1  0.76213353  0.67726667  0.86985448  1  0  0.502046  0  1.653237  0  0  0.364501  0  2.091039  0  0  0.372477  0  2.044984  0  0.674547  0  0.552937  0.363759  0  2.119607  0
Cu  Cu7  1  0.08492293  0.32281394  0.63013812  1  0  0.501129  0  1.653387  0  0  0.363692  0  2.09144  0  0  0.371749  0  2.045253  0  0.674541  0  0.552758  0.363118  0  2.119774  0
H  H8  1  0.61613168  0.19529205  0.77713611  1  0  0.128044  0  0.952717  0  0  0.135982  0  1.014124  0  0  0.139292  0  1.012857  0  0.12421  0  0.119825  0.133619  0  1.015131  0
H  H9  1  0.42074271  0.80473518  0.72284735  1  0  0.127805  0  0.953022  0  0  0.13625  0  1.014126  0  0  0.139652  0  1.01274  0  0.124855  0  0.119658  0.133774  0  1.015267  0
H  H10  1  0.38386861  0.80471047  0.22286513  1  0  0.128067  0  0.952696  0  0  0.136008  0  1.014107  0  0  0.139318  0  1.012839  0  0.124193  0  0.119841  0.133643  0  1.015116  0
H  H11  1  0.57925767  0.19526536  0.27715413  1  0  0.127787  0  0.952984  0  0  0.136244  0  1.014078  0  0  0.139644  0  1.01269  0  0.124836  0  0.119662  0.133766  0  1.01522  0
H  H12  1  0.78990107  0.30553359  0.68430023  1  0  0.079228  0  0.94527  0  0  0.089784  0  1.006949  0  0  0.092662  0  1.003621  0  0.085214  0  0.119339  0.087652  0  1.009431  0
H  H13  1  0.48436557  0.69459644  0.81574253  1  0  0.079066  0  0.945641  0  0  0.08957  0  1.007352  0  0  0.09245  0  1.004019  0  0.126324  0  0.119204  0.087423  0  1.009839  0
H  H14  1  0.21009625  0.69446300  0.31569884  1  0  0.079211  0  0.945286  0  0  0.08978  0  1.006946  0  0  0.092657  0  1.003616  0  0.085579  0  0.11935  0.087648  0  1.009426  0
H  H15  1  0.51563913  0.30540410  0.18425721  1  0  0.079114  0  0.945706  0  0  0.089617  0  1.007408  0  0  0.092495  0  1.004077  0  0.126279  0  0.119229  0.087468  0  1.009895  0
H  H16  1  0.16174100  0.23051798  0.75991905  1  0  0.09549  0  0.958578  0  0  0.104139  0  1.020763  0  0  0.107645  0  1.016992  0  0.116803  0  0.121405  0.101621  0  1.023398  0
H  H17  1  0.93113240  0.76942226  0.74002520  1  0  0.095889  0  0.958868  0  0  0.105105  0  1.020214  0  0  0.108581  0  1.016506  0  0.111154  0  0.121546  0.102566  0  1.022865  0
H  H18  1  0.83825781  0.76948157  0.24007994  1  0  0.09552  0  0.958619  0  0  0.10418  0  1.020783  0  0  0.107684  0  1.017014  0  0.116805  0  0.12142  0.101661  0  1.023416  0
H  H19  1  0.06886906  0.23057828  0.25997165  1  0  0.095878  0  0.95892  0  0  0.105137  0  1.020203  0  0  0.108614  0  1.016499  0  0.111154  0  0.12156  0.1026  0  1.022848  0
H  H20  1  0.00682750  0.12775714  0.86170616  1  0  0.123253  0  0.94474  0  0  0.130329  0  1.007906  0  0  0.133934  0  1.006592  0  0.12153  0  0.115236  0.127769  0  1.008837  0
H  H21  1  0.87897647  0.87221868  0.63824766  1  0  0.123051  0  0.94499  0  0  0.130367  0  1.007958  0  0  0.133894  0  1.006747  0  0.110206  0  0.115261  0.127845  0  1.008844  0
H  H22  1  0.99317485  0.87224735  0.13829485  1  0  0.123254  0  0.944699  0  0  0.13031  0  1.007899  0  0  0.133915  0  1.006585  0  0.121627  0  0.115204  0.127747  0  1.008835  0
H  H23  1  0.12102539  0.12778482  0.36175027  1  0  0.123092  0  0.944995  0  0  0.130398  0  1.007972  0  0  0.133925  0  1.00676  0  0.110261  0  0.115283  0.127879  0  1.008853  0
H  H24  1  0.55525851  0.73179238  0.06107697  1  0  0.12865  0  0.988855  0  0  0.135511  0  1.052263  0  0  0.139362  0  1.050422  0  0.178749  0  0.12147  0.132107  0  1.054999  0
H  H25  1  0.82337274  0.26809547  0.43896256  1  0  0.12817  0  0.988406  0  0  0.134996  0  1.052028  0  0  0.138848  0  1.050133  0  0.166379  0  0.121103  0.131664  0  1.054583  0
H  H26  1  0.44473912  0.26820915  0.93892526  1  0  0.128678  0  0.988788  0  0  0.135534  0  1.052209  0  0  0.139379  0  1.050362  0  0.178759  0  0.121464  0.132132  0  1.054941  0
H  H27  1  0.17662558  0.73190309  0.56103859  1  0  0.128136  0  0.988421  0  0  0.134958  0  1.052037  0  0  0.13881  0  1.050141  0  0.166381  0  0.121092  0.131626  0  1.054596  0
H  H28  1  0.49001680  0.56421986  0.13467687  1  0  0.085356  0  0.922561  0  0  0.095021  0  0.983388  0  0  0.098892  0  0.979029  0  0.096686  0  0.122121  0.092164  0  0.986563  0
H  H29  1  0.92576145  0.43564031  0.36534344  1  0  0.085757  0  0.921463  0  0  0.094963  0  0.982704  0  0  0.098883  0  0.978321  0  0.113117  0  0.121972  0.092026  0  0.985959  0
H  H30  1  0.50998093  0.43577969  0.86532329  1  0  0.08538  0  0.922516  0  0  0.095035  0  0.983356  0  0  0.098907  0  0.978996  0  0.096665  0  0.122124  0.092179  0  0.986532  0
H  H31  1  0.07423745  0.56435726  0.63465637  1  0  0.085693  0  0.921492  0  0  0.094942  0  0.982711  0  0  0.098865  0  0.978326  0  0.113111  0  0.121963  0.092005  0  0.985966  0
H  H32  1  0.05222035  0.33347948  0.99611651  1  0  0.098673  0  0.92849  0  0  0.105725  0  0.991866  0  0  0.108783  0  0.989416  0  0.130388  0  0.125527  0.103432  0  0.993732  0
H  H33  1  0.71881508  0.66648054  0.50388267  1  0  0.098688  0  0.927594  0  0  0.105976  0  0.990732  0  0  0.108987  0  0.988319  0  0.125921  0  0.125723  0.10361  0  0.992759  0
H  H34  1  0.94777796  0.66651909  0.00388290  1  0  0.098712  0  0.928486  0  0  0.105765  0  0.991865  0  0  0.108825  0  0.989413  0  0.130418  0  0.125536  0.10347  0  0.993732  0
H  H35  1  0.28118471  0.33352099  0.49611666  1  0  0.098686  0  0.927771  0  0  0.106029  0  0.990843  0  0  0.10904  0  0.988429  0  0.125921  0  0.125725  0.103663  0  0.99287  0
H  H36  1  0.09743373  0.50100455  0.91859584  1  0  0.11777  0  0.941931  0  0  0.12787  0  0.999229  0  0  0.131239  0  0.998347  0  0.101054  0  0.114475  0.125443  0  0.999932  0
H  H37  1  0.59652027  0.49903553  0.58145179  1  0  0.117193  0  0.942429  0  0  0.127429  0  0.999608  0  0  0.130807  0  0.998779  0  0.106386  0  0.114437  0.124978  0  1.000326  0
H  H38  1  0.90256823  0.49899698  0.08140581  1  0  0.11777  0  0.941881  0  0  0.127885  0  0.999156  0  0  0.131256  0  0.998271  0  0.101038  0  0.114483  0.125453  0  0.999872  0
H  H39  1  0.40348169  0.50096600  0.41854870  1  0  0.117186  0  0.942422  0  0  0.127422  0  0.999604  0  0  0.130803  0  0.998771  0  0.106396  0  0.114443  0.124971  0  1.000322  0
C  C40  1  0.69490458  0.08247556  0.88230753  1  0  0.703751  0  3.880722  0  0  0.658297  0  4.169706  0  0  0.693523  0  4.160696  0  1.61659  0  0.23153  0.634613  0  4.176933  0
C  C41  1  0.61241450  0.91741922  0.61758666  1  0  0.702145  0  3.884999  0  0  0.656475  0  4.173671  0  0  0.691617  0  4.164827  0  1.601862  0  0.23084  0.632839  0  4.18093  0
C  C42  1  0.30509688  0.91752498  0.11769337  1  0  0.703865  0  3.880418  0  0  0.658309  0  4.169571  0  0  0.693534  0  4.160559  0  1.616542  0  0.231515  0.634625  0  4.176799  0
C  C43  1  0.38758530  0.08258231  0.38241326  1  0  0.702163  0  3.885064  0  0  0.656449  0  4.173822  0  0  0.691592  0  4.164979  0  1.601816  0  0.230843  0.632815  0  4.18108  0
C  C44  1  0.79760133  0.15141507  0.82637124  1  0  -0.015819  0  3.713389  0  0  0.002096  0  3.943891  0  0  0.001009  0  3.962025  0  0.001722  0  0.000936  0.00286  0  3.931121  0
C  C45  1  0.64607083  0.84853704  0.67358431  1  0  -0.015778  0  3.712921  0  0  0.003497  0  3.94185  0  0  0.002463  0  3.959983  0  0.005869  0  0.001438  0.004248  0  3.929074  0
C  C46  1  0.20240269  0.84858844  0.17362902  1  0  -0.015877  0  3.713304  0  0  0.002044  0  3.943881  0  0  0.000958  0  3.962012  0  0.001651  0  0.000915  0.002812  0  3.931105  0
C  C47  1  0.35392857  0.15146153  0.32641625  1  0  -0.015814  0  3.71286  0  0  0.00345  0  3.941841  0  0  0.002415  0  3.959973  0  0.005857  0  0.001369  0.004201  0  3.929066  0
C  C48  1  0.73721396  0.20348445  0.77637543  1  0  -0.099724  0  3.691201  0  0  -0.121051  0  3.93435  0  0  -0.125632  0  3.954056  0  0.003329  0  -0.069527  -0.118173  0  3.921317  0
C  C49  1  0.53362804  0.79654476  0.72361011  1  0  -0.099255  0  3.691078  0  0  -0.121821  0  3.934225  0  0  -0.126472  0  3.953913  0  2.9e-05  0  -0.069438  -0.1188  0  3.921068  0
C  C50  1  0.26278535  0.79651609  0.22362605  1  0  -0.099792  0  3.691198  0  0  -0.121133  0  3.934387  0  0  -0.125715  0  3.954093  0  0.003355  0  -0.069564  -0.118256  0  3.921355  0
C  C51  1  0.46637292  0.20345479  0.27638946  1  0  -0.099141  0  3.690904  0  0  -0.121705  0  3.934051  0  0  -0.126355  0  3.953745  0  0.000123  0  -0.069398  -0.118683  0  3.920893  0
C  C52  1  0.83300293  0.26363156  0.72386190  1  0  0.118463  0  3.682906  0  0  0.090574  0  3.925474  0  0  0.097325  0  3.940689  0  0.439125  0  0.044913  0.085932  0  3.915745  0
C  C53  1  0.56933976  0.73648957  0.77616370  1  0  0.118636  0  3.683078  0  0  0.090992  0  3.925782  0  0  0.097721  0  3.941016  0  0.399612  0  0.044918  0.086377  0  3.915929  0
C  C54  1  0.16699439  0.73636502  0.27613774  1  0  0.118481  0  3.68289  0  0  0.090593  0  3.925457  0  0  0.097342  0  3.940676  0  0.438747  0  0.044899  0.085951  0  3.91573  0
C  C55  1  0.43066337  0.26350998  0.22383472  1  0  0.118472  0  3.683246  0  0  0.090811  0  3.925944  0  0  0.097529  0  3.941171  0  0.399587  0  0.044858  0.086197  0  3.916089  0
C  C56  1  0.04168976  0.22279609  0.76702885  1  0  0.110415  0  3.675047  0  0  0.081435  0  3.918388  0  0  0.087856  0  3.934239  0  0.450928  0  0.037816  0.077012  0  3.908246  0
C  C57  1  0.81880249  0.77714712  0.73290954  1  0  0.109366  0  3.675726  0  0  0.079572  0  3.919763  0  0  0.086183  0  3.935235  0  0.484057  0  0.037664  0.07516  0  3.909648  0
C  C58  1  0.95830747  0.77720247  0.23297056  1  0  0.110352  0  3.675054  0  0  0.08136  0  3.918389  0  0  0.087789  0  3.934225  0  0.450892  0  0.037825  0.07694  0  3.908249  0
C  C59  1  0.18119946  0.22285441  0.26708806  1  0  0.109405  0  3.675701  0  0  0.07959  0  3.91969  0  0  0.086183  0  3.935166  0  0.484215  0  0.037705  0.07518  0  3.909574  0
C  C60  1  0.95420220  0.16480976  0.82281779  1  0  -0.11665  0  3.707865  0  0  -0.138187  0  3.956006  0  0  -0.143995  0  3.977078  0  -0.038902  0  -0.074524  -0.134376  0  3.94182  0
C  C61  1  0.78929838  0.83514234  0.67713776  1  0  -0.116236  0  3.708224  0  0  -0.138301  0  3.956353  0  0  -0.144073  0  3.977453  0  -0.033591  0  -0.074613  -0.134547  0  3.942164  0
C  C62  1  0.04579769  0.83518979  0.17718237  1  0  -0.116606  0  3.707655  0  0  -0.138113  0  3.95579  0  0  -0.143923  0  3.976863  0  -0.038867  0  -0.074497  -0.134301  0  3.941601  0
C  C63  1  0.21070200  0.16485819  0.32286140  1  0  -0.116308  0  3.708172  0  0  -0.138375  0  3.956328  0  0  -0.144148  0  3.977428  0  -0.033689  0  -0.074629  -0.134624  0  3.942142  0
C  C64  1  0.34988017  0.74233634  0.94910889  1  0  0.650876  0  3.936854  0  0  0.604261  0  4.228973  0  0  0.637706  0  4.224705  0  1.557586  0  0.204845  0.581265  0  4.235269  0
C  C65  1  0.60748565  0.25759204  0.55092541  1  0  0.651572  0  3.935355  0  0  0.605092  0  4.227332  0  0  0.63848  0  4.223083  0  1.561699  0  0.203999  0.581977  0  4.233822  0
C  C66  1  0.65011805  0.25766420  0.05089259  1  0  0.650875  0  3.93691  0  0  0.604261  0  4.229037  0  0  0.637705  0  4.22477  0  1.557621  0  0.204925  0.581264  0  4.235334  0
C  C67  1  0.39251198  0.74240949  0.44907450  1  0  0.651635  0  3.935268  0  0  0.605164  0  4.227239  0  0  0.638553  0  4.222994  0  1.561698  0  0.204061  0.582049  0  4.233725  0
C  C68  1  0.32867807  0.63142561  0.98467007  1  0  -0.010671  0  3.714359  0  0  0.011403  0  3.942389  0  0  0.009672  0  3.961212  0  0.013823  0  0.005724  0.01265  0  3.929169  0
C  C69  1  0.69718955  0.36850277  0.51535380  1  0  -0.012736  0  3.715232  0  0  0.009387  0  3.943288  0  0  0.007667  0  3.962092  0  -0.003295  0  0.005136  0.010508  0  3.930265  0
C  C70  1  0.67131907  0.36857493  0.01533025  1  0  -0.010715  0  3.714632  0  0  0.011346  0  3.942656  0  0  0.009617  0  3.961479  0  0.013814  0  0.005724  0.012594  0  3.929435  0
C  C71  1  0.30280710  0.63149678  0.48464519  1  0  -0.012795  0  3.715169  0  0  0.00931  0  3.943225  0  0  0.007587  0  3.962029  0  -0.003294  0  0.005103  0.010432  0  3.930203  0
C  C72  1  0.44219108  0.64607664  0.04382510  1  0  -0.099505  0  3.688924  0  0  -0.126198  0  3.936834  0  0  -0.130824  0  3.957666  0  -0.011326  0  -0.067791  -0.123357  0  3.923623  0
C  C73  1  0.79602978  0.35381517  0.45620005  1  0  -0.098942  0  3.686887  0  0  -0.125565  0  3.934866  0  0  -0.130208  0  3.955728  0  -0.055456  0  -0.067385  -0.122713  0  3.921505  0
C  C74  1  0.55780871  0.35392489  0.95617597  1  0  -0.099564  0  3.689079  0  0  -0.126234  0  3.93697  0  0  -0.130849  0  3.957796  0  -0.011351  0  -0.067782  -0.12339  0  3.923754  0
C  C75  1  0.20396746  0.64618339  0.54379994  1  0  -0.098895  0  3.686842  0  0  -0.125491  0  3.934816  0  0  -0.130145  0  3.955707  0  -0.055462  0  -0.06736  -0.122634  0  3.921439  0
C  C76  1  0.40695569  0.55156553  0.08527113  1  0  0.110032  0  3.697618  0  0  0.081205  0  3.946962  0  0  0.086508  0  3.963607  0  0.404932  0  0.042052  0.077485  0  3.936455  0
C  C77  1  0.85534726  0.44830750  0.41474038  1  0  0.109325  0  3.695143  0  0  0.081084  0  3.944521  0  0  0.086261  0  3.961131  0  0.474686  0  0.04223  0.077569  0  3.933831  0
C  C78  1  0.59304203  0.44843402  0.91472960  1  0  0.109989  0  3.697518  0  0  0.081143  0  3.946856  0  0  0.086444  0  3.9635  0  0.404916  0  0.04198  0.077409  0  3.936374  0
C  C79  1  0.14465056  0.55169008  0.58525828  1  0  0.109377  0  3.695237  0  0  0.081088  0  3.94461  0  0  0.086261  0  3.961221  0  0.474683  0  0.042202  0.077576  0  3.933917  0
C  C80  1  0.16124965  0.42377577  0.00812136  1  0  0.120675  0  3.663536  0  0  0.09254  0  3.909258  0  0  0.098305  0  3.926044  0  0.443531  0  0.046844  0.088887  0  3.898067  0
C  C81  1  0.73751392  0.57616843  0.49188727  1  0  0.119795  0  3.661475  0  0  0.091841  0  3.907513  0  0  0.097548  0  3.924293  0  0.436331  0  0.046294  0.088055  0  3.896554  0
C  C82  1  0.83874817  0.57622181  0.99187961  1  0  0.120548  0  3.663669  0  0  0.092386  0  3.9094  0  0  0.098151  0  3.926181  0  0.443539  0  0.046821  0.088733  0  3.898206  0
C  C83  1  0.26248488  0.42383112  0.50811172  1  0  0.119738  0  3.661699  0  0  0.091731  0  3.90774  0  0  0.097436  0  3.92452  0  0.436281  0  0.046256  0.087944  0  3.896781  0
C  C84  1  0.18731167  0.51601340  0.96526977  1  0  -0.117642  0  3.705582  0  0  -0.138828  0  3.947283  0  0  -0.144542  0  3.969277  0  -0.009722  0  -0.072708  -0.134981  0  3.932278  0
C  C85  1  0.67135582  0.48396440  0.53476778  1  0  -0.115227  0  3.706429  0  0  -0.136561  0  3.947642  0  0  -0.142337  0  3.969655  0  -0.033453  0  -0.071956  -0.132709  0  3.932858  0
C  C86  1  0.81268664  0.48398516  0.03473022  1  0  -0.117515  0  3.705628  0  0  -0.138698  0  3.947307  0  0  -0.144415  0  3.969308  0  -0.009727  0  -0.072705  -0.134854  0  3.932299  0
C  C87  1  0.32864083  0.51603515  0.46523122  1  0  -0.115128  0  3.706375  0  0  -0.136462  0  3.947609  0  0  -0.142237  0  3.96962  0  -0.033407  0  -0.071924  -0.132611  0  3.932826  0
C  C88  1  0.94594539  0.92798789  0.97634401  1  0  0.561314  0  3.918947  0  0  0.518143  0  4.206353  0  0  0.547682  0  4.202853  0  1.590878  0  0.213245  0.497678  0  4.212276  0
C  C89  1  0.01795627  0.07202056  0.52366230  1  0  0.559217  0  3.919966  0  0  0.515967  0  4.207808  0  0  0.545487  0  4.204375  0  1.605572  0  0.212129  0.495503  0  4.213668  0
C  C90  1  0.05405764  0.07201364  0.02365417  1  0  0.561185  0  3.919145  0  0  0.518088  0  4.206475  0  0  0.547626  0  4.202974  0  1.611646  0  0.213222  0.497621  0  4.212397  0
C  C91  1  0.98204587  0.92797701  0.47633867  1  0  0.559056  0  3.919906  0  0  0.515775  0  4.2078  0  0  0.545293  0  4.204369  0  1.58328  0  0.212058  0.495322  0  4.21365  0
C  C92  1  0.21751209  0.92454012  0.73102829  1  0  0.555464  0  3.951115  0  0  0.510801  0  4.254178  0  0  0.540205  0  4.249651  0  1.595446  0  0.213509  0.490451  0  4.260648  0
C  C93  1  0.29303011  0.07556618  0.76908048  1  0  0.555218  0  3.952939  0  0  0.511122  0  4.255214  0  0  0.540471  0  4.250715  0  1.581493  0  0.213496  0.490794  0  4.26167  0
C  C94  1  0.78248830  0.07546042  0.26897261  1  0  0.555511  0  3.951003  0  0  0.510853  0  4.254068  0  0  0.540258  0  4.249541  0  1.595447  0  0.213569  0.490504  0  4.260537  0
C  C95  1  0.70697027  0.92443435  0.23092042  1  0  0.555194  0  3.952876  0  0  0.511082  0  4.255178  0  0  0.540431  0  4.250682  0  1.581738  0  0.213469  0.490753  0  4.261634  0
N  N96  1  0.98163616  0.27019991  0.71710424  1  0  -0.299796  0  3.454839  0  0  -0.217177  0  3.755209  0  0  -0.227943  0  3.761207  0  -1.210504  0  -0.381348  -0.210802  0  3.750871  0
N  N97  1  0.71138721  0.72985202  0.78288750  1  0  -0.299929  0  3.453944  0  0  -0.217162  0  3.754182  0  0  -0.227931  0  3.760191  0  -1.235255  0  -0.381504  -0.210788  0  3.749832  0
N  N98  1  0.01836107  0.72979865  0.28289400  1  0  -0.299751  0  3.454817  0  0  -0.217122  0  3.755171  0  0  -0.227889  0  3.761172  0  -1.210497  0  -0.381332  -0.21075  0  3.750834  0
N  N99  1  0.28861749  0.27014851  0.21711108  1  0  -0.299883  0  3.453996  0  0  -0.217078  0  3.754197  0  0  -0.227815  0  3.760179  0  -1.23538  0  -0.381513  -0.210702  0  3.749844  0
N  N100  1  0.26777507  0.44242514  0.06892335  1  0  -0.293055  0  3.457129  0  0  -0.211966  0  3.758796  0  0  -0.22191  0  3.764367  0  -1.22447  0  -0.375549  -0.20631  0  3.754896  0
N  N101  1  0.82536028  0.55747754  0.43108223  1  0  -0.291872  0  3.455188  0  0  -0.211444  0  3.75745  0  0  -0.221257  0  3.762834  0  -1.207569  0  -0.375242  -0.205822  0  3.753522  0
N  N102  1  0.73222797  0.55757639  0.93107714  1  0  -0.29303  0  3.457062  0  0  -0.2119  0  3.758702  0  0  -0.221842  0  3.764272  0  -1.224422  0  -0.375515  -0.206237  0  3.754788  0
N  N103  1  0.17463695  0.44252102  0.56891660  1  0  -0.291824  0  3.455216  0  0  -0.211407  0  3.757509  0  0  -0.221216  0  3.762897  0  -1.207561  0  -0.375188  -0.205785  0  3.753582  0
O  O104  1  0.54597055  0.03316993  0.86261932  1  0  -0.727502  0  2.057276  0  0  -0.678276  0  2.31546  0  0  -0.711365  0  2.305368  0  -1.209435  0  -0.38965  -0.660032  0  2.320707  0
O  O105  1  0.51285825  0.96681579  0.63726611  1  0  -0.726692  0  2.059627  0  0  -0.677719  0  2.318395  0  0  -0.710769  0  2.308398  0  -1.192398  0  -0.389527  -0.659537  0  2.323438  0
O  O106  1  0.45403033  0.96683160  0.13738175  1  0  -0.727537  0  2.057143  0  0  -0.678263  0  2.315357  0  0  -0.711349  0  2.305265  0  -1.209442  0  -0.389608  -0.66002  0  2.320605  0
O  O107  1  0.48714096  0.03318673  0.36273513  1  0  -0.726682  0  2.059649  0  0  -0.677683  0  2.318437  0  0  -0.710743  0  2.308441  0  -1.192343  0  -0.389529  -0.6595  0  2.323476  0
O  O108  1  0.76612821  0.08103042  0.94457441  1  0  -0.718478  0  2.043087  0  0  -0.665651  0  2.289547  0  0  -0.697412  0  2.279361  0  -1.195743  0  -0.375846  -0.64767  0  2.29448  0
O  O109  1  0.68509090  0.91876946  0.55532091  1  0  -0.71741  0  2.044282  0  0  -0.664517  0  2.290332  0  0  -0.696198  0  2.28021  0  -1.197943  0  -0.375626  -0.64675  0  2.295683  0
O  O110  1  0.23387266  0.91897111  0.05542666  1  0  -0.7185  0  2.042924  0  0  -0.66563  0  2.289435  0  0  -0.697397  0  2.27926  0  -1.195711  0  -0.375842  -0.647654  0  2.294376  0
O  O111  1  0.31490948  0.08123108  0.44467884  1  0  -0.717423  0  2.044287  0  0  -0.664519  0  2.29036  0  0  -0.696192  0  2.28024  0  -1.197945  0  -0.375619  -0.646751  0  2.295705  0
O  O112  1  0.23931630  0.72772485  0.89919091  1  0  -0.652649  0  1.928221  0  0  -0.606284  0  2.156757  0  0  -0.633112  0  2.14452  0  -1.159671  0  -0.364882  -0.591583  0  2.164163  0
O  O113  1  0.51160739  0.27225197  0.60087775  1  0  -0.652964  0  1.925263  0  0  -0.606694  0  2.153942  0  0  -0.633514  0  2.141765  0  -1.167565  0  -0.364411  -0.592002  0  2.161442  0
O  O114  1  0.76068300  0.27227569  0.10081000  1  0  -0.652601  0  1.928276  0  0  -0.606255  0  2.156828  0  0  -0.63308  0  2.14459  0  -1.159694  0  -0.364867  -0.591549  0  2.164231  0
O  O115  1  0.48839241  0.72774956  0.39912274  1  0  -0.653025  0  1.925213  0  0  -0.606751  0  2.153889  0  0  -0.633579  0  2.141709  0  -1.167522  0  -0.364438  -0.592057  0  2.161389  0
O  O116  1  0.47411437  0.85162698  0.97366326  1  0  -0.790129  0  2.122503  0  0  -0.734284  0  2.383027  0  0  -0.769843  0  2.371098  0  -1.204763  0  -0.399244  -0.717421  0  2.390535  0
O  O117  1  0.62239961  0.14829745  0.52633330  1  0  -0.789867  0  2.123715  0  0  -0.734353  0  2.384595  0  0  -0.769877  0  2.372751  0  -1.199089  0  -0.398893  -0.717425  0  2.391959  0
O  O118  1  0.52588178  0.14837158  0.02633556  1  0  -0.790152  0  2.122482  0  0  -0.734312  0  2.383026  0  0  -0.769871  0  2.371097  0  -1.204782  0  -0.399304  -0.717447  0  2.390532  0
O  O119  1  0.37759862  0.85170309  0.47366703  1  0  -0.78988  0  2.123722  0  0  -0.73437  0  2.384582  0  0  -0.769882  0  2.372727  0  -1.199157  0  -0.398924  -0.717456  0  2.391979  0
O  O120  1  0.00409475  0.86842495  0.92159208  1  0  -0.657655  0  2.077537  0  0  -0.598697  0  2.339727  0  0  -0.629079  0  2.325922  0  -1.180748  0  -0.359031  -0.582041  0  2.348047  0
O  O121  1  0.13561943  0.13158349  0.57844666  1  0  -0.656817  0  2.077341  0  0  -0.597706  0  2.339062  0  0  -0.628002  0  2.325299  0  -1.179977  0  -0.358537  -0.581058  0  2.347402  0
O  O122  1  0.99590514  0.13157460  0.07840634  1  0  -0.657674  0  2.077514  0  0  -0.598698  0  2.33957  0  0  -0.629072  0  2.325752  0  -1.180703  0  -0.359059  -0.582054  0  2.347921  0
O  O123  1  0.86438428  0.86841507  0.42155448  1  0  -0.656755  0  2.07729  0  0  -0.597626  0  2.339027  0  0  -0.62793  0  2.325263  0  -1.179894  0  -0.358522  -0.580982  0  2.347362  0
O  O124  1  0.80620110  0.87779462  0.99437587  1  0  -0.644651  0  2.07198  0  0  -0.592257  0  2.328746  0  0  -0.621281  0  2.316691  0  -1.181188  0  -0.359345  -0.57615  0  2.335808  0
O  O125  1  0.92844195  0.12221087  0.50557549  1  0  -0.643151  0  2.071841  0  0  -0.590604  0  2.328327  0  0  -0.61958  0  2.316374  0  -1.171854  0  -0.358611  -0.574313  0  2.334932  0
O  O126  1  0.19379987  0.12220494  0.00562255  1  0  -0.644566  0  2.072223  0  0  -0.592177  0  2.32893  0  0  -0.62121  0  2.316894  0  -1.18126  0  -0.35929  -0.576069  0  2.335991  0
O  O127  1  0.07156176  0.87778770  0.49442565  1  0  -0.643099  0  2.071743  0  0  -0.590548  0  2.328233  0  0  -0.61952  0  2.316287  0  -1.171972  0  -0.358576  -0.574259  0  2.334833  0
O  O128  1  0.20207169  0.85272912  0.77773735  1  0  -0.647946  0  2.003627  0  0  -0.601953  0  2.244092  0  0  -0.629354  0  2.231252  0  -1.166171  0  -0.359597  -0.586979  0  2.251727  0
O  O129  1  0.34939603  0.14733963  0.72235109  1  0  -0.647698  0  2.004731  0  0  -0.601854  0  2.244728  0  0  -0.62917  0  2.231874  0  -1.182874  0  -0.359243  -0.586869  0  2.252344  0
O  O130  1  0.79792879  0.14726945  0.22226263  1  0  -0.647948  0  2.003605  0  0  -0.601976  0  2.244078  0  0  -0.629375  0  2.231239  0  -1.16621  0  -0.359633  -0.587  0  2.251711  0
O  O131  1  0.65060386  0.85265992  0.27764964  1  0  -0.647697  0  2.004703  0  0  -0.601841  0  2.244707  0  0  -0.629166  0  2.231852  0  -1.182923  0  -0.359226  -0.586856  0  2.252322  0
O  O132  1  0.17353051  0.88513199  0.65566688  1  0  -0.672012  0  2.053913  0  0  -0.622883  0  2.300602  0  0  -0.652206  0  2.29064  0  -1.193953  0  -0.374331  -0.606213  0  2.306195  0
O  O133  1  0.28846349  0.11498024  0.84443712  1  0  -0.671855  0  2.054725  0  0  -0.622514  0  2.300647  0  0  -0.651866  0  2.290708  0  -1.195566  0  -0.374378  -0.606002  0  2.306457  0
O  O134  1  0.82647154  0.11486756  0.34433386  1  0  -0.672046  0  2.053863  0  0  -0.622897  0  2.300522  0  0  -0.652231  0  2.290565  0  -1.193986  0  -0.374351  -0.606227  0  2.306116  0
O  O135  1  0.71153532  0.88501931  0.15556361  1  0  -0.671835  0  2.054713  0  0  -0.622487  0  2.300634  0  0  -0.651841  0  2.290701  0  -1.195761  0  -0.374348  -0.605972  0  2.306443  0
