# generated using pymatgen
data_Zn4H6C24S6Cl2O19
_symmetry_space_group_name_H-M   'P 1'
_cell_length_a   19.62650590
_cell_length_b   19.63963111
_cell_length_c   33.36893774
_cell_angle_alpha   78.98945994
_cell_angle_beta   79.07688033
_cell_angle_gamma   63.95157577
_symmetry_Int_Tables_number   1
_chemical_formula_structural   Zn4H6C24S6Cl2O19
_chemical_formula_sum   'Zn16 H24 C96 S24 Cl8 O76'
_cell_volume   11261.42299110
_cell_formula_units_Z   4
loop_
 _symmetry_equiv_pos_site_id
 _symmetry_equiv_pos_as_xyz
  1  'x, y, z'
loop_
 _atom_site_type_symbol
 _atom_site_label
 _atom_site_symmetry_multiplicity
 _atom_site_fract_x
 _atom_site_fract_y
 _atom_site_fract_z
 _atom_site_occupancy
 _atom_site_pbe_bader_charge
 _atom_site_pbe_bader_spin_density
 _atom_site_pbe_cm5_charge
 _atom_site_pbe_ddec_charge
 _atom_site_pbe_ddec_spin_density
 _atom_site_pbe_ddec_sum_bond_order
 _atom_site_pbe_magmom
Zn  Zn0  1  0.05665817  0.40180860  0.47669219  1  1.312205  0  0.67105  0.968345  0  2.338421  0
Zn  Zn1  1  0.98477716  0.48445123  0.56058766  1  1.315935  0  0.685762  0.980537  0  2.330802  0
Zn  Zn2  1  0.05847397  0.56150291  0.48167618  1  1.327349  0  0.683245  0.979458  0  2.349596  0
Zn  Zn3  1  0.89832933  0.55239227  0.48133290  1  1.326302  0  0.684318  0.981381  0  2.345858  0
Zn  Zn4  1  0.69805922  0.34928723  0.27146472  1  1.315398  0  0.672575  0.969459  0  2.345269  0
Zn  Zn5  1  0.68991645  0.19026439  0.26572931  1  1.32095  0  0.672656  0.965133  0  2.367378  0
Zn  Zn6  1  0.77066798  0.26607279  0.18980277  1  1.327433  0  0.684829  0.98376  0  2.346612  0
Zn  Zn7  1  0.84829227  0.19160765  0.27372781  1  1.324227  0  0.682684  0.974798  0  2.357037  0
Zn  Zn8  1  0.26540298  0.76617009  0.68900861  1  1.304058  0  0.671802  0.963051  0  2.357694  0
Zn  Zn9  1  0.34800089  0.69806050  0.77163177  1  1.326408  0  0.68342  0.97549  0  2.353511  0
Zn  Zn10  1  0.19137287  0.84875245  0.77029305  1  1.318451  0  0.673691  0.970787  0  2.366357  0
Zn  Zn11  1  0.19311066  0.68460172  0.76683109  1  1.322016  0  0.684186  0.982062  0  2.341432  0
Zn  Zn12  1  0.56252124  0.05866324  0.98398916  1  1.312799  0  0.674362  0.968804  0  2.353171  0
Zn  Zn13  1  0.40150923  0.05414731  0.97719103  1  1.316288  0  0.673159  0.966049  0  2.351555  0
Zn  Zn14  1  0.55621749  0.90076660  0.97776203  1  1.320518  0  0.675975  0.971446  0  2.378212  0
Zn  Zn15  1  0.48245299  0.98206289  0.05946636  1  1.314382  0  0.673488  0.965926  0  2.383595  0
H  H16  1  0.75149270  0.44913362  0.34883964  1  0.13262  0  0.114869  0.135128  0  0.990388  0
H  H17  1  0.00264432  0.30123138  0.39981268  1  0.14249  0  0.11345  0.133858  0  0.992752  0
H  H18  1  0.20093993  0.70053422  0.60104128  1  0.113909  0  0.113062  0.133326  0  0.993713  0
H  H19  1  0.04190943  0.55677994  0.64708932  1  0.127823  0  0.115889  0.141553  0  0.988501  0
H  H20  1  0.46428490  0.24229355  0.33976195  1  0.118366  0  0.123186  0.149647  0  0.967829  0
H  H21  1  0.48191383  0.69991818  0.60097835  1  0.148811  0  0.120922  0.146443  0  0.970956  0
H  H22  1  0.20669468  0.98002329  0.60073235  1  0.129623  0  0.124481  0.151987  0  0.965766  0
H  H23  1  0.94952708  0.96203706  0.34300211  1  0.119472  0  0.12595  0.155035  0  0.962687  0
H  H24  1  0.65263813  0.14371105  0.04952409  1  0.116984  0  0.115201  0.136227  0  0.991411  0
H  H25  1  0.59891657  0.10583875  0.20050076  1  0.113997  0  0.11288  0.134223  0  0.994253  0
H  H26  1  0.54872037  0.76996126  0.14773508  1  0.113514  0  0.12316  0.15003  0  0.967145  0
H  H27  1  0.15932997  0.14495670  0.04136568  1  0.135314  0  0.123255  0.149897  0  0.967721  0
H  H28  1  0.30099964  0.00115829  0.90079365  1  0.12587  0  0.112004  0.133164  0  0.995236  0
H  H29  1  0.44113335  0.74907839  0.85078331  1  0.153933  0  0.119191  0.144857  0  0.982949  0
H  H30  1  0.30352143  0.28042982  0.90212182  1  0.121948  0  0.121263  0.146508  0  0.970584  0
H  H31  1  0.78745766  0.00950819  0.90527230  1  0.114738  0  0.123324  0.149758  0  0.966898  0
H  H32  1  0.24139911  0.62539617  0.36476436  1  0.639231  0  0.355818  0.40324  0  0.835355  0
H  H33  1  0.86600282  0.42842891  0.66014400  1  0.672278  0  0.320567  0.402168  0  0.915077  0
H  H34  1  0.09598238  0.31974935  0.68790791  1  0.635355  0  0.363791  0.412514  0  0.821247  0
H  H35  1  0.75851734  0.73065245  0.35827292  1  0.644352  0  0.35455  0.403607  0  0.835702  0
H  H36  1  0.82733233  0.44569585  0.06639535  1  0.618898  0  0.355366  0.403633  0  0.835861  0
H  H37  1  0.13011230  0.15734501  0.25172224  1  0.633515  0  0.354894  0.404325  0  0.833008  0
H  H38  1  0.56526467  0.43589557  0.80599973  1  0.636499  0  0.358223  0.407098  0  0.830349  0
H  H39  1  0.92091314  0.69636743  0.79435885  1  0.652339  0  0.358207  0.408333  0  0.827976  0
C  C40  1  0.06852339  0.31705137  0.55901801  1  1.609534  0  0.220187  0.609675  0  4.217663  0
C  C41  1  0.06739632  0.57378943  0.56681277  1  1.568654  0  0.232123  0.616084  0  4.148036  0
C  C42  1  0.18280879  0.44112148  0.43639717  1  1.615917  0  0.219796  0.60699  0  4.216077  0
C  C43  1  0.93347038  0.68080924  0.43847105  1  1.582154  0  0.220892  0.607735  0  4.216858  0
C  C44  1  0.92988408  0.42912771  0.43268640  1  1.58677  0  0.228738  0.616941  0  4.148885  0
C  C45  1  0.81919534  0.55727464  0.56527040  1  1.595604  0  0.220872  0.610318  0  4.203169  0
C  C46  1  0.56910352  0.31158361  0.31185098  1  1.571607  0  0.22079  0.615747  0  4.207864  0
C  C47  1  0.68193892  0.18365961  0.17943498  1  1.579771  0  0.23109  0.616911  0  4.147408  0
C  C48  1  0.69418318  0.43310907  0.18895707  1  1.615867  0  0.220321  0.609095  0  4.21401  0
C  C49  1  0.93634609  0.18542960  0.19182331  1  1.592683  0  0.221574  0.60941  0  4.215689  0
C  C50  1  0.82050728  0.31721984  0.31979159  1  1.57025  0  0.229486  0.618459  0  4.152239  0
C  C51  1  0.80930501  0.06382589  0.31084961  1  1.573861  0  0.220309  0.610395  0  4.216866  0
C  C52  1  0.43217181  0.69569085  0.68798250  1  1.567068  0  0.219848  0.614217  0  4.209634  0
C  C53  1  0.31229268  0.82353926  0.81911140  1  1.595533  0  0.23106  0.616561  0  4.151627  0
C  C54  1  0.18391590  0.93411987  0.68727572  1  1.583943  0  0.221327  0.613054  0  4.215153  0
C  C55  1  0.06582275  0.80692108  0.80912834  1  1.611801  0  0.220921  0.609759  0  4.217732  0
C  C56  1  0.18272174  0.67641970  0.68129473  1  1.580115  0  0.229522  0.619441  0  4.147066  0
C  C57  1  0.31424216  0.56735523  0.81236690  1  1.610049  0  0.222102  0.607661  0  4.214584  0
C  C58  1  0.43956025  0.18410563  0.93995964  1  1.59898  0  0.219274  0.615095  0  4.211337  0
C  C59  1  0.43291649  0.92961568  0.92949385  1  1.584225  0  0.23  0.619481  0  4.146528  0
C  C60  1  0.68697773  0.93679324  0.94035026  1  1.56744  0  0.219614  0.612644  0  4.216046  0
C  C61  1  0.55875558  0.81544129  0.06078076  1  1.562694  0  0.219988  0.611652  0  4.216057  0
C  C62  1  0.56773100  0.06778333  0.07049576  1  1.574311  0  0.230271  0.618609  0  4.149209  0
C  C63  1  0.31466736  0.05858914  0.05974516  1  1.587494  0  0.219971  0.611835  0  4.216686  0
C  C64  1  0.90014691  0.40428458  0.40255239  1  -0.006504  0  -0.011796  -0.068026  0  3.916446  0
C  C65  1  0.85250061  0.34447528  0.34760655  1  -0.053762  0  -0.011783  -0.07001  0  3.921098  0
C  C66  1  0.82884941  0.44703655  0.38733641  1  0.052817  0  0.022091  0.131955  0  4.022026  0
C  C67  1  0.92487484  0.30285141  0.36174574  1  0.126297  0  0.021894  0.132965  0  4.020513  0
C  C68  1  0.80652487  0.41647031  0.36047822  1  0.041442  0  -0.083115  -0.148051  0  3.950732  0
C  C69  1  0.94700254  0.33320792  0.38878731  1  0.040125  0  -0.084281  -0.151388  0  3.955016  0
C  C70  1  0.09635400  0.60377570  0.59479145  1  0.012705  0  -0.010867  -0.068477  0  3.916126  0
C  C71  1  0.14979626  0.65033550  0.65336030  1  -0.003037  0  -0.012006  -0.070619  0  3.922497  0
C  C72  1  0.14097109  0.64593837  0.58168518  1  0.078858  0  0.02327  0.133854  0  4.020792  0
C  C73  1  0.10364845  0.60975700  0.66642553  1  0.065511  0  0.021749  0.132214  0  4.02317  0
C  C74  1  0.16649800  0.66815480  0.61102914  1  0.055138  0  -0.084274  -0.150411  0  3.952986  0
C  C75  1  0.07789445  0.58761647  0.63716392  1  0.056984  0  -0.081574  -0.148179  0  3.938915  0
C  C76  1  0.30662170  0.45632107  0.40154323  1  -0.077276  0  -0.023823  -0.151019  0  3.977767  0
C  C77  1  0.44829501  0.29833929  0.34855811  1  0.024709  0  -0.088162  -0.134711  0  3.96759  0
C  C78  1  0.25969338  0.41753221  0.41302878  1  -0.149125  0  -0.011793  -0.11234  0  3.930302  0
C  C79  1  0.49433601  0.33728873  0.33724053  1  -0.145191  0  -0.022857  -0.121212  0  3.98188  0
C  C80  1  0.38030880  0.34167302  0.37228027  1  -0.131605  0  -0.019434  -0.003879  0  4.063961  0
C  C81  1  0.37594211  0.41289204  0.37830610  1  -0.165774  0  -0.017961  -0.032189  0  4.065284  0
C  C82  1  0.72729450  0.58243074  0.63376245  1  -0.057481  0  -0.020167  -0.139567  0  3.955678  0
C  C83  1  0.52538364  0.67547843  0.62185766  1  0.091424  0  -0.090028  -0.137122  0  3.973538  0
C  C84  1  0.74514233  0.58617149  0.59114189  1  -0.136967  0  -0.013279  -0.120634  0  3.935368  0
C  C85  1  0.50834067  0.67076489  0.66419247  1  -0.21294  0  -0.025364  -0.128173  0  3.989879  0
C  C86  1  0.60526329  0.64414157  0.61083789  1  -0.177493  0  -0.019304  -0.006432  0  4.067562  0
C  C87  1  0.64713290  0.61593043  0.64507288  1  -0.169547  0  -0.014996  -0.025488  0  4.052444  0
C  C88  1  0.07483016  0.22777870  0.62790371  1  -0.075283  0  -0.024452  -0.159242  0  3.994926  0
C  C89  1  0.17483785  0.02476785  0.62051006  1  0.001748  0  -0.087466  -0.137092  0  3.967953  0
C  C90  1  0.08933186  0.24307067  0.58535553  1  -0.157385  0  -0.010874  -0.112205  0  3.938971  0
C  C91  1  0.15985629  0.00976554  0.66260109  1  -0.16567  0  -0.020412  -0.115103  0  3.972813  0
C  C92  1  0.14329860  0.10421872  0.60815756  1  -0.113941  0  -0.01852  -0.003096  0  4.060414  0
C  C93  1  0.10533458  0.14809343  0.64119874  1  -0.165194  0  -0.018014  -0.033395  0  4.065001  0
C  C94  1  0.83463143  0.80134217  0.39962503  1  -0.135465  0  -0.024405  -0.152536  0  3.983259  0
C  C95  1  0.90256292  0.94476801  0.34989739  1  0.057223  0  -0.08518  -0.130634  0  3.954543  0
C  C96  1  0.90527993  0.75660194  0.41396154  1  -0.088848  0  -0.011586  -0.112588  0  3.932511  0
C  C97  1  0.83220709  0.98894244  0.33600382  1  -0.143758  0  -0.021875  -0.11908  0  3.980505  0
C  C98  1  0.90292890  0.87668153  0.37322818  1  -0.181787  0  -0.019479  -0.006141  0  4.064897  0
C  C99  1  0.83294343  0.87042967  0.37637513  1  -0.107144  0  -0.018082  -0.031513  0  4.067937  0
C  C100  1  0.65465520  0.15484059  0.14995155  1  -0.004245  0  -0.010854  -0.06828  0  3.913416  0
C  C101  1  0.59577821  0.09584065  0.10001921  1  -0.029362  0  -0.012041  -0.071378  0  3.916003  0
C  C102  1  0.67029640  0.16513465  0.10663330  1  0.064961  0  0.025238  0.135259  0  4.018169  0
C  C103  1  0.58075524  0.08505103  0.14334953  1  0.094442  0  0.02091  0.135956  0  4.013971  0
C  C104  1  0.64070633  0.13572397  0.08286331  1  0.094608  0  -0.08255  -0.147756  0  3.946014  0
C  C105  1  0.61023683  0.11441085  0.16714946  1  0.025021  0  -0.084871  -0.15071  0  3.953341  0
C  C106  1  0.67419724  0.52225922  0.11961843  1  -0.028484  0  -0.023437  -0.149871  0  3.976569  0
C  C107  1  0.57617650  0.72512673  0.12775802  1  0.140329  0  -0.089024  -0.136708  0  3.969313  0
C  C108  1  0.66675195  0.50671126  0.16239441  1  -0.205426  0  -0.012186  -0.113802  0  3.934389  0
C  C109  1  0.58397912  0.73991632  0.08534369  1  -0.241326  0  -0.02254  -0.120936  0  3.983655  0
C  C110  1  0.60848969  0.64570755  0.14006723  1  -0.20066  0  -0.019413  -0.003738  0  4.06704  0
C  C111  1  0.64057254  0.60191943  0.10668592  1  -0.118778  0  -0.017367  -0.033344  0  4.066255  0
C  C112  1  0.08497158  0.11537815  0.17978848  1  -0.040333  0  -0.024463  -0.152469  0  3.98162  0
C  C113  1  0.16875659  0.12467696  0.07337342  1  0.058692  0  -0.089067  -0.136972  0  3.970122  0
C  C114  1  0.01227730  0.15764686  0.16748399  1  -0.168989  0  -0.01231  -0.113885  0  3.934082  0
C  C115  1  0.24059068  0.08261682  0.08576698  1  -0.185619  0  -0.022279  -0.118383  0  3.980046  0
C  C116  1  0.11228561  0.13621256  0.10775252  1  -0.234347  0  -0.019656  -0.006158  0  4.065737  0
C  C117  1  0.14253406  0.10278466  0.14557616  1  -0.136879  0  -0.018224  -0.03204  0  4.067967  0
C  C118  1  0.33934522  0.85299413  0.84838598  1  -0.01501  0  -0.01016  -0.068258  0  3.915416  0
C  C119  1  0.40412069  0.89858953  0.90191835  1  0.021659  0  -0.012552  -0.072809  0  3.919285  0
C  C120  1  0.29903228  0.92472850  0.86323757  1  0.066353  0  0.020905  0.135175  0  4.015791  0
C  C121  1  0.44374824  0.82607408  0.88781312  1  0.075636  0  0.024322  0.136391  0  4.012523  0
C  C122  1  0.33193520  0.94586904  0.88939618  1  0.019518  0  -0.084914  -0.150852  0  3.955804  0
C  C123  1  0.41082909  0.80498515  0.86157152  1  0.05499  0  -0.078367  -0.142643  0  3.928349  0
C  C124  1  0.40864843  0.45238032  0.85640368  1  -0.131988  0  -0.022984  -0.150925  0  3.975492  0
C  C125  1  0.34754683  0.30119717  0.89883726  1  0.095882  0  -0.089082  -0.132922  0  3.971581  0
C  C126  1  0.34062323  0.49362233  0.83889863  1  -0.085006  0  -0.010328  -0.113261  0  3.931917  0
C  C127  1  0.41535048  0.26011863  0.91585227  1  -0.215868  0  -0.02581  -0.128002  0  3.986091  0
C  C128  1  0.34520366  0.37132689  0.87742919  1  -0.204845  0  -0.020045  -0.009716  0  4.068312  0
C  C129  1  0.41147312  0.38210242  0.87857843  1  -0.142787  0  -0.017058  -0.029227  0  4.059836  0
C  C130  1  0.94772767  0.78795300  0.85083101  1  -0.117741  0  -0.023187  -0.149246  0  3.977348  0
C  C131  1  0.80503440  0.95107834  0.89963076  1  0.092859  0  -0.087839  -0.134023  0  3.968899  0
C  C132  1  0.99185894  0.82881864  0.83533960  1  -0.138597  0  -0.011538  -0.114649  0  3.938742  0
C  C133  1  0.76161349  0.91023993  0.91501556  1  -0.1569  0  -0.02355  -0.123382  0  3.984784  0
C  C134  1  0.87283948  0.90612624  0.87640899  1  -0.233839  0  -0.019973  -0.00703  0  4.06844  0
C  C135  1  0.87937906  0.83210383  0.87450632  1  -0.095595  0  -0.017239  -0.030416  0  4.061349  0
S  S136  1  0.30024414  0.32866556  0.39580794  1  0.295892  0  0.111847  0.164111  0  2.742897  0
S  S137  1  0.45637086  0.42575303  0.35528797  1  0.334292  0  0.10442  0.170484  0  2.814293  0
S  S138  1  0.66477611  0.63146825  0.56525017  1  0.30463  0  0.114624  0.171824  0  2.740294  0
S  S139  1  0.58807908  0.62934020  0.69082031  1  0.35182  0  0.110799  0.181075  0  2.81688  0
S  S140  1  0.13940743  0.16101316  0.56175578  1  0.329968  0  0.121618  0.177502  0  2.741091  0
S  S141  1  0.10763485  0.09102512  0.68745854  1  0.333093  0  0.107972  0.171747  0  2.80007  0
S  S142  1  0.96881185  0.79873960  0.39938647  1  0.312496  0  0.117249  0.172478  0  2.747349  0
S  S143  1  0.76636766  0.94902783  0.35092027  1  0.330094  0  0.100995  0.165369  0  2.814916  0
S  S144  1  0.61863418  0.58859973  0.18652491  1  0.297092  0  0.111491  0.164085  0  2.743511  0
S  S145  1  0.62953271  0.65870056  0.06011288  1  0.343282  0  0.11092  0.179391  0  2.810506  0
S  S146  1  0.01419777  0.18127034  0.11469293  1  0.330442  0  0.117239  0.173443  0  2.751275  0
S  S147  1  0.24058168  0.05652892  0.13865052  1  0.376605  0  0.102798  0.168711  0  2.821659  0
S  S148  1  0.28029317  0.44767872  0.84984730  1  0.333824  0  0.122939  0.182946  0  2.741894  0
S  S149  1  0.47618170  0.30604831  0.90649649  1  0.33772  0  0.103642  0.170367  0  2.810016  0
S  S150  1  0.95065340  0.91993054  0.84974644  1  0.334224  0  0.114882  0.170027  0  2.750814  0
S  S151  1  0.80210202  0.81777794  0.90171648  1  0.337441  0  0.106741  0.174143  0  2.811127  0
S  S152  1  0.29099837  0.54567289  0.41508439  1  3.087102  0  0.543109  1.17617  0  5.995145  0
S  S153  1  0.79041162  0.54510745  0.67239618  1  3.134863  0  0.53782  1.184886  0  6.038266  0
S  S154  1  0.01917677  0.29448463  0.66298498  1  3.098387  0  0.557821  1.190367  0  5.971935  0
S  S155  1  0.75160668  0.78320121  0.40988017  1  3.100332  0  0.541477  1.17591  0  5.999381  0
S  S156  1  0.71375684  0.45606227  0.08287535  1  3.107082  0  0.54364  1.177046  0  5.992197  0
S  S157  1  0.10897485  0.07409699  0.23020419  1  3.070198  0  0.541001  1.176594  0  6.000776  0
S  S158  1  0.48282641  0.48117281  0.85628330  1  3.094292  0  0.544408  1.1771  0  6.000345  0
S  S159  1  0.97106275  0.69108614  0.84671302  1  3.106205  0  0.542754  1.176785  0  6.002586  0
Cl  Cl160  1  0.76719624  0.53769929  0.39877857  1  -0.158492  0  -0.000973  -0.055665  0  1.519799  0
Cl  Cl161  1  0.99061049  0.21628203  0.34629829  1  -0.171821  0  -0.005637  -0.061264  0  1.513535  0
Cl  Cl162  1  0.16595468  0.67363684  0.53099658  1  -0.164846  0  0.001337  -0.050695  0  1.515784  0
Cl  Cl163  1  0.07443843  0.58695026  0.71729627  1  -0.175879  0  -0.00495  -0.060382  0  1.51275  0
Cl  Cl164  1  0.72520010  0.21153765  0.08032398  1  -0.151272  0  0.006912  -0.044128  0  1.512975  0
Cl  Cl165  1  0.52796724  0.03618465  0.16999424  1  -0.175176  0  -0.014198  -0.075164  0  1.475614  0
Cl  Cl166  1  0.20905802  0.98959768  0.85173592  1  -0.180806  0  -0.013825  -0.07488  0  1.473771  0
Cl  Cl167  1  0.53128609  0.75926494  0.90145289  1  -0.163504  0  0.003154  -0.053802  0  1.475543  0
O  O168  1  0.00040516  0.49876573  0.49995585  1  -1.223216  0  -0.572457  -1.040984  0  2.521729  0
O  O169  1  0.07425464  0.31433270  0.52044337  1  -1.140535  0  -0.314768  -0.538788  0  2.309618  0
O  O170  1  0.01962563  0.54586140  0.58384773  1  -1.15748  0  -0.308839  -0.532096  0  2.335514  0
O  O171  1  0.14735117  0.51081969  0.44232024  1  -1.159951  0  -0.301923  -0.515451  0  2.371503  0
O  O172  1  0.04809841  0.37561515  0.57698658  1  -1.162734  0  -0.304738  -0.52384  0  2.373436  0
O  O173  1  0.15880110  0.38858664  0.44802623  1  -1.163816  0  -0.316673  -0.543233  0  2.317359  0
O  O174  1  0.09288814  0.57722792  0.52885284  1  -1.158409  0  -0.307655  -0.535971  0  2.407034  0
O  O175  1  0.99613964  0.66108345  0.45312618  1  -1.161419  0  -0.313683  -0.538399  0  2.331516  0
O  O176  1  0.88219734  0.48254638  0.45317457  1  -1.165192  0  -0.31077  -0.543211  0  2.39629  0
O  O177  1  0.89443424  0.64222341  0.44221976  1  -1.155268  0  -0.302326  -0.516181  0  2.36604  0
O  O178  1  0.00141941  0.39311533  0.43575589  1  -1.164407  0  -0.313305  -0.540389  0  2.313671  0
O  O179  1  0.87746081  0.50778582  0.58212146  1  -1.160403  0  -0.306022  -0.529267  0  2.350859  0
O  O180  1  0.81756446  0.58425425  0.52716468  1  -1.161576  0  -0.311974  -0.534557  0  2.335049  0
O  O181  1  0.75111968  0.24994999  0.25015783  1  -1.235941  0  -0.572163  -1.037645  0  2.527033  0
O  O182  1  0.60411199  0.35483061  0.30717614  1  -1.15401  0  -0.318047  -0.546053  0  2.323263  0
O  O183  1  0.67068609  0.16021108  0.21753770  1  -1.160297  0  -0.314213  -0.543262  0  2.328407  0
O  O184  1  0.74255391  0.37507853  0.17197701  1  -1.156996  0  -0.304562  -0.520215  0  2.372948  0
O  O185  1  0.59172698  0.24906358  0.29681193  1  -1.168217  0  -0.314838  -0.536796  0  2.310844  0
O  O186  1  0.66714055  0.43520367  0.22700895  1  -1.158529  0  -0.316279  -0.542167  0  2.316655  0
O  O187  1  0.71325690  0.22904318  0.16469688  1  -1.156281  0  -0.305642  -0.53343  0  2.408842  0
O  O188  1  0.87974785  0.21127462  0.17097630  1  -1.158856  0  -0.31394  -0.540011  0  2.332708  0
O  O189  1  0.85143110  0.24636024  0.31625340  1  -1.151881  0  -0.310748  -0.543081  0  2.400041  0
O  O190  1  0.93396200  0.18226659  0.23043040  1  -1.147789  0  -0.302137  -0.516207  0  2.366926  0
O  O191  1  0.76328599  0.36785479  0.30232533  1  -1.170382  0  -0.313076  -0.540271  0  2.313782  0
O  O192  1  0.74082292  0.09528608  0.30159064  1  -1.1712  0  -0.318256  -0.546887  0  2.332172  0
O  O193  1  0.85973378  0.09044617  0.30061001  1  -1.165315  0  -0.309688  -0.525014  0  2.319159  0
O  O194  1  0.24900898  0.74963754  0.74931527  1  -1.217333  0  -0.571292  -1.036864  0  2.526371  0
O  O195  1  0.37451413  0.72169480  0.66795501  1  -1.169273  0  -0.317961  -0.541625  0  2.303108  0
O  O196  1  0.35284119  0.75416547  0.81279513  1  -1.173179  0  -0.306663  -0.5294  0  2.337742  0
O  O197  1  0.16170753  0.93414532  0.72586453  1  -1.156236  0  -0.316196  -0.540923  0  2.32826  0
O  O198  1  0.43094799  0.68861424  0.72701052  1  -1.167159  0  -0.316356  -0.543241  0  2.340583  0
O  O199  1  0.22450744  0.87625741  0.66809574  1  -1.166768  0  -0.312985  -0.534774  0  2.305427  0
O  O200  1  0.25250685  0.86925944  0.80258270  1  -1.166808  0  -0.312767  -0.545404  0  2.404413  0
O  O201  1  0.09760228  0.85284770  0.80552820  1  -1.168601  0  -0.316008  -0.542015  0  2.334905  0
O  O202  1  0.18317032  0.64733453  0.71874495  1  -1.159915  0  -0.31118  -0.544228  0  2.394695  0
O  O203  1  0.09039783  0.74624283  0.79239673  1  -1.157457  0  -0.3015  -0.515275  0  2.370033  0
O  O204  1  0.20896005  0.72574471  0.66467966  1  -1.167995  0  -0.313954  -0.542598  0  2.325476  0
O  O205  1  0.36271694  0.59509343  0.79818303  1  -1.150516  0  -0.301442  -0.516406  0  2.374758  0
O  O206  1  0.24435040  0.59556437  0.80567587  1  -1.156151  0  -0.310325  -0.531609  0  2.33002  0
O  O207  1  0.50024772  0.99983371  0.99931809  1  -1.222385  0  -0.571629  -1.031812  0  2.528098  0
O  O208  1  0.50401051  0.15802852  0.95384126  1  -1.176699  0  -0.318357  -0.546399  0  2.333225  0
O  O209  1  0.38507803  0.99177116  0.94354960  1  -1.170131  0  -0.314495  -0.54453  0  2.325472  0
O  O210  1  0.65835162  0.88781916  0.95147082  1  -1.173082  0  -0.317012  -0.542767  0  2.34235  0
O  O211  1  0.39450779  0.15123502  0.94471506  1  -1.1701  0  -0.316781  -0.540982  0  2.311155  0
O  O212  1  0.65759955  0.00539568  0.94889246  1  -1.167465  0  -0.314736  -0.536645  0  2.305064  0
O  O213  1  0.50208179  0.89290584  0.93652759  1  -1.168797  0  -0.310575  -0.542701  0  2.411614  0
O  O214  1  0.56844520  0.81570815  0.02176136  1  -1.14434  0  -0.315287  -0.541121  0  2.33651  0
O  O215  1  0.52123649  0.03767135  0.08513622  1  -1.164186  0  -0.31132  -0.542896  0  2.412039  0
O  O216  1  0.53004402  0.87340638  0.08052944  1  -1.164069  0  -0.314243  -0.534975  0  2.314421  0
O  O217  1  0.59298065  0.07685168  0.03256117  1  -1.161821  0  -0.311812  -0.539883  0  2.32478  0
O  O218  1  0.31420033  0.07929128  0.02112638  1  -1.172514  0  -0.314046  -0.53506  0  2.300864  0
O  O219  1  0.37310028  0.01868420  0.07894408  1  -1.171247  0  -0.317207  -0.543228  0  2.345555  0
O  O220  1  0.21982941  0.60649227  0.39106153  1  -1.184248  0  -0.357113  -0.523735  0  2.135752  0
O  O221  1  0.26585111  0.54924865  0.45798131  1  -1.262286  0  -0.292293  -0.487994  0  2.153247  0
O  O222  1  0.35729706  0.55883094  0.39586846  1  -1.290958  0  -0.318373  -0.545455  0  2.143324  0
O  O223  1  0.81533255  0.45585784  0.67574352  1  -1.229597  0  -0.363396  -0.540046  0  2.186808  0
O  O224  1  0.85563990  0.56267509  0.65980090  1  -1.292085  0  -0.318146  -0.53126  0  2.123617  0
O  O225  1  0.74166223  0.56830906  0.70988588  1  -1.2931  0  -0.314159  -0.524476  0  2.145358  0
O  O226  1  0.06750099  0.34225620  0.66400731  1  -1.178562  0  -0.34491  -0.513065  0  2.138912  0
O  O227  1  0.95029611  0.34812246  0.64608805  1  -1.301547  0  -0.283462  -0.504393  0  2.221892  0
O  O228  1  0.01652004  0.25107180  0.70280038  1  -1.287227  0  -0.307228  -0.531707  0  2.135547  0
O  O229  1  0.77457295  0.71073619  0.38578941  1  -1.190867  0  -0.356783  -0.530694  0  2.183055  0
O  O230  1  0.73817947  0.75841261  0.45254282  1  -1.272874  0  -0.295264  -0.486892  0  2.117357  0
O  O231  1  0.69397422  0.84801507  0.38887294  1  -1.297774  0  -0.319519  -0.545627  0  2.142123  0
O  O232  1  0.80420118  0.41700503  0.08716858  1  -1.172693  0  -0.358401  -0.527074  0  2.13293  0
O  O233  1  0.68787517  0.39672041  0.09436076  1  -1.273687  0  -0.29293  -0.489852  0  2.15398  0
O  O234  1  0.70405503  0.50174839  0.04323044  1  -1.290472  0  -0.313802  -0.539167  0  2.142974  0
O  O235  1  0.08507737  0.14664494  0.25436650  1  -1.182082  0  -0.355215  -0.529077  0  2.178764  0
O  O236  1  0.06178978  0.03615399  0.25027239  1  -1.27172  0  -0.299401  -0.490964  0  2.109025  0
O  O237  1  0.19130343  0.03496887  0.22601288  1  -1.273354  0  -0.319247  -0.546104  0  2.142093  0
O  O238  1  0.51952006  0.48382960  0.80875087  1  -1.177156  0  -0.35394  -0.521662  0  2.137612  0
O  O239  1  0.45129847  0.55732800  0.86657663  1  -1.272606  0  -0.294983  -0.487209  0  2.111251  0
O  O240  1  0.53915933  0.41843293  0.87913978  1  -1.295002  0  -0.318046  -0.545596  0  2.140511  0
O  O241  1  0.97157130  0.69021354  0.79841738  1  -1.191602  0  -0.354251  -0.527558  0  2.178808  0
O  O242  1  0.04717104  0.64349320  0.85607437  1  -1.278569  0  -0.29936  -0.49287  0  2.117011  0
O  O243  1  0.90666554  0.67692898  0.86844872  1  -1.294234  0  -0.318  -0.543574  0  2.141102  0
