# generated using pymatgen
data_AgH10C12SNO3
_symmetry_space_group_name_H-M   'P 1'
_cell_length_a   5.24276843
_cell_length_b   10.85849096
_cell_length_c   11.18371534
_cell_angle_alpha   119.09935811
_cell_angle_beta   88.14899902
_cell_angle_gamma   99.14122669
_symmetry_Int_Tables_number   1
_chemical_formula_structural   AgH10C12SNO3
_chemical_formula_sum   'Ag2 H20 C24 S2 N2 O6'
_cell_volume   548.49867293
_cell_formula_units_Z   2
loop_
 _symmetry_equiv_pos_site_id
 _symmetry_equiv_pos_as_xyz
  1  'x, y, z'
loop_
 _atom_site_type_symbol
 _atom_site_label
 _atom_site_symmetry_multiplicity
 _atom_site_fract_x
 _atom_site_fract_y
 _atom_site_fract_z
 _atom_site_occupancy
 _atom_site_hle17_bader_spin_density
 _atom_site_hle17_ddec_charge
 _atom_site_hle17_ddec_spin_density
 _atom_site_hle17_ddec_sum_bond_order
 _atom_site_hle17_magmom
 _atom_site_hse06_10hf_bader_spin_density
 _atom_site_hse06_10hf_ddec_charge
 _atom_site_hse06_10hf_ddec_spin_density
 _atom_site_hse06_10hf_ddec_sum_bond_order
 _atom_site_hse06_10hf_magmom
 _atom_site_hse06_bader_spin_density
 _atom_site_hse06_ddec_charge
 _atom_site_hse06_ddec_spin_density
 _atom_site_hse06_ddec_sum_bond_order
 _atom_site_hse06_magmom
 _atom_site_pbe_bader_spin_density
 _atom_site_pbe_cm5_charge
 _atom_site_pbe_ddec_charge
 _atom_site_pbe_ddec_spin_density
 _atom_site_pbe_ddec_sum_bond_order
 _atom_site_pbe_magmom
Ag  Ag0  1  0.77042827  0.17484331  0.05495430  1  0  0.667182  0  1.241156  0  0  0.580634  0  1.630566  0  0  0.601097  0  1.591613  0  0  0.481231  0.56818  0  1.656291  0
Ag  Ag1  1  0.22957945  0.82515599  0.94505065  1  0  0.667212  0  1.241094  0  0  0.580671  0  1.630491  0  0  0.601139  0  1.59153  0  0  0.481249  0.568218  0  1.656214  0
H  H2  1  0.64074314  0.90510605  0.78751283  1  0  0.099281  0  0.967147  0  0  0.107856  0  1.034701  0  0  0.111597  0  1.03047  0  0  0.100105  0.105213  0  1.03749  0
H  H3  1  0.35926158  0.09489532  0.21248772  1  0  0.099291  0  0.967187  0  0  0.107852  0  1.034749  0  0  0.111593  0  1.030524  0  0  0.100107  0.105206  0  1.037539  0
H  H4  1  0.77989333  0.73101571  0.56535073  1  0  0.098245  0  0.980589  0  0  0.1103  0  1.04107  0  0  0.112674  0  1.041721  0  0  0.099566  0.108631  0  1.040758  0
H  H5  1  0.22010880  0.26898242  0.43464740  1  0  0.098258  0  0.980685  0  0  0.110326  0  1.041141  0  0  0.112701  0  1.041789  0  0  0.099574  0.108657  0  1.040829  0
H  H6  1  0.22390669  0.82346840  0.35622576  1  0  0.118601  0  0.944063  0  0  0.128623  0  1.004223  0  0  0.132207  0  1.002955  0  0  0.107227  0.126196  0  1.005024  0
H  H7  1  0.77608734  0.17652743  0.64377041  1  0  0.118614  0  0.944046  0  0  0.128633  0  1.004207  0  0  0.132219  0  1.002935  0  0  0.107237  0.126206  0  1.00501  0
H  H8  1  0.07751083  0.99549019  0.58219103  1  0  0.099317  0  0.959875  0  0  0.110959  0  1.020719  0  0  0.113486  0  1.01931  0  0  0.104916  0.109023  0  1.021977  0
H  H9  1  0.92248531  0.00450675  0.41780655  1  0  0.099324  0  0.959832  0  0  0.110939  0  1.020711  0  0  0.113507  0  1.019249  0  0  0.104906  0.109002  0  1.021969  0
H  H10  1  0.58591282  0.50328380  0.42233548  1  0  0.096302  0  0.98092  0  0  0.109063  0  1.039912  0  0  0.111838  0  1.039527  0  0  0.098642  0.107064  0  1.040434  0
H  H11  1  0.41408838  0.49671962  0.57766872  1  0  0.096355  0  0.98087  0  0  0.109062  0  1.039922  0  0  0.111839  0  1.039531  0  0  0.098618  0.107063  0  1.040445  0
H  H12  1  0.86902176  0.32382438  0.36774261  1  0  0.091991  0  0.979296  0  0  0.102171  0  1.041073  0  0  0.103613  0  1.042111  0  0  0.097208  0.100907  0  1.04061  0
H  H13  1  0.13098606  0.67618342  0.63226543  1  0  0.092049  0  0.979248  0  0  0.102238  0  1.041012  0  0  0.103684  0  1.042039  0  0  0.097235  0.100982  0  1.040529  0
H  H14  1  0.21463129  0.29341859  0.19674464  1  0  0.102782  0  0.967627  0  0  0.110775  0  1.032767  0  0  0.113534  0  1.031964  0  0  0.097724  0.108447  0  1.034143  0
H  H15  1  0.78537574  0.70658601  0.80326279  1  0  0.102797  0  0.967555  0  0  0.110761  0  1.032746  0  0  0.113523  0  1.031938  0  0  0.097684  0.10842  0  1.034138  0
H  H16  1  0.23844465  0.43150996  0.07150086  1  0  0.102583  0  0.948796  0  0  0.113904  0  1.006684  0  0  0.116789  0  1.005044  0  0  0.104491  0.111612  0  1.008212  0
H  H17  1  0.76155725  0.56848816  0.92850085  1  0  0.102632  0  0.948821  0  0  0.113942  0  1.006715  0  0  0.116827  0  1.005076  0  0  0.104513  0.111646  0  1.008246  0
H  H18  1  0.96607930  0.61983640  0.13570455  1  0  0.117005  0  0.951324  0  0  0.126386  0  1.013631  0  0  0.129961  0  1.011945  0  0  0.107404  0.12357  0  1.015549  0
H  H19  1  0.03391574  0.38015626  0.86429282  1  0  0.117059  0  0.951182  0  0  0.126427  0  1.013513  0  0  0.130002  0  1.011826  0  0  0.107399  0.123612  0  1.015432  0
H  H20  1  0.57763173  0.70656206  0.24280790  1  0  0.294475  0  0.941569  0  0  0.277555  0  1.003916  0  0  0.284898  0  0.998852  0  0  0.30135  0.272654  0  1.007191  0
H  H21  1  0.42236024  0.29343160  0.75718189  1  0  0.29441  0  0.94174  0  0  0.277502  0  1.004045  0  0  0.284842  0  0.998982  0  0  0.301351  0.272604  0  1.007313  0
C  C22  1  0.35112056  0.96244854  0.69868061  1  0  -0.174246  0  3.790311  0  0  -0.148157  0  4.042002  0  0  -0.15856  0  4.064798  0  0  -0.041583  -0.14149  0  4.026665  0
C  C23  1  0.64888093  0.03755488  0.30131912  1  0  -0.174368  0  3.790599  0  0  -0.148255  0  4.042242  0  0  -0.158618  0  4.065  0  0  -0.04167  -0.14161  0  4.02693  0
C  C24  1  0.54513034  0.88533336  0.69345788  1  0  -0.044808  0  3.797618  0  0  -0.071656  0  4.05203  0  0  -0.066916  0  4.069326  0  0  -0.090489  -0.074569  0  4.039981  0
C  C25  1  0.45486516  0.11466994  0.30654537  1  0  -0.044762  0  3.797672  0  0  -0.071586  0  4.052058  0  0  -0.066858  0  4.069338  0  0  -0.090427  -0.074489  0  4.040006  0
C  C26  1  0.62263578  0.78640166  0.56795849  1  0  -0.181621  0  3.725439  0  0  -0.194336  0  3.970843  0  0  -0.202772  0  3.992278  0  0  -0.103413  -0.188807  0  3.956263  0
C  C27  1  0.37735613  0.21360263  0.43204522  1  0  -0.181572  0  3.725538  0  0  -0.194322  0  3.970944  0  0  -0.202756  0  3.99238  0  0  -0.103358  -0.188791  0  3.956358  0
C  C28  1  0.51284017  0.76454737  0.44430335  1  0  0.266048  0  3.795372  0  0  0.257579  0  4.041666  0  0  0.269962  0  4.060996  0  0  0.104859  0.249706  0  4.028089  0
C  C29  1  0.48715993  0.23545071  0.55569655  1  0  0.265972  0  3.795441  0  0  0.25751  0  4.041736  0  0  0.269892  0  4.061058  0  0  0.104791  0.249636  0  4.028159  0
C  C30  1  0.31086865  0.83938619  0.45096285  1  0  -0.170792  0  3.699122  0  0  -0.188631  0  3.956091  0  0  -0.196229  0  3.976668  0  0  -0.097785  -0.183403  0  3.941851  0
C  C31  1  0.68912840  0.16061501  0.54903762  1  0  -0.170728  0  3.699051  0  0  -0.188558  0  3.956005  0  0  -0.196158  0  3.976596  0  0  -0.097769  -0.183334  0  3.941769  0
C  C32  1  0.23176352  0.93702529  0.57678613  1  0  -0.044042  0  3.783887  0  0  -0.070516  0  4.036698  0  0  -0.066513  0  4.056194  0  0  -0.087874  -0.073046  0  4.023634  0
C  C33  1  0.76823147  0.06297375  0.42320796  1  0  -0.044084  0  3.784071  0  0  -0.07056  0  4.036903  0  0  -0.066589  0  4.05636  0  0  -0.087874  -0.073083  0  4.023839  0
C  C34  1  0.76003087  0.57616889  0.28560986  1  0  0.263135  0  3.804204  0  0  0.256729  0  4.04946  0  0  0.267477  0  4.070211  0  0  0.102898  0.249549  0  4.035821  0
C  C35  1  0.23995944  0.42382686  0.71438448  1  0  0.263123  0  3.804175  0  0  0.256608  0  4.049569  0  0  0.267348  0  4.070325  0  0  0.102849  0.249429  0  4.035931  0
C  C36  1  0.73312640  0.48994035  0.34823590  1  0  -0.186074  0  3.750354  0  0  -0.20513  0  3.998883  0  0  -0.212699  0  4.020808  0  0  -0.107874  -0.20001  0  3.98434  0
C  C37  1  0.26687238  0.51005983  0.65176320  1  0  -0.186091  0  3.750451  0  0  -0.205078  0  3.999021  0  0  -0.212643  0  4.020947  0  0  -0.107862  -0.199961  0  3.984479  0
C  C38  1  0.88792183  0.38548966  0.31391090  1  0  -0.076437  0  3.82295  0  0  -0.083452  0  4.067998  0  0  -0.082132  0  4.088871  0  0  -0.104947  -0.083887  0  4.05404  0
C  C39  1  0.11208648  0.61451072  0.68608919  1  0  -0.076509  0  3.823015  0  0  -0.083536  0  4.068021  0  0  -0.082212  0  4.088891  0  0  -0.104943  -0.083969  0  4.054066  0
C  C40  1  0.07089096  0.36163665  0.21219079  1  0  -0.173073  0  3.869248  0  0  -0.17466  0  4.124049  0  0  -0.180739  0  4.143777  0  0  -0.146475  -0.172133  0  4.112322  0
C  C41  1  0.92911154  0.63836360  0.78781014  1  0  -0.173013  0  3.869131  0  0  -0.174579  0  4.123914  0  0  -0.180661  0  4.143644  0  0  -0.146432  -0.172044  0  4.112192  0
C  C42  1  0.09376241  0.44696287  0.14755435  1  0  -0.033921  0  3.757342  0  0  -0.051294  0  4.011621  0  0  -0.048357  0  4.029207  0  0  -0.091416  -0.052937  0  4.000247  0
C  C43  1  0.90622815  0.55303395  0.85244050  1  0  -0.034057  0  3.757584  0  0  -0.051434  0  4.011871  0  0  -0.048499  0  4.029461  0  0  -0.091441  -0.053071  0  4.000493  0
C  C44  1  0.94117674  0.55198245  0.18330134  1  0  -0.165458  0  3.684462  0  0  -0.184473  0  3.936044  0  0  -0.190393  0  3.954749  0  0  -0.095066  -0.181736  0  3.9247  0
C  C45  1  0.05880986  0.44801428  0.81669526  1  0  -0.165486  0  3.684334  0  0  -0.18443  0  3.935913  0  0  -0.19035  0  3.954621  0  0  -0.095032  -0.181687  0  3.924548  0
S  S46  1  0.27842928  0.10389668  0.85636545  1  0  1.284614  0  5.615646  0  0  1.190456  0  6.117602  0  0  1.237581  0  6.097692  0  0  0.499613  1.158044  0  6.130163  0
S  S47  1  0.72157322  0.89610358  0.14363548  1  0  1.28465  0  5.615618  0  0  1.190515  0  6.117524  0  0  1.23761  0  6.097624  0  0  0.499619  1.158107  0  6.130092  0
N  N48  1  0.60785831  0.68081154  0.31803954  1  0  -0.423714  0  3.376303  0  0  -0.364525  0  3.609059  0  0  -0.386485  0  3.621915  0  0  -0.408934  -0.349612  0  3.599323  0
N  N49  1  0.39213249  0.31918635  0.68195581  1  0  -0.423697  0  3.376524  0  0  -0.364462  0  3.60929  0  0  -0.386428  0  3.622173  0  0  -0.408949  -0.34955  0  3.599551  0
O  O50  1  0.45696328  0.23461573  0.88142996  1  0  -0.650502  0  1.938502  0  0  -0.595642  0  2.180991  0  0  -0.61711  0  2.168083  0  0  -0.335127  -0.580096  0  2.188694  0
O  O51  1  0.54302478  0.76538635  0.11856557  1  0  -0.650512  0  1.938436  0  0  -0.595654  0  2.180899  0  0  -0.617124  0  2.167997  0  0  -0.335138  -0.580109  0  2.188602  0
O  O52  1  0.33027145  0.06643335  0.96469795  1  0  -0.717726  0  2.123008  0  0  -0.648499  0  2.425717  0  0  -0.672472  0  2.405467  0  0  -0.357691  -0.631634  0  2.438281  0
O  O53  1  0.66974387  0.93356506  0.03530388  1  0  -0.7177  0  2.12311  0  0  -0.648424  0  2.425736  0  0  -0.672406  0  2.405527  0  0  -0.35763  -0.631553  0  2.438296  0
O  O54  1  0.00505441  0.11354124  0.84368950  1  0  -0.659138  0  2.028296  0  0  -0.602032  0  2.303528  0  0  -0.625357  0  2.289712  0  0  -0.338555  -0.585456  0  2.312402  0
O  O55  1  0.99494393  0.88645043  0.15631187  1  0  -0.659172  0  2.028247  0  0  -0.602097  0  2.303471  0  0  -0.625407  0  2.289657  0  0  -0.338612  -0.58552  0  2.312347  0
