# generated using pymatgen
data_ZnH8C12N2O5
_symmetry_space_group_name_H-M   'P 1'
_cell_length_a   5.74780606
_cell_length_b   12.54141415
_cell_length_c   16.80532357
_cell_angle_alpha   103.25439035
_cell_angle_beta   89.99936284
_cell_angle_gamma   90.00032085
_symmetry_Int_Tables_number   1
_chemical_formula_structural   ZnH8C12N2O5
_chemical_formula_sum   'Zn4 H32 C48 N8 O20'
_cell_volume   1179.15187119
_cell_formula_units_Z   4
loop_
 _symmetry_equiv_pos_site_id
 _symmetry_equiv_pos_as_xyz
  1  'x, y, z'
loop_
 _atom_site_type_symbol
 _atom_site_label
 _atom_site_symmetry_multiplicity
 _atom_site_fract_x
 _atom_site_fract_y
 _atom_site_fract_z
 _atom_site_occupancy
 _atom_site_hle17_bader_spin_density
 _atom_site_hle17_ddec_charge
 _atom_site_hle17_ddec_spin_density
 _atom_site_hle17_ddec_sum_bond_order
 _atom_site_hle17_magmom
 _atom_site_hse06_10hf_bader_spin_density
 _atom_site_hse06_10hf_ddec_charge
 _atom_site_hse06_10hf_ddec_spin_density
 _atom_site_hse06_10hf_ddec_sum_bond_order
 _atom_site_hse06_10hf_magmom
 _atom_site_hse06_bader_spin_density
 _atom_site_hse06_ddec_charge
 _atom_site_hse06_ddec_spin_density
 _atom_site_hse06_ddec_sum_bond_order
 _atom_site_hse06_magmom
 _atom_site_pbe_bader_spin_density
 _atom_site_pbe_cm5_charge
 _atom_site_pbe_ddec_charge
 _atom_site_pbe_ddec_spin_density
 _atom_site_pbe_ddec_sum_bond_order
 _atom_site_pbe_magmom
Zn  Zn0  1  0.96897324  0.43714760  0.88623676  1  0  1.198571  0  1.706021  0  0  1.023062  0  2.191595  0  0  1.073981  0  2.123526  0  0  0.704486  0.98701  0  2.238868  0
Zn  Zn1  1  0.46896907  0.56284646  0.61375136  1  0  1.1985  0  1.705987  0  0  1.023057  0  2.191545  0  0  1.073971  0  2.123489  0  0  0.704495  0.987001  0  2.238825  0
Zn  Zn2  1  0.03101119  0.56285146  0.11376094  1  0  1.198449  0  1.706107  0  0  1.023009  0  2.191608  0  0  1.07393  0  2.123549  0  0  0.704501  0.986949  0  2.238882  0
Zn  Zn3  1  0.53101884  0.43714206  0.38623259  1  0  1.198544  0  1.705985  0  0  1.023006  0  2.191543  0  0  1.073925  0  2.123486  0  0  0.704487  0.986942  0  2.238819  0
H  H4  1  0.96192523  0.09147293  0.69151993  1  0  0.108121  0  0.957694  0  0  0.114328  0  1.022925  0  0  0.11698  0  1.023557  0  0  0.105398  0.112409  0  1.022711  0
H  H5  1  0.46194215  0.90852500  0.80849388  1  0  0.108101  0  0.957704  0  0  0.11437  0  1.022861  0  0  0.117024  0  1.02349  0  0  0.105417  0.112449  0  1.022644  0
H  H6  1  0.03809400  0.90851288  0.30849329  1  0  0.108081  0  0.957574  0  0  0.114276  0  1.022834  0  0  0.116924  0  1.023461  0  0  0.105376  0.112366  0  1.022612  0
H  H7  1  0.53810665  0.09147811  0.19151049  1  0  0.108109  0  0.957434  0  0  0.114272  0  1.022725  0  0  0.116919  0  1.023352  0  0  0.105361  0.112364  0  1.022506  0
H  H8  1  0.27360248  0.23207668  0.69362332  1  0  0.099291  0  0.95161  0  0  0.111675  0  1.009524  0  0  0.114245  0  1.007985  0  0  0.110751  0.109752  0  1.010724  0
H  H9  1  0.77361509  0.76791770  0.80638156  1  0  0.099344  0  0.951562  0  0  0.111719  0  1.009474  0  0  0.11431  0  1.007909  0  0  0.11079  0.10978  0  1.010693  0
H  H10  1  0.72641848  0.76792319  0.30637630  1  0  0.099291  0  0.951625  0  0  0.111684  0  1.00953  0  0  0.114249  0  1.007996  0  0  0.110777  0.10978  0  1.010707  0
H  H11  1  0.22638499  0.23208709  0.19361893  1  0  0.099343  0  0.951567  0  0  0.11168  0  1.009532  0  0  0.114294  0  1.007939  0  0  0.110787  0.109743  0  1.010748  0
H  H12  1  0.91836849  0.01159203  0.81478007  1  0  0.062735  0  0.974602  0  0  0.067861  0  1.046272  0  0  0.069842  0  1.045191  0  0  0.105115  0.066419  0  1.047062  0
H  H13  1  0.41835955  0.98840078  0.68524607  1  0  0.062729  0  0.974719  0  0  0.067872  0  1.046374  0  0  0.069853  0  1.045294  0  0  0.105096  0.066432  0  1.047167  0
H  H14  1  0.08166639  0.98841007  0.18524613  1  0  0.062732  0  0.974762  0  0  0.067855  0  1.046429  0  0  0.06983  0  1.045343  0  0  0.105123  0.066413  0  1.047224  0
H  H15  1  0.58163184  0.01159904  0.31475890  1  0  0.062695  0  0.974813  0  0  0.067907  0  1.046388  0  0  0.069886  0  1.045309  0  0  0.105127  0.066466  0  1.047183  0
H  H16  1  0.93273145  0.07481001  0.02776131  1  0  0.07438  0  0.945068  0  0  0.080028  0  1.014266  0  0  0.083263  0  1.009827  0  0  0.112876  0.077668  0  1.01747  0
H  H17  1  0.43275644  0.92518823  0.47224542  1  0  0.074362  0  0.944981  0  0  0.080005  0  1.014207  0  0  0.083239  0  1.009763  0  0  0.112854  0.07764  0  1.017412  0
H  H18  1  0.06729473  0.92520952  0.97224177  1  0  0.074494  0  0.944985  0  0  0.08012  0  1.014179  0  0  0.083361  0  1.009743  0  0  0.112947  0.077755  0  1.017386  0
H  H19  1  0.56724887  0.07480012  0.52775814  1  0  0.07437  0  0.944988  0  0  0.080024  0  1.014191  0  0  0.083265  0  1.009746  0  0  0.112861  0.07766  0  1.017395  0
H  H20  1  0.87742904  0.23324329  0.14758532  1  0  0.098827  0  0.987997  0  0  0.106459  0  1.052242  0  0  0.10928  0  1.052295  0  0  0.099623  0.10447  0  1.05232  0
H  H21  1  0.37741490  0.76676473  0.35241736  1  0  0.09889  0  0.987957  0  0  0.106473  0  1.052249  0  0  0.109296  0  1.052296  0  0  0.099623  0.10448  0  1.052329  0
H  H22  1  0.12256583  0.76676381  0.85243165  1  0  0.098731  0  0.987985  0  0  0.106332  0  1.052266  0  0  0.109152  0  1.052321  0  0  0.099548  0.104343  0  1.052338  0
H  H23  1  0.62257127  0.23323599  0.64757885  1  0  0.098964  0  0.987879  0  0  0.106493  0  1.052246  0  0  0.109316  0  1.052294  0  0  0.099643  0.104504  0  1.052323  0
H  H24  1  0.56035936  0.36811403  0.14199535  1  0  0.101909  0  0.960554  0  0  0.10934  0  1.027438  0  0  0.113034  0  1.024017  0  0  0.10474  0.106627  0  1.029936  0
H  H25  1  0.06031913  0.63190664  0.35799750  1  0  0.101995  0  0.960441  0  0  0.109415  0  1.027335  0  0  0.113108  0  1.023917  0  0  0.104708  0.106692  0  1.029844  0
H  H26  1  0.43964246  0.63188159  0.85802198  1  0  0.102003  0  0.960512  0  0  0.109359  0  1.027506  0  0  0.113067  0  1.024042  0  0  0.104723  0.106646  0  1.030009  0
H  H27  1  0.93965486  0.36810652  0.64198423  1  0  0.102039  0  0.960544  0  0  0.109461  0  1.027435  0  0  0.113171  0  1.023989  0  0  0.104727  0.106694  0  1.02999  0
H  H28  1  0.28487766  0.41570985  0.77313193  1  0  0.426632  0  0.885496  0  0  0.393264  0  0.953002  0  0  0.404052  0  0.937738  0  0  0.294621  0.385679  0  0.963722  0
H  H29  1  0.78488069  0.58428877  0.72685998  1  0  0.426616  0  0.885543  0  0  0.393275  0  0.953005  0  0  0.404059  0  0.937747  0  0  0.294651  0.38569  0  0.963723  0
H  H30  1  0.71513286  0.58429164  0.22687037  1  0  0.426667  0  0.885431  0  0  0.393304  0  0.952932  0  0  0.404091  0  0.937667  0  0  0.29464  0.385721  0  0.963647  0
H  H31  1  0.21512288  0.41570627  0.27312869  1  0  0.426577  0  0.885561  0  0  0.393216  0  0.95306  0  0  0.404007  0  0.937788  0  0  0.29461  0.385633  0  0.963772  0
H  H32  1  0.12050093  0.51664004  0.76245878  1  0  0.445112  0  0.853962  0  0  0.411859  0  0.920323  0  0  0.422981  0  0.904168  0  0  0.301398  0.404015  0  0.931699  0
H  H33  1  0.62049546  0.48335914  0.73752900  1  0  0.44514  0  0.853906  0  0  0.411814  0  0.920358  0  0  0.422932  0  0.904206  0  0  0.30139  0.403975  0  0.931726  0
H  H34  1  0.87950611  0.48335985  0.23753847  1  0  0.445173  0  0.853871  0  0  0.411875  0  0.920281  0  0  0.422995  0  0.904127  0  0  0.301421  0.404034  0  0.931653  0
H  H35  1  0.37949593  0.51663590  0.26246026  1  0  0.445141  0  0.853917  0  0  0.411839  0  0.920322  0  0  0.422961  0  0.904166  0  0  0.301426  0.403997  0  0.931696  0
C  C36  1  0.57965482  0.30869062  0.81650124  1  0  0.693444  0  3.861947  0  0  0.63452  0  4.158979  0  0  0.670562  0  4.150561  0  0  0.226631  0.610032  0  4.163973  0
C  C37  1  0.07967563  0.69130106  0.68349072  1  0  0.693346  0  3.862233  0  0  0.634567  0  4.159078  0  0  0.670619  0  4.15066  0  0  0.226658  0.610079  0  4.164074  0
C  C38  1  0.42032613  0.69130191  0.18349353  1  0  0.693318  0  3.862312  0  0  0.634579  0  4.159079  0  0  0.670629  0  4.150655  0  0  0.226654  0.610085  0  4.164078  0
C  C39  1  0.92033316  0.30869640  0.31650372  1  0  0.693254  0  3.862383  0  0  0.634456  0  4.159233  0  0  0.670503  0  4.150815  0  0  0.226623  0.609972  0  4.164219  0
C  C40  1  0.36396017  0.16997768  0.87783779  1  0  0.197973  0  3.721396  0  0  0.187249  0  3.971164  0  0  0.195891  0  3.987388  0  0  0.13722  0.181583  0  3.960166  0
C  C41  1  0.86392808  0.83001935  0.62216487  1  0  0.198142  0  3.721413  0  0  0.187416  0  3.971262  0  0  0.196038  0  3.987525  0  0  0.137216  0.181751  0  3.960256  0
C  C42  1  0.63608167  0.83003521  0.12217424  1  0  0.198298  0  3.721171  0  0  0.187609  0  3.970956  0  0  0.196239  0  3.987205  0  0  0.137242  0.181953  0  3.959938  0
C  C43  1  0.13605286  0.16997238  0.37782737  1  0  0.19835  0  3.721131  0  0  0.187653  0  3.971014  0  0  0.196274  0  3.98727  0  0  0.137357  0.181991  0  3.960007  0
C  C44  1  0.40181437  0.22067779  0.81235780  1  0  -0.161823  0  3.725744  0  0  -0.142161  0  3.961002  0  0  -0.154868  0  3.983187  0  0  -0.017734  -0.134033  0  3.946201  0
C  C45  1  0.90182627  0.77932423  0.68764502  1  0  -0.161888  0  3.725669  0  0  -0.142202  0  3.960861  0  0  -0.154913  0  3.983059  0  0  -0.01772  -0.134083  0  3.946067  0
C  C46  1  0.59818746  0.77932037  0.18764986  1  0  -0.162017  0  3.725666  0  0  -0.142317  0  3.960819  0  0  -0.15503  0  3.983009  0  0  -0.017706  -0.134197  0  3.946025  0
C  C47  1  0.09817556  0.22067817  0.31234672  1  0  -0.161877  0  3.725776  0  0  -0.142196  0  3.960973  0  0  -0.154905  0  3.983176  0  0  -0.017696  -0.134073  0  3.946174  0
C  C48  1  0.50547898  0.19579760  0.95466906  1  0  0.205174  0  3.717313  0  0  0.196105  0  3.965302  0  0  0.20582  0  3.980891  0  0  0.138316  0.189649  0  3.95477  0
C  C49  1  0.00545223  0.80421356  0.54533251  1  0  0.205196  0  3.717114  0  0  0.195921  0  3.965494  0  0  0.205654  0  3.981059  0  0  0.138364  0.189494  0  3.954923  0
C  C50  1  0.49455242  0.80422184  0.04534531  1  0  0.205237  0  3.717051  0  0  0.195866  0  3.965567  0  0  0.205621  0  3.981069  0  0  0.138371  0.189431  0  3.955002  0
C  C51  1  0.99453045  0.19577573  0.45465812  1  0  0.205056  0  3.716882  0  0  0.195618  0  3.965516  0  0  0.205354  0  3.981086  0  0  0.138186  0.189183  0  3.954967  0
C  C52  1  0.07829333  0.11571559  0.74370088  1  0  -0.120465  0  3.726518  0  0  -0.131484  0  3.977919  0  0  -0.138652  0  3.998283  0  0  -0.085939  -0.127005  0  3.964284  0
C  C53  1  0.57829693  0.88427758  0.75630860  1  0  -0.120672  0  3.726584  0  0  -0.131737  0  3.977997  0  0  -0.138909  0  3.998364  0  0  -0.086034  -0.127249  0  3.964351  0
C  C54  1  0.92172415  0.88427847  0.25630665  1  0  -0.120668  0  3.726153  0  0  -0.131691  0  3.977614  0  0  -0.138852  0  3.99796  0  0  -0.086019  -0.127212  0  3.963982  0
C  C55  1  0.42171359  0.11572391  0.24369369  1  0  -0.120674  0  3.726305  0  0  -0.131635  0  3.97775  0  0  -0.138795  0  3.998113  0  0  -0.086002  -0.127158  0  3.964119  0
C  C56  1  0.25317439  0.19261831  0.74464513  1  0  -0.022249  0  3.716924  0  0  -0.049379  0  3.962404  0  0  -0.044843  0  3.980254  0  0  -0.067635  -0.051923  0  3.950156  0
C  C57  1  0.75316846  0.80737111  0.75536014  1  0  -0.022218  0  3.716919  0  0  -0.049342  0  3.962407  0  0  -0.044829  0  3.980265  0  0  -0.067674  -0.051879  0  3.950178  0
C  C58  1  0.74684483  0.80737005  0.25535783  1  0  -0.022126  0  3.716906  0  0  -0.049287  0  3.962423  0  0  -0.044748  0  3.980271  0  0  -0.067707  -0.051854  0  3.950186  0
C  C59  1  0.24684033  0.19263286  0.24463962  1  0  -0.022298  0  3.716951  0  0  -0.049402  0  3.962401  0  0  -0.044907  0  3.980246  0  0  -0.067725  -0.051944  0  3.950177  0
C  C60  1  0.05609901  0.07013749  0.81161480  1  0  0.151933  0  3.705831  0  0  0.123369  0  3.968649  0  0  0.131254  0  3.983803  0  0  0.051683  0.118345  0  3.958241  0
C  C61  1  0.55608301  0.92985318  0.68839372  1  0  0.152012  0  3.706193  0  0  0.123423  0  3.968991  0  0  0.131306  0  3.984148  0  0  0.051755  0.118389  0  3.958589  0
C  C62  1  0.94393413  0.92986474  0.18839596  1  0  0.152045  0  3.705818  0  0  0.123519  0  3.968572  0  0  0.131412  0  3.983714  0  0  0.051781  0.118487  0  3.958172  0
C  C63  1  0.44391011  0.07014506  0.31160443  1  0  0.152056  0  3.706185  0  0  0.123424  0  3.968953  0  0  0.131306  0  3.984107  0  0  0.051797  0.118393  0  3.958555  0
C  C64  1  0.79781251  0.13571776  0.02699142  1  0  0.15338  0  3.713321  0  0  0.123669  0  3.980051  0  0  0.131918  0  3.994285  0  0  0.056046  0.118381  0  3.970331  0
C  C65  1  0.29780546  0.86428196  0.47300649  1  0  0.15342  0  3.713303  0  0  0.123691  0  3.980031  0  0  0.131941  0  3.994272  0  0  0.056132  0.118406  0  3.970309  0
C  C66  1  0.20219280  0.86428614  0.97301665  1  0  0.15328  0  3.713438  0  0  0.12359  0  3.980097  0  0  0.131826  0  3.994352  0  0  0.056053  0.118308  0  3.970365  0
C  C67  1  0.70218245  0.13570970  0.52699467  1  0  0.153424  0  3.71305  0  0  0.123727  0  3.979691  0  0  0.13197  0  3.993938  0  0  0.056132  0.11845  0  3.969962  0
C  C68  1  0.76761068  0.22376679  0.09385270  1  0  -0.131486  0  3.748645  0  0  -0.142639  0  3.99788  0  0  -0.151002  0  4.020503  0  0  -0.093402  -0.137326  0  3.98263  0
C  C69  1  0.26760162  0.77623862  0.40614452  1  0  -0.131368  0  3.748878  0  0  -0.142445  0  3.998068  0  0  -0.150806  0  4.020692  0  0  -0.093332  -0.13713  0  3.982811  0
C  C70  1  0.23238592  0.77623378  0.90616014  1  0  -0.131368  0  3.748664  0  0  -0.142453  0  3.997791  0  0  -0.150817  0  4.020424  0  0  -0.093266  -0.137138  0  3.982532  0
C  C71  1  0.73238802  0.22375882  0.59385230  1  0  -0.131559  0  3.74873  0  0  -0.14263  0  3.997981  0  0  -0.150996  0  4.020614  0  0  -0.093411  -0.137316  0  3.982713  0
C  C72  1  0.59389794  0.29956864  0.09041131  1  0  -0.008665  0  3.708391  0  0  -0.03542  0  3.954256  0  0  -0.030451  0  3.972477  0  0  -0.069381  -0.038254  0  3.941751  0
C  C73  1  0.09387223  0.70044634  0.40958162  1  0  -0.008979  0  3.708606  0  0  -0.035711  0  3.954452  0  0  -0.030746  0  3.972682  0  0  -0.069405  -0.038538  0  3.941951  0
C  C74  1  0.40610214  0.70043360  0.90959944  1  0  -0.008829  0  3.708257  0  0  -0.035515  0  3.954076  0  0  -0.030541  0  3.972304  0  0  -0.069386  -0.038353  0  3.941579  0
C  C75  1  0.90611915  0.29955608  0.59040834  1  0  -0.009056  0  3.708467  0  0  -0.035775  0  3.954286  0  0  -0.030813  0  3.972502  0  0  -0.069397  -0.038566  0  3.941811  0
C  C76  1  0.46037868  0.28774564  0.01916382  1  0  -0.162648  0  3.700427  0  0  -0.142945  0  3.930684  0  0  -0.157203  0  3.954035  0  0  -0.017723  -0.133746  0  3.915041  0
C  C77  1  0.96036682  0.71227245  0.48083083  1  0  -0.162587  0  3.700149  0  0  -0.142872  0  3.93054  0  0  -0.157136  0  3.953901  0  0  -0.017894  -0.133684  0  3.914887  0
C  C78  1  0.53961445  0.71227383  0.98084580  1  0  -0.162683  0  3.699959  0  0  -0.142899  0  3.930356  0  0  -0.15717  0  3.953711  0  0  -0.017802  -0.13371  0  3.914711  0
C  C79  1  0.03961065  0.28772426  0.51915574  1  0  -0.162337  0  3.699594  0  0  -0.142543  0  3.930046  0  0  -0.156811  0  3.953403  0  0  -0.017763  -0.133364  0  3.914404  0
C  C80  1  0.28074895  0.37269565  0.01556830  1  0  0.714393  0  3.846669  0  0  0.66231  0  4.132225  0  0  0.69971  0  4.123099  0  0  0.233685  0.636771  0  4.137761  0
C  C81  1  0.78072034  0.62731640  0.48442291  1  0  0.714082  0  3.846787  0  0  0.66204  0  4.13229  0  0  0.69944  0  4.123175  0  0  0.23347  0.636504  0  4.13782  0
C  C82  1  0.71923896  0.62733121  0.98444143  1  0  0.714494  0  3.846632  0  0  0.662295  0  4.132345  0  0  0.699693  0  4.12323  0  0  0.233476  0.636761  0  4.13788  0
C  C83  1  0.21924147  0.37266889  0.51555571  1  0  0.714412  0  3.846533  0  0  0.662203  0  4.132269  0  0  0.699604  0  4.123148  0  0  0.233443  0.636679  0  4.13779  0
N  N84  1  0.19557203  0.09602178  0.87728451  1  0  -0.330797  0  3.033679  0  0  -0.301724  0  3.306465  0  0  -0.314241  0  3.320235  0  0  -0.308502  -0.29319  0  3.296933  0
N  N85  1  0.69554077  0.90397813  0.62272815  1  0  -0.330771  0  3.034061  0  0  -0.301675  0  3.306861  0  0  -0.314191  0  3.320646  0  0  -0.308482  -0.293141  0  3.297329  0
N  N86  1  0.80445763  0.90399850  0.12272644  1  0  -0.330895  0  3.033656  0  0  -0.301861  0  3.306517  0  0  -0.314379  0  3.320292  0  0  -0.308552  -0.293326  0  3.296982  0
N  N87  1  0.30442626  0.09600784  0.37726606  1  0  -0.33085  0  3.033782  0  0  -0.301792  0  3.306695  0  0  -0.314306  0  3.320474  0  0  -0.308595  -0.293257  0  3.297165  0
N  N88  1  0.66694877  0.12044231  0.95930467  1  0  -0.319096  0  3.024905  0  0  -0.29239  0  3.296055  0  0  -0.304117  0  3.30819  0  0  -0.308027  -0.28439  0  3.287691  0
N  N89  1  0.16693001  0.87955849  0.54069515  1  0  -0.319184  0  3.024996  0  0  -0.292402  0  3.296253  0  0  -0.304139  0  3.308392  0  0  -0.308083  -0.284418  0  3.287885  0
N  N90  1  0.33306697  0.87955586  0.04070180  1  0  -0.319169  0  3.025089  0  0  -0.292378  0  3.296394  0  0  -0.304117  0  3.308529  0  0  -0.308135  -0.284388  0  3.28802  0
N  N91  1  0.83305616  0.12043160  0.45929800  1  0  -0.319155  0  3.02469  0  0  -0.292342  0  3.296014  0  0  -0.304077  0  3.308154  0  0  -0.308032  -0.284355  0  3.287651  0
O  O92  1  0.75118721  0.31278002  0.86555804  1  0  -0.632545  0  2.076546  0  0  -0.557077  0  2.349877  0  0  -0.588898  0  2.338101  0  0  -0.301445  -0.534874  0  2.357367  0
O  O93  1  0.25120283  0.68722756  0.63443495  1  0  -0.632484  0  2.076769  0  0  -0.557104  0  2.35004  0  0  -0.58889  0  2.338175  0  0  -0.301446  -0.53489  0  2.357507  0
O  O94  1  0.24878852  0.68723544  0.13444135  1  0  -0.632426  0  2.076606  0  0  -0.557074  0  2.34987  0  0  -0.588893  0  2.338078  0  0  -0.301451  -0.534868  0  2.357362  0
O  O95  1  0.74880248  0.31276581  0.36555759  1  0  -0.632434  0  2.07679  0  0  -0.556955  0  2.349988  0  0  -0.588767  0  2.338188  0  0  -0.30138  -0.534748  0  2.357468  0
O  O96  1  0.12312726  0.44737473  0.78215033  1  0  -0.858213  0  1.915236  0  0  -0.784094  0  2.148344  0  0  -0.808068  0  2.10917  0  0  -0.578079  -0.767179  0  2.175487  0
O  O97  1  0.62313374  0.55262525  0.71783937  1  0  -0.858125  0  1.915085  0  0  -0.78398  0  2.14832  0  0  -0.807955  0  2.10916  0  0  -0.578081  -0.767071  0  2.17547  0
O  O98  1  0.87689196  0.55263245  0.21785713  1  0  -0.858265  0  1.915188  0  0  -0.784093  0  2.148359  0  0  -0.808077  0  2.109212  0  0  -0.57812  -0.767182  0  2.175508  0
O  O99  1  0.37688548  0.44736333  0.28213804  1  0  -0.858188  0  1.915259  0  0  -0.784027  0  2.148504  0  0  -0.807986  0  2.109297  0  0  -0.578137  -0.76712  0  2.175653  0
O  O100  1  0.54808051  0.37548225  0.77072204  1  0  -0.656618  0  2.062076  0  0  -0.586081  0  2.284893  0  0  -0.612358  0  2.273035  0  0  -0.307406  -0.5678  0  2.292617  0
O  O101  1  0.04810062  0.62451344  0.72927429  1  0  -0.656533  0  2.06203  0  0  -0.586109  0  2.284799  0  0  -0.61239  0  2.27294  0  0  -0.307404  -0.567816  0  2.292512  0
O  O102  1  0.45191957  0.62451762  0.22927759  1  0  -0.656494  0  2.062191  0  0  -0.586065  0  2.284949  0  0  -0.612344  0  2.273087  0  0  -0.307362  -0.567779  0  2.292674  0
O  O103  1  0.95189947  0.37548400  0.27072193  1  0  -0.656531  0  2.062127  0  0  -0.586109  0  2.284928  0  0  -0.612392  0  2.273072  0  0  -0.307428  -0.567821  0  2.29264  0
O  O104  1  0.23150789  0.39231893  0.94630672  1  0  -0.672689  0  2.114948  0  0  -0.597322  0  2.396614  0  0  -0.626533  0  2.377322  0  0  -0.314223  -0.576989  0  2.409387  0
O  O105  1  0.73148451  0.60768699  0.55368366  1  0  -0.67252  0  2.115178  0  0  -0.597235  0  2.396901  0  0  -0.626446  0  2.377609  0  0  -0.314154  -0.576899  0  2.409661  0
O  O106  1  0.76847654  0.60770057  0.05369992  1  0  -0.672788  0  2.114844  0  0  -0.597399  0  2.396595  0  0  -0.62661  0  2.377304  0  0  -0.3142  -0.577063  0  2.409363  0
O  O107  1  0.26847556  0.39229174  0.44629440  1  0  -0.672787  0  2.114865  0  0  -0.597337  0  2.396556  0  0  -0.626551  0  2.377268  0  0  -0.314119  -0.577009  0  2.409324  0
O  O108  1  0.19352686  0.42262183  0.08390086  1  0  -0.654508  0  2.084484  0  0  -0.582281  0  2.367837  0  0  -0.611483  0  2.348622  0  0  -0.31306  -0.561995  0  2.380549  0
O  O109  1  0.69349151  0.57738432  0.41609019  1  0  -0.654455  0  2.084421  0  0  -0.582188  0  2.367735  0  0  -0.611391  0  2.34852  0  0  -0.312888  -0.561904  0  2.380445  0
O  O110  1  0.80647148  0.57738114  0.91612014  1  0  -0.65467  0  2.0847  0  0  -0.582329  0  2.368052  0  0  -0.611532  0  2.348836  0  0  -0.312947  -0.562047  0  2.380767  0
O  O111  1  0.30646334  0.42261578  0.58388330  1  0  -0.654649  0  2.084728  0  0  -0.582303  0  2.36808  0  0  -0.611509  0  2.34887  0  0  -0.312918  -0.562019  0  2.38078  0
