# generated using pymatgen
data_SrH10C4S2N2O5
_symmetry_space_group_name_H-M   'P 1'
_cell_length_a   8.84390939
_cell_length_b   9.93141674
_cell_length_c   12.54838146
_cell_angle_alpha   90.00012629
_cell_angle_beta   97.92703580
_cell_angle_gamma   89.99991815
_symmetry_Int_Tables_number   1
_chemical_formula_structural   SrH10C4S2N2O5
_chemical_formula_sum   'Sr4 H40 C16 S8 N8 O20'
_cell_volume   1091.62468221
_cell_formula_units_Z   4
loop_
 _symmetry_equiv_pos_site_id
 _symmetry_equiv_pos_as_xyz
  1  'x, y, z'
loop_
 _atom_site_type_symbol
 _atom_site_label
 _atom_site_symmetry_multiplicity
 _atom_site_fract_x
 _atom_site_fract_y
 _atom_site_fract_z
 _atom_site_occupancy
 _atom_site_pbe_bader_spin_density
 _atom_site_pbe_cm5_charge
 _atom_site_pbe_ddec_charge
 _atom_site_pbe_ddec_spin_density
 _atom_site_pbe_ddec_sum_bond_order
 _atom_site_pbe_magmom
Sr  Sr0  1  0.67755627  0.00884178  0.41727049  1  0  0.932741  1.480756  0  1.461263  0
Sr  Sr1  1  0.82244586  0.50884340  0.08272932  1  0  0.932761  1.480732  0  1.461294  0
Sr  Sr2  1  0.32244351  0.99115728  0.58273103  1  0  0.932736  1.480695  0  1.461326  0
Sr  Sr3  1  0.17755504  0.49115767  0.91727071  1  0  0.932751  1.480724  0  1.461305  0
H  H4  1  0.82334816  0.27616121  0.52943780  1  0  0.266969  0.337266  0  1.022077  0
H  H5  1  0.67664895  0.77616208  0.97056425  1  0  0.266983  0.337255  0  1.022081  0
H  H6  1  0.17665159  0.72383886  0.47056132  1  0  0.266961  0.337251  0  1.022093  0
H  H7  1  0.32334967  0.22384000  0.02943557  1  0  0.266974  0.337235  0  1.022116  0
H  H8  1  0.84808772  0.16573397  0.61918063  1  0  0.274534  0.336387  0  1.021934  0
H  H9  1  0.65191179  0.66573462  0.88081985  1  0  0.274524  0.33637  0  1.02196  0
H  H10  1  0.15191432  0.83426509  0.38081950  1  0  0.274526  0.336378  0  1.021945  0
H  H11  1  0.34808683  0.33426544  0.11917997  1  0  0.274527  0.336369  0  1.02199  0
H  H12  1  0.34097259  0.13018211  0.36343909  1  0  0.284665  0.372156  0  0.970182  0
H  H13  1  0.15903227  0.63018309  0.13656195  1  0  0.284671  0.372165  0  0.97018  0
H  H14  1  0.65902944  0.86981493  0.63656024  1  0  0.284696  0.372214  0  0.970136  0
H  H15  1  0.84096979  0.36981597  0.86343978  1  0  0.284672  0.372161  0  0.970182  0
H  H16  1  0.32801495  0.97580966  0.32817511  1  0  0.274167  0.345006  0  1.018939  0
H  H17  1  0.17198716  0.47581240  0.17182469  1  0  0.27418  0.345064  0  1.018857  0
H  H18  1  0.67198708  0.02418939  0.67182422  1  0  0.274181  0.345067  0  1.018848  0
H  H19  1  0.82801262  0.52418867  0.82817683  1  0  0.274189  0.345067  0  1.018852  0
H  H20  1  0.82414838  0.71857739  0.49161855  1  0  0.26404  0.352307  0  1.002114  0
H  H21  1  0.67584891  0.21857866  0.00838039  1  0  0.264055  0.352311  0  1.002091  0
H  H22  1  0.17585136  0.28142268  0.50837978  1  0  0.264042  0.352321  0  1.002092  0
H  H23  1  0.32414741  0.78142442  0.99161843  1  0  0.264033  0.352286  0  1.002146  0
H  H24  1  0.95553979  0.81639312  0.46742296  1  0  0.290155  0.389281  0  0.948955  0
H  H25  1  0.54446079  0.31639564  0.03257565  1  0  0.290161  0.389279  0  0.948968  0
H  H26  1  0.04445995  0.18360392  0.53257617  1  0  0.290148  0.389266  0  0.948981  0
H  H27  1  0.45553782  0.68360543  0.96742337  1  0  0.290164  0.389283  0  0.948966  0
H  H28  1  0.48796588  0.84357953  0.21944776  1  0  0.274977  0.347696  0  1.005345  0
H  H29  1  0.01203638  0.34357674  0.28055022  1  0  0.274971  0.347683  0  1.005357  0
H  H30  1  0.51203615  0.15642254  0.78055157  1  0  0.27495  0.347653  0  1.005408  0
H  H31  1  0.98796335  0.65642232  0.71944810  1  0  0.27498  0.347664  0  1.005381  0
H  H32  1  0.58462511  0.94654658  0.16685940  1  0  0.304142  0.384974  0  0.926845  0
H  H33  1  0.91537758  0.44654644  0.33313962  1  0  0.304142  0.384926  0  0.926942  0
H  H34  1  0.41537807  0.05345650  0.83314083  1  0  0.304146  0.384965  0  0.926841  0
H  H35  1  0.08462219  0.55345564  0.66686110  1  0  0.304129  0.384903  0  0.926869  0
H  H36  1  0.73695920  0.27412294  0.28396532  1  0  0.30098  0.399312  0  0.927054  0
H  H37  1  0.76304031  0.77412199  0.21603471  1  0  0.300983  0.39931  0  0.927078  0
H  H38  1  0.26304057  0.72587913  0.71603540  1  0  0.300967  0.399322  0  0.927049  0
H  H39  1  0.23695946  0.22587807  0.78396601  1  0  0.300966  0.399309  0  0.927069  0
H  H40  1  0.55861475  0.27203273  0.28557735  1  0  0.287559  0.360599  0  0.981012  0
H  H41  1  0.94138476  0.77203657  0.21442268  1  0  0.287547  0.360581  0  0.981033  0
H  H42  1  0.44138615  0.72796533  0.71442268  1  0  0.28755  0.360592  0  0.981014  0
H  H43  1  0.05861387  0.22796551  0.78557793  1  0  0.287531  0.360542  0  0.981054  0
C  C44  1  0.30572901  0.46801310  0.36909566  1  0  0.01744  0.162094  0  4.091653  0
C  C45  1  0.19426857  0.96801603  0.13090530  1  0  0.017383  0.16203  0  4.091812  0
C  C46  1  0.69426962  0.53198294  0.63090495  1  0  0.017408  0.162081  0  4.091558  0
C  C47  1  0.80572776  0.03197900  0.86909431  1  0  0.017362  0.162078  0  4.091807  0
C  C48  1  0.42663025  0.55555741  0.35143541  1  0  -0.045624  -0.172457  0  4.195841  0
C  C49  1  0.07337006  0.05556222  0.14855950  1  0  -0.045472  -0.172284  0  4.195492  0
C  C50  1  0.57336955  0.44443360  0.64856770  1  0  -0.045569  -0.172465  0  4.195564  0
C  C51  1  0.92662391  0.94443583  0.85143352  1  0  -0.045506  -0.172376  0  4.195997  0
C  C52  1  0.46302813  0.67187018  0.41350188  1  0  0.19917  0.302043  0  4.077636  0
C  C53  1  0.03698008  0.17188292  0.08649794  1  0  0.199225  0.302036  0  4.077743  0
C  C54  1  0.53698298  0.32812485  0.58649429  1  0  0.199142  0.301988  0  4.077903  0
C  C55  1  0.96301511  0.82812922  0.91350157  1  0  0.199161  0.302054  0  4.077867  0
C  C56  1  0.51418068  0.53576046  0.26727010  1  0  0.193339  0.290646  0  4.085487  0
C  C57  1  0.98582832  0.03575793  0.23273436  1  0  0.193217  0.290563  0  4.085637  0
C  C58  1  0.48581455  0.46424263  0.73273180  1  0  0.193323  0.290718  0  4.085489  0
C  C59  1  0.01418520  0.96424012  0.76727159  1  0  0.193299  0.290581  0  4.085533  0
S  S60  1  0.27324081  0.32736540  0.28600583  1  0  -0.15112  -0.438736  0  2.443857  0
S  S61  1  0.22676035  0.82736549  0.21399363  1  0  -0.151104  -0.438709  0  2.443815  0
S  S62  1  0.72675779  0.67262863  0.71399319  1  0  -0.151101  -0.438703  0  2.443869  0
S  S63  1  0.77323948  0.17262954  0.78601108  1  0  -0.151099  -0.438697  0  2.443821  0
S  S64  1  0.19126224  0.50179700  0.46418060  1  0  -0.174471  -0.388259  0  2.321066  0
S  S65  1  0.30873024  0.00180020  0.03581989  1  0  -0.174501  -0.388295  0  2.321121  0
S  S66  1  0.80873757  0.49820004  0.53582252  1  0  -0.174498  -0.388302  0  2.321113  0
S  S67  1  0.69126041  0.99820490  0.96418080  1  0  -0.174507  -0.388338  0  2.321077  0
N  N68  1  0.49609847  0.77214695  0.46019562  1  0  -0.334724  -0.43797  0  2.920828  0
N  N69  1  0.00390272  0.27215558  0.03980055  1  0  -0.334818  -0.438006  0  2.921234  0
N  N70  1  0.50390016  0.22784908  0.53980500  1  0  -0.334709  -0.437889  0  2.921156  0
N  N71  1  0.99609360  0.72785455  0.96019746  1  0  -0.334712  -0.437955  0  2.920896  0
N  N72  1  0.58821294  0.52449505  0.19715591  1  0  -0.362481  -0.426826  0  2.894015  0
N  N73  1  0.91179482  0.02450288  0.30284044  1  0  -0.362409  -0.426785  0  2.894292  0
N  N74  1  0.41178911  0.47550098  0.80284501  1  0  -0.362463  -0.426849  0  2.894105  0
N  N75  1  0.08821054  0.97550322  0.69715281  1  0  -0.362478  -0.426809  0  2.894099  0
O  O76  1  0.85275654  0.17950430  0.54132102  1  0  -0.585642  -0.743948  0  2.155645  0
O  O77  1  0.64724180  0.67950518  0.95867858  1  0  -0.585644  -0.743891  0  2.155633  0
O  O78  1  0.14724436  0.82049476  0.45867900  1  0  -0.585625  -0.743883  0  2.155617  0
O  O79  1  0.35275681  0.32049590  0.04132044  1  0  -0.585638  -0.743883  0  2.155703  0
O  O80  1  0.37896752  0.03847214  0.38357135  1  0  -0.636249  -0.831538  0  2.201248  0
O  O81  1  0.12103517  0.53847411  0.11642933  1  0  -0.636269  -0.831581  0  2.201102  0
O  O82  1  0.62103567  0.96152490  0.61642888  1  0  -0.636293  -0.831654  0  2.200996  0
O  O83  1  0.87896460  0.46152494  0.88357139  1  0  -0.636284  -0.831607  0  2.201148  0
O  O84  1  0.84393263  0.81200108  0.47063607  1  0  -0.660065  -0.837328  0  2.060581  0
O  O85  1  0.65606795  0.31200344  0.02936174  1  0  -0.660089  -0.837299  0  2.060587  0
O  O86  1  0.15606597  0.18799798  0.52936216  1  0  -0.660056  -0.837317  0  2.06059  0
O  O87  1  0.34393066  0.68799864  0.97063728  1  0  -0.660068  -0.837301  0  2.060565  0
O  O88  1  0.59216668  0.88336434  0.22731961  1  0  -0.578756  -0.76419  0  2.090008  0
O  O89  1  0.90783724  0.38336403  0.27267942  1  0  -0.578758  -0.764126  0  2.089962  0
O  O90  1  0.40783536  0.11663774  0.77267972  1  0  -0.578733  -0.764152  0  2.08994  0
O  O91  1  0.09216368  0.61663805  0.72732220  1  0  -0.578744  -0.764056  0  2.090026  0
O  O92  1  0.65100388  0.21704557  0.29915972  1  0  -0.635742  -0.819304  0  2.044316  0
O  O93  1  0.84899571  0.71704647  0.20084101  1  0  -0.635738  -0.819287  0  2.044354  0
O  O94  1  0.34899816  0.78295450  0.70084040  1  0  -0.635728  -0.819315  0  2.044281  0
O  O95  1  0.15100292  0.28295460  0.79915960  1  0  -0.635708  -0.819218  0  2.04443  0
