# generated using pymatgen
data_CdH16C20(N3O2)2
_symmetry_space_group_name_H-M   'P 1'
_cell_length_a   4.93914895
_cell_length_b   9.20938728
_cell_length_c   20.17619113
_cell_angle_alpha   90.00191102
_cell_angle_beta   91.30467082
_cell_angle_gamma   90.00125795
_symmetry_Int_Tables_number   1
_chemical_formula_structural   CdH16C20(N3O2)2
_chemical_formula_sum   'Cd2 H32 C40 N12 O8'
_cell_volume   917.50711324
_cell_formula_units_Z   2
loop_
 _symmetry_equiv_pos_site_id
 _symmetry_equiv_pos_as_xyz
  1  'x, y, z'
loop_
 _atom_site_type_symbol
 _atom_site_label
 _atom_site_symmetry_multiplicity
 _atom_site_fract_x
 _atom_site_fract_y
 _atom_site_fract_z
 _atom_site_occupancy
 _atom_site_hle17_bader_spin_density
 _atom_site_hle17_ddec_charge
 _atom_site_hle17_ddec_spin_density
 _atom_site_hle17_ddec_sum_bond_order
 _atom_site_hle17_magmom
 _atom_site_hse06_10hf_bader_spin_density
 _atom_site_hse06_10hf_ddec_charge
 _atom_site_hse06_10hf_ddec_spin_density
 _atom_site_hse06_10hf_ddec_sum_bond_order
 _atom_site_hse06_10hf_magmom
 _atom_site_hse06_bader_spin_density
 _atom_site_hse06_ddec_charge
 _atom_site_hse06_ddec_spin_density
 _atom_site_hse06_ddec_sum_bond_order
 _atom_site_hse06_magmom
 _atom_site_pbe_bader_spin_density
 _atom_site_pbe_cm5_charge
 _atom_site_pbe_ddec_charge
 _atom_site_pbe_ddec_spin_density
 _atom_site_pbe_ddec_sum_bond_order
 _atom_site_pbe_magmom
Cd  Cd0  1  0.50000367  0.50000816  0.50000013  1  0  1.192298  0  1.665761  0  0  1.008943  0  2.120079  0  0  1.061847  0  2.067339  0  0  0.796934  0.970934  0  2.156418  0
Cd  Cd1  1  0.49999717  0.99998778  0.00000066  1  0  1.192245  0  1.665808  0  0  1.0089  0  2.120083  0  0  1.061802  0  2.067346  0  0  0.79691  0.970894  0  2.156409  0
H  H2  1  0.00699622  0.28807518  0.99223330  1  0  0.104652  0  0.976136  0  0  0.105971  0  1.051158  0  0  0.109459  0  1.046614  0  0  0.128981  0.103184  0  1.054859  0
H  H3  1  0.99299982  0.78809759  0.50776419  1  0  0.104607  0  0.97613  0  0  0.105925  0  1.051114  0  0  0.109412  0  1.046569  0  0  0.128981  0.103106  0  1.054851  0
H  H4  1  0.99299013  0.71190206  0.00777004  1  0  0.104717  0  0.97604  0  0  0.106059  0  1.051029  0  0  0.109548  0  1.046481  0  0  0.129019  0.103225  0  1.054781  0
H  H5  1  0.00699686  0.21193069  0.49223835  1  0  0.104716  0  0.976136  0  0  0.106032  0  1.05116  0  0  0.109521  0  1.046613  0  0  0.128964  0.103187  0  1.054933  0
H  H6  1  0.73060913  0.25909460  0.10460380  1  0  0.110897  0  0.951557  0  0  0.117818  0  1.019295  0  0  0.120641  0  1.01595  0  0  0.141821  0.115699  0  1.021678  0
H  H7  1  0.26936899  0.75911141  0.39540013  1  0  0.110963  0  0.951444  0  0  0.117882  0  1.01917  0  0  0.12071  0  1.015808  0  0  0.141856  0.115758  0  1.021556  0
H  H8  1  0.26937957  0.74087721  0.89539810  1  0  0.11103  0  0.951448  0  0  0.117818  0  1.01931  0  0  0.120634  0  1.015982  0  0  0.141837  0.115696  0  1.021688  0
H  H9  1  0.73061862  0.24090600  0.60460671  1  0  0.110905  0  0.951498  0  0  0.117778  0  1.019294  0  0  0.120601  0  1.015946  0  0  0.141835  0.115657  0  1.021676  0
H  H10  1  0.40046839  0.64117429  0.12216877  1  0  0.104685  0  0.931525  0  0  0.116669  0  1.000854  0  0  0.118688  0  0.998217  0  0  0.122198  0.115187  0  1.002911  0
H  H11  1  0.59953684  0.14119193  0.37784244  1  0  0.104665  0  0.931474  0  0  0.11679  0  1.000645  0  0  0.118817  0  0.997997  0  0  0.122207  0.115304  0  1.002709  0
H  H12  1  0.59954923  0.35881164  0.87782175  1  0  0.104652  0  0.931432  0  0  0.11673  0  1.000734  0  0  0.118777  0  0.998068  0  0  0.122272  0.115262  0  1.002756  0
H  H13  1  0.40045198  0.85882439  0.62215896  1  0  0.104697  0  0.931543  0  0  0.116779  0  1.000743  0  0  0.118838  0  0.998063  0  0  0.122233  0.115284  0  1.002826  0
H  H14  1  0.72731701  0.59881057  0.09343634  1  0  0.090281  0  0.941127  0  0  0.101159  0  1.013263  0  0  0.101893  0  1.012665  0  0  0.114448  0.100442  0  1.014077  0
H  H15  1  0.27267916  0.09882254  0.40656964  1  0  0.090296  0  0.941061  0  0  0.101148  0  1.013238  0  0  0.101882  0  1.012639  0  0  0.11446  0.100432  0  1.014054  0
H  H16  1  0.27269973  0.40115798  0.90655814  1  0  0.090253  0  0.941009  0  0  0.101126  0  1.013252  0  0  0.101858  0  1.012659  0  0  0.114391  0.10041  0  1.01407  0
H  H17  1  0.72730425  0.90120030  0.59342868  1  0  0.090336  0  0.941051  0  0  0.101192  0  1.013209  0  0  0.10193  0  1.012608  0  0  0.114427  0.10047  0  1.014034  0
H  H18  1  0.35946129  0.36686299  0.21712088  1  0  0.092857  0  0.964336  0  0  0.100315  0  1.029529  0  0  0.102758  0  1.030295  0  0  0.097852  0.098545  0  1.029147  0
H  H19  1  0.64054185  0.86688288  0.28287660  1  0  0.092689  0  0.964344  0  0  0.100132  0  1.029571  0  0  0.102571  0  1.030348  0  0  0.097811  0.09836  0  1.02919  0
H  H20  1  0.64053797  0.63313162  0.78287923  1  0  0.092855  0  0.964379  0  0  0.100301  0  1.029574  0  0  0.102742  0  1.030344  0  0  0.097855  0.098528  0  1.029186  0
H  H21  1  0.35946609  0.13312911  0.71713013  1  0  0.092775  0  0.964334  0  0  0.100252  0  1.029525  0  0  0.102698  0  1.030285  0  0  0.097834  0.098479  0  1.029145  0
H  H22  1  0.98724879  0.68289051  0.18500518  1  0  0.09303  0  0.966652  0  0  0.10416  0  1.028498  0  0  0.106303  0  1.028853  0  0  0.09865  0.102535  0  1.028525  0
H  H23  1  0.01276337  0.18290145  0.31500229  1  0  0.092951  0  0.96672  0  0  0.104058  0  1.028585  0  0  0.106209  0  1.028937  0  0  0.098601  0.102425  0  1.02862  0
H  H24  1  0.01275423  0.31709975  0.81498706  1  0  0.093073  0  0.966576  0  0  0.104195  0  1.028431  0  0  0.106344  0  1.028773  0  0  0.098637  0.102566  0  1.028461  0
H  H25  1  0.98722314  0.81710944  0.68499113  1  0  0.092996  0  0.966717  0  0  0.104118  0  1.028575  0  0  0.106269  0  1.028922  0  0  0.098606  0.102487  0  1.028602  0
H  H26  1  0.16522808  0.64190182  0.29936379  1  0  0.091153  0  0.966733  0  0  0.099575  0  1.033186  0  0  0.102354  0  1.031859  0  0  0.098962  0.097536  0  1.034221  0
H  H27  1  0.83479052  0.14191076  0.20064222  1  0  0.091146  0  0.96674  0  0  0.099591  0  1.033159  0  0  0.102372  0  1.03183  0  0  0.098951  0.097549  0  1.0342  0
H  H28  1  0.83477036  0.35810474  0.70063084  1  0  0.091086  0  0.966771  0  0  0.099516  0  1.033208  0  0  0.102295  0  1.031881  0  0  0.098952  0.097473  0  1.034248  0
H  H29  1  0.16522251  0.85808603  0.79935070  1  0  0.091132  0  0.966793  0  0  0.099608  0  1.033168  0  0  0.10239  0  1.031837  0  0  0.09895  0.097567  0  1.034204  0
H  H30  1  0.52525026  0.33821924  0.33320187  1  0  0.091886  0  0.977618  0  0  0.101598  0  1.042066  0  0  0.104409  0  1.040433  0  0  0.10068  0.099598  0  1.043227  0
H  H31  1  0.47473707  0.83822749  0.16679639  1  0  0.091843  0  0.977523  0  0  0.101567  0  1.041964  0  0  0.104404  0  1.040271  0  0  0.10064  0.099552  0  1.043151  0
H  H32  1  0.47474675  0.66179166  0.66679919  1  0  0.09185  0  0.977671  0  0  0.101581  0  1.042081  0  0  0.104387  0  1.040465  0  0  0.10067  0.09958  0  1.043239  0
H  H33  1  0.52528726  0.16176387  0.83320965  1  0  0.091772  0  0.977646  0  0  0.101555  0  1.042003  0  0  0.104355  0  1.040402  0  0  0.100653  0.099532  0  1.043214  0
C  C34  1  0.17559012  0.31760391  0.02510284  1  0  0.185558  0  3.717091  0  0  0.132758  0  4.011457  0  0  0.144349  0  4.023559  0  0  0.139579  0.125201  0  4.0031  0
C  C35  1  0.82440020  0.81762618  0.47489569  1  0  0.185756  0  3.717095  0  0  0.133019  0  4.011368  0  0  0.144609  0  4.023469  0  0  0.139676  0.12549  0  4.003033  0
C  C36  1  0.82439656  0.68237333  0.97489902  1  0  0.18551  0  3.717148  0  0  0.132716  0  4.011454  0  0  0.144306  0  4.023553  0  0  0.139547  0.125199  0  4.003115  0
C  C37  1  0.17559019  0.18239775  0.52510773  1  0  0.185321  0  3.717481  0  0  0.132545  0  4.011785  0  0  0.144133  0  4.023889  0  0  0.139498  0.125029  0  4.00347  0
C  C38  1  0.54545084  0.29952648  0.08158900  1  0  0.177856  0  3.635733  0  0  0.101531  0  3.897115  0  0  0.116209  0  3.908681  0  0  0.164925  0.092389  0  3.888676  0
C  C39  1  0.45453351  0.79954376  0.41841413  1  0  0.177843  0  3.635455  0  0  0.101569  0  3.896922  0  0  0.116251  0  3.908492  0  0  0.16503  0.092435  0  3.888474  0
C  C40  1  0.45453978  0.70044750  0.91841343  1  0  0.177786  0  3.635671  0  0  0.101559  0  3.897105  0  0  0.11624  0  3.908665  0  0  0.164968  0.09243  0  3.888653  0
C  C41  1  0.54545623  0.20047691  0.58159226  1  0  0.178181  0  3.635394  0  0  0.101868  0  3.896807  0  0  0.116549  0  3.908371  0  0  0.165034  0.09273  0  3.888363  0
C  C42  1  0.56044903  0.55810017  0.12333341  1  0  -0.061359  0  3.648267  0  0  -0.140625  0  3.896084  0  0  -0.136178  0  3.904338  0  0  -0.041775  -0.143672  0  3.890512  0
C  C43  1  0.43955335  0.05811384  0.37667211  1  0  -0.061534  0  3.647982  0  0  -0.140836  0  3.895841  0  0  -0.136387  0  3.904079  0  0  -0.041902  -0.143879  0  3.890282  0
C  C44  1  0.43956355  0.44187923  0.87666149  1  0  -0.061338  0  3.648046  0  0  -0.140787  0  3.896139  0  0  -0.136356  0  3.904367  0  0  -0.041868  -0.143829  0  3.890573  0
C  C45  1  0.56042174  0.94190574  0.62332705  1  0  -0.061472  0  3.647968  0  0  -0.140734  0  3.895708  0  0  -0.13631  0  3.903944  0  0  -0.041815  -0.143781  0  3.890145  0
C  C46  1  0.66249634  0.52747916  0.19287801  1  0  0.074985  0  3.752605  0  0  0.091899  0  3.995649  0  0  0.092659  0  4.01946  0  0  -0.011858  0.09179  0  3.979128  0
C  C47  1  0.33751295  0.02749191  0.30712621  1  0  0.07501  0  3.752791  0  0  0.091941  0  3.995776  0  0  0.092702  0  4.019589  0  0  -0.011672  0.091835  0  3.97925  0
C  C48  1  0.33750996  0.47251110  0.80711776  1  0  0.07495  0  3.752653  0  0  0.09185  0  3.995802  0  0  0.092609  0  4.019615  0  0  -0.011886  0.091741  0  3.979274  0
C  C49  1  0.66248576  0.97252008  0.69287637  1  0  0.075239  0  3.752433  0  0  0.092029  0  3.995621  0  0  0.092786  0  4.019443  0  0  -0.01172  0.091924  0  3.97909  0
C  C50  1  0.53505439  0.42870693  0.23471309  1  0  -0.12948  0  3.757206  0  0  -0.146308  0  4.006539  0  0  -0.150886  0  4.028776  0  0  -0.095368  -0.143254  0  3.991243  0
C  C51  1  0.46494486  0.92872252  0.26528816  1  0  -0.129232  0  3.757174  0  0  -0.146048  0  4.006496  0  0  -0.150632  0  4.028744  0  0  -0.095368  -0.142997  0  3.991198  0
C  C52  1  0.46494901  0.57128985  0.76528660  1  0  -0.129521  0  3.757255  0  0  -0.14632  0  4.0066  0  0  -0.150898  0  4.028833  0  0  -0.095382  -0.143261  0  3.99129  0
C  C53  1  0.53505936  0.07128729  0.73471700  1  0  -0.129567  0  3.757434  0  0  -0.146409  0  4.006847  0  0  -0.150987  0  4.029086  0  0  -0.095433  -0.143354  0  3.991548  0
C  C54  1  0.88695956  0.60557009  0.21728270  1  0  -0.126429  0  3.738984  0  0  -0.14283  0  3.984362  0  0  -0.14711  0  4.006203  0  0  -0.095487  -0.140036  0  3.969483  0
C  C55  1  0.11304725  0.10558075  0.28272258  1  0  -0.126377  0  3.739051  0  0  -0.142746  0  3.984376  0  0  -0.147033  0  4.00622  0  0  -0.095435  -0.139944  0  3.969503  0
C  C56  1  0.11304280  0.39442235  0.78271250  1  0  -0.126409  0  3.738812  0  0  -0.14277  0  3.984148  0  0  -0.147046  0  4.005975  0  0  -0.095372  -0.139973  0  3.969274  0
C  C57  1  0.88695277  0.89442580  0.71727407  1  0  -0.126521  0  3.739142  0  0  -0.142879  0  3.984533  0  0  -0.147164  0  4.006374  0  0  -0.095488  -0.140082  0  3.969653  0
C  C58  1  0.98496411  0.58432952  0.28184836  1  0  -0.061648  0  3.751098  0  0  -0.083519  0  3.99654  0  0  -0.082092  0  4.016335  0  0  -0.086053  -0.084209  0  3.983028  0
C  C59  1  0.01504620  0.08433859  0.21815470  1  0  -0.061599  0  3.751035  0  0  -0.083501  0  3.996456  0  0  -0.08208  0  4.016256  0  0  -0.086068  -0.084199  0  3.98295  0
C  C60  1  0.01503634  0.41567161  0.71814631  1  0  -0.061622  0  3.751025  0  0  -0.08349  0  3.996448  0  0  -0.082062  0  4.016241  0  0  -0.086096  -0.084176  0  3.982936  0
C  C61  1  0.98496403  0.91566037  0.78184165  1  0  -0.061621  0  3.751114  0  0  -0.083528  0  3.996535  0  0  -0.082104  0  4.016329  0  0  -0.086018  -0.084219  0  3.983016  0
C  C62  1  0.62979907  0.41026350  0.29968655  1  0  -0.053586  0  3.74332  0  0  -0.076456  0  3.989572  0  0  -0.075194  0  4.009446  0  0  -0.083642  -0.077126  0  3.976126  0
C  C63  1  0.37020125  0.91027424  0.20031496  1  0  -0.053548  0  3.743111  0  0  -0.076424  0  3.989339  0  0  -0.075157  0  4.009219  0  0  -0.083627  -0.077095  0  3.975876  0
C  C64  1  0.37020816  0.58974088  0.70031420  1  0  -0.053431  0  3.743163  0  0  -0.076292  0  3.989374  0  0  -0.075029  0  4.009246  0  0  -0.083586  -0.076966  0  3.975923  0
C  C65  1  0.62981342  0.08972471  0.79968892  1  0  -0.053386  0  3.743545  0  0  -0.076275  0  3.989792  0  0  -0.075016  0  4.009659  0  0  -0.083602  -0.076955  0  3.976338  0
C  C66  1  0.85759580  0.48567674  0.32387393  1  0  -0.079281  0  3.748758  0  0  -0.055957  0  3.981633  0  0  -0.064894  0  4.004954  0  0  -0.024159  -0.050301  0  3.966014  0
C  C67  1  0.14240192  0.98568646  0.17612859  1  0  -0.07936  0  3.748781  0  0  -0.056045  0  3.981672  0  0  -0.064983  0  4.005  0  0  -0.024191  -0.050375  0  3.966035  0
C  C68  1  0.14240602  0.51432982  0.67612374  1  0  -0.079392  0  3.748753  0  0  -0.05608  0  3.981654  0  0  -0.06502  0  4.004974  0  0  -0.024202  -0.050423  0  3.966031  0
C  C69  1  0.85760564  0.01431032  0.82387069  1  0  -0.079259  0  3.74882  0  0  -0.055944  0  3.981783  0  0  -0.064878  0  4.005104  0  0  -0.024171  -0.050274  0  3.966142  0
C  C70  1  0.96516798  0.45640220  0.39329209  1  0  0.6534  0  3.926018  0  0  0.600032  0  4.226545  0  0  0.635143  0  4.218284  0  0  0.200501  0.576284  0  4.231028  0
C  C71  1  0.03483288  0.95640553  0.10670809  1  0  0.653276  0  3.926089  0  0  0.599894  0  4.226609  0  0  0.635  0  4.218357  0  0  0.200427  0.576146  0  4.231087  0
C  C72  1  0.03483587  0.54361304  0.60670562  1  0  0.653357  0  3.926156  0  0  0.599956  0  4.226704  0  0  0.635069  0  4.218434  0  0  0.200406  0.576214  0  4.231184  0
C  C73  1  0.96517840  0.04357714  0.89329274  1  0  0.653178  0  3.926279  0  0  0.599729  0  4.22693  0  0  0.634838  0  4.21867  0  0  0.20039  0.575975  0  4.231416  0
N  N74  1  0.38118709  0.22368623  0.04103575  1  0  -0.40452  0  3.183281  0  0  -0.327126  0  3.468932  0  0  -0.350409  0  3.482891  0  0  -0.346013  -0.311136  0  3.458622  0
N  N75  1  0.61879836  0.72370834  0.45896384  1  0  -0.404756  0  3.183082  0  0  -0.327369  0  3.468695  0  0  -0.350654  0  3.482658  0  0  -0.346155  -0.311375  0  3.458369  0
N  N76  1  0.61879915  0.77628775  0.95896808  1  0  -0.404645  0  3.183182  0  0  -0.327249  0  3.46878  0  0  -0.350533  0  3.482742  0  0  -0.34606  -0.311265  0  3.458455  0
N  N77  1  0.38119766  0.27631559  0.54104167  1  0  -0.404684  0  3.183037  0  0  -0.327274  0  3.468671  0  0  -0.350557  0  3.482629  0  0  -0.346083  -0.311288  0  3.458356  0
N  N78  1  0.44167417  0.43292163  0.08950381  1  0  0.04534  0  3.566611  0  0  0.167235  0  3.750116  0  0  0.156031  0  3.77443  0  0  -0.133464  0.174056  0  3.734438  0
N  N79  1  0.55831653  0.93293617  0.41050032  1  0  0.045712  0  3.56639  0  0  0.167372  0  3.750167  0  0  0.156167  0  3.774482  0  0  -0.133457  0.174187  0  3.734507  0
N  N80  1  0.55832541  0.56705560  0.91049482  1  0  0.045521  0  3.566863  0  0  0.167416  0  3.750442  0  0  0.156213  0  3.774761  0  0  -0.133426  0.174214  0  3.7348  0
N  N81  1  0.44165938  0.06708450  0.58950431  1  0  0.045222  0  3.566802  0  0  0.167129  0  3.75029  0  0  0.155922  0  3.774612  0  0  -0.133425  0.173982  0  3.73456  0
N  N82  1  0.20496774  0.44674295  0.05384952  1  0  -0.272366  0  2.846575  0  0  -0.272259  0  3.118308  0  0  -0.281018  0  3.132968  0  0  -0.221185  -0.266221  0  3.108649  0
N  N83  1  0.79503617  0.94675947  0.44615307  1  0  -0.272564  0  2.846441  0  0  -0.272409  0  3.118232  0  0  -0.281172  0  3.132892  0  0  -0.221238  -0.266372  0  3.108571  0
N  N84  1  0.79503386  0.55323537  0.94614915  1  0  -0.27239  0  2.846433  0  0  -0.272253  0  3.118123  0  0  -0.281014  0  3.132783  0  0  -0.221178  -0.266216  0  3.108457  0
N  N85  1  0.20495199  0.05326446  0.55385130  1  0  -0.272279  0  2.846993  0  0  -0.272205  0  3.118752  0  0  -0.280967  0  3.133419  0  0  -0.221229  -0.266175  0  3.109082  0
O  O86  1  0.19647561  0.50928381  0.40822546  1  0  -0.651026  0  2.027137  0  0  -0.586622  0  2.289579  0  0  -0.615282  0  2.278794  0  0  -0.324973  -0.566374  0  2.296199  0
O  O87  1  0.80354000  0.00928853  0.09177366  1  0  -0.650933  0  2.027277  0  0  -0.58653  0  2.289739  0  0  -0.615191  0  2.278962  0  0  -0.324877  -0.566286  0  2.296357  0
O  O88  1  0.80352834  0.49073360  0.59177176  1  0  -0.650867  0  2.027159  0  0  -0.586526  0  2.289746  0  0  -0.615188  0  2.27897  0  0  -0.324895  -0.566283  0  2.296364  0
O  O89  1  0.19647363  0.99069631  0.90822572  1  0  -0.650932  0  2.027289  0  0  -0.586452  0  2.289675  0  0  -0.615106  0  2.278893  0  0  -0.324907  -0.566202  0  2.296296  0
O  O90  1  0.82038437  0.37903398  0.43124445  1  0  -0.673018  0  2.000479  0  0  -0.613475  0  2.261418  0  0  -0.638751  0  2.247434  0  0  -0.343067  -0.595548  0  2.270369  0
O  O91  1  0.17961047  0.87902621  0.06875652  1  0  -0.673014  0  2.000393  0  0  -0.613475  0  2.261365  0  0  -0.638753  0  2.247381  0  0  -0.343104  -0.595551  0  2.270317  0
O  O92  1  0.17962095  0.62098778  0.56875578  1  0  -0.673132  0  2.00062  0  0  -0.613514  0  2.261499  0  0  -0.638788  0  2.247514  0  0  -0.343054  -0.595598  0  2.27046  0
O  O93  1  0.82039633  0.12094777  0.93124621  1  0  -0.672894  0  2.000487  0  0  -0.613347  0  2.261459  0  0  -0.638619  0  2.247482  0  0  -0.343023  -0.59543  0  2.270424  0
