# generated using pymatgen
data_CuH17C20N3O4
_symmetry_space_group_name_H-M   'P 1'
_cell_length_a   12.69884292
_cell_length_b   13.10057448
_cell_length_c   14.40480331
_cell_angle_alpha   89.99977926
_cell_angle_beta   89.99991937
_cell_angle_gamma   105.62164562
_symmetry_Int_Tables_number   1
_chemical_formula_structural   CuH17C20N3O4
_chemical_formula_sum   'Cu4 H68 C80 N12 O16'
_cell_volume   2307.89250477
_cell_formula_units_Z   4
loop_
 _symmetry_equiv_pos_site_id
 _symmetry_equiv_pos_as_xyz
  1  'x, y, z'
loop_
 _atom_site_type_symbol
 _atom_site_label
 _atom_site_symmetry_multiplicity
 _atom_site_fract_x
 _atom_site_fract_y
 _atom_site_fract_z
 _atom_site_occupancy
 _atom_site_pbe_bader_charge
 _atom_site_pbe_bader_spin_density
 _atom_site_pbe_cm5_charge
 _atom_site_pbe_ddec_charge
 _atom_site_pbe_ddec_spin_density
 _atom_site_pbe_ddec_sum_bond_order
 _atom_site_pbe_magmom
Cu  Cu0  1  0.20016869  0.14455173  0.54884710  1  1.046536  -0.550281  0.750248  0.675029  -0.723602  2.404067  -0.547
Cu  Cu1  1  0.29984583  0.85546078  0.04891186  1  1.048225  -0.553802  0.751027  0.675775  -0.728284  2.40511  -0.551
Cu  Cu2  1  0.79984180  0.85545034  0.45108782  1  1.048105  -0.553796  0.751111  0.675967  -0.728283  2.404772  -0.551
Cu  Cu3  1  0.70016080  0.14454444  0.95115843  1  1.046704  0.550284  0.750238  0.675005  0.763966  2.404112  0.547
H  H4  1  0.25837737  0.27585138  0.08862743  1  0.043493  3.3e-05  0.093091  0.087805  1.8e-05  0.981304  0.0
H  H5  1  0.24161186  0.72413233  0.58864737  1  0.043501  5.7e-05  0.093139  0.087872  3.7e-05  0.981386  0.0
H  H6  1  0.74161719  0.72414430  0.91135053  1  0.043183  5.5e-05  0.093131  0.087883  4.4e-05  0.981342  0.0
H  H7  1  0.75838278  0.27584355  0.41136877  1  0.043388  -3.4e-05  0.093106  0.087877  -2.6e-05  0.981258  0.0
H  H8  1  0.33495572  0.30645819  0.98505887  1  0.016043  -4e-05  0.086165  0.073191  -3e-05  0.993351  0.0
H  H9  1  0.16503301  0.69353463  0.48507646  1  0.015809  -8e-06  0.086234  0.073284  -1.2e-05  0.993356  0.0
H  H10  1  0.66503297  0.69353906  0.01491840  1  0.01585  -1e-05  0.086207  0.073247  -6e-06  0.993361  0.0
H  H11  1  0.83496239  0.30645551  0.51493621  1  0.015991  4.2e-05  0.086192  0.073252  2.5e-05  0.993318  0.0
H  H12  1  0.09316442  0.30247800  0.00890478  1  0.074099  -2e-05  0.101116  0.113282  -1.7e-05  0.980945  0.0
H  H13  1  0.40682828  0.69753226  0.50891419  1  0.07497  6.7e-05  0.10112  0.113295  3.9e-05  0.981035  0.0
H  H14  1  0.90682762  0.69753430  0.99108013  1  0.074652  1.6e-05  0.101204  0.113433  1.4e-05  0.981025  0.0
H  H15  1  0.59317133  0.30247611  0.49108599  1  0.074653  7.1e-05  0.101118  0.113274  4.4e-05  0.980866  0.0
H  H16  1  0.16381480  0.32875109  0.90370135  1  0.015942  3.8e-05  0.095401  0.098054  2.3e-05  0.984823  0.0
H  H17  1  0.33617423  0.67125956  0.40371256  1  0.015989  4.3e-05  0.095506  0.09822  2.5e-05  0.98482  0.0
H  H18  1  0.83617746  0.67126200  0.09628355  1  0.016081  -1.8e-05  0.095573  0.09833  -4e-06  0.984775  0.0
H  H19  1  0.66381794  0.32875037  0.59628969  1  0.015972  2.3e-05  0.09548  0.09822  9e-06  0.984751  0.0
H  H20  1  0.05876587  0.47736276  0.94148647  1  0.032529  -1.2e-05  0.104892  0.111167  -7e-06  1.014446  0.0
H  H21  1  0.44123745  0.52264854  0.44148488  1  0.032465  -1e-05  0.104906  0.111037  -1.1e-05  1.014468  0.0
H  H22  1  0.94123571  0.52265274  0.05850815  1  0.032536  1.2e-05  0.104945  0.111232  7e-06  1.014326  0.0
H  H23  1  0.55876695  0.47735430  0.55849933  1  0.032654  -9e-06  0.104886  0.111216  -1e-05  1.014397  0.0
H  H24  1  0.40686175  0.66285534  0.08634270  1  0.101821  1.8e-05  0.112362  0.080907  3.6e-05  0.991536  0.0
H  H25  1  0.09314025  0.33713476  0.58633363  1  0.101924  3.4e-05  0.112383  0.080985  4.7e-05  0.99144  0.0
H  H26  1  0.59313574  0.33713955  0.91366719  1  0.10198  -3.4e-05  0.112352  0.080908  -4.7e-05  0.99146  0.0
H  H27  1  0.90686670  0.66286017  0.41365613  1  0.101709  1.8e-05  0.112332  0.080858  3.4e-05  0.991519  0.0
H  H28  1  0.10885287  0.67099055  0.97615370  1  0.085264  8.3e-05  0.110938  0.078379  0.000101  1.019735  0.0
H  H29  1  0.39114423  0.32901263  0.47612925  1  0.084887  8.3e-05  0.110936  0.078344  9.9e-05  1.019773  0.0
H  H30  1  0.89114495  0.32901702  0.02386313  1  0.085023  -8.2e-05  0.110915  0.078351  -9.6e-05  1.019698  0.0
H  H31  1  0.60885335  0.67098543  0.52384246  1  0.085412  8.3e-05  0.110952  0.078421  0.000102  1.019543  0.0
H  H32  1  0.36711187  0.46743848  0.06186443  1  0.055516  -1.2e-05  0.10644  0.113215  -7e-06  1.01065  0.0
H  H33  1  0.13289130  0.53255571  0.56187268  1  0.055377  -1.1e-05  0.106428  0.113193  -9e-06  1.010585  0.0
H  H34  1  0.63288571  0.53255958  0.93812811  1  0.055314  1.4e-05  0.106408  0.113197  1e-05  1.010659  0.0
H  H35  1  0.86712204  0.46744241  0.43813166  1  0.055556  -1.5e-05  0.106408  0.113164  -1.2e-05  1.010647  0.0
H  H36  1  0.18545849  0.09040600  0.15552701  1  0.084258  0.000139  0.118401  0.124533  8.7e-05  0.99356  0.0
H  H37  1  0.31456753  0.90960601  0.65559967  1  0.084734  0.00011  0.118437  0.124565  8e-05  0.993383  0.0
H  H38  1  0.81457535  0.90961515  0.84439541  1  0.084799  5.5e-05  0.118495  0.124602  3.7e-05  0.993371  0.0
H  H39  1  0.68544654  0.09039765  0.34448242  1  0.084083  -8.5e-05  0.118372  0.124551  -4.3e-05  0.993536  0.0
H  H40  1  0.26767415  0.11375930  0.00969015  1  0.111577  8e-05  0.096498  0.115739  7.2e-05  1.032856  0.0
H  H41  1  0.23229778  0.88623268  0.50971370  1  0.111325  0.000165  0.096423  0.115656  0.000131  1.032964  0.0
H  H42  1  0.73230021  0.88624027  0.99028781  1  0.110908  5e-06  0.096413  0.115565  -2.1e-05  1.033007  0.0
H  H43  1  0.76767862  0.11375424  0.49031216  1  0.111438  7.8e-05  0.096447  0.115608  8.6e-05  1.032911  0.0
H  H44  1  0.12848742  0.12202029  0.01039554  1  0.082007  -4.1e-05  0.096152  0.113973  -3.7e-05  1.016425  0.0
H  H45  1  0.37149255  0.87797804  0.51042658  1  0.081939  2.6e-05  0.096167  0.11403  3.2e-05  1.016259  0.0
H  H46  1  0.87149333  0.87798247  0.98958172  1  0.082029  1.2e-05  0.096149  0.114014  1.4e-05  1.016327  0.0
H  H47  1  0.62849233  0.12201681  0.48960483  1  0.082079  5.3e-05  0.096156  0.113968  5.5e-05  1.016487  0.0
H  H48  1  0.03106025  0.11336387  0.86686479  1  0.126365  -0.000714  0.112337  0.13109  -0.00029  1.000342  0.0
H  H49  1  0.46893036  0.88665805  0.36690147  1  0.126471  -0.000796  0.112319  0.13098  -0.000501  1.00044  0.0
H  H50  1  0.96892244  0.88666028  0.13310414  1  0.126695  -0.000795  0.112327  0.131036  -0.000501  1.000393  0.0
H  H51  1  0.53106245  0.11336851  0.63313203  1  0.126302  0.000721  0.112351  0.131071  0.000323  1.000383  0.0
H  H52  1  0.35927127  0.10611529  0.23987791  1  0.158209  -0.001406  0.109812  0.123927  -0.000666  1.046949  -0.001
H  H53  1  0.14071331  0.89377500  0.73997652  1  0.160266  -0.001857  0.109871  0.12409  -0.001202  1.046836  -0.001
H  H54  1  0.64071792  0.89378059  0.76002160  1  0.160396  -0.00187  0.109868  0.124136  -0.001185  1.046724  -0.001
H  H55  1  0.85926743  0.10612165  0.26013056  1  0.157911  0.001423  0.109828  0.123985  0.000708  1.046968  0.001
H  H56  1  0.01772746  0.09611373  0.24111939  1  0.177471  -0.00137  0.10928  0.120106  -0.000641  1.055591  -0.001
H  H57  1  0.48232846  0.90401910  0.74125017  1  0.182083  -0.001845  0.109299  0.120196  -0.001211  1.055346  -0.001
H  H58  1  0.98233170  0.90401678  0.75874680  1  0.182124  -0.001842  0.109277  0.120159  -0.00121  1.055276  -0.001
H  H59  1  0.51771743  0.09610899  0.25889093  1  0.177301  0.001375  0.109323  0.120152  0.000698  1.055355  0.001
H  H60  1  0.38238158  0.17745869  0.86161760  1  0.107259  -0.000697  0.107577  0.123862  -0.000301  1.012383  0.0
H  H61  1  0.11760497  0.82250543  0.36163411  1  0.106605  -0.000789  0.10765  0.123875  -0.000486  1.012212  0.0
H  H62  1  0.61759592  0.82249496  0.13836869  1  0.106505  -0.000795  0.107648  0.123898  -0.000481  1.012163  0.0
H  H63  1  0.88238246  0.17745855  0.63838759  1  0.107188  0.000703  0.107534  0.123854  0.000319  1.012416  0.0
H  H64  1  0.37125297  0.17325008  0.68660794  1  0.125611  -0.001392  0.117898  0.094271  -0.000619  1.014802  -0.001
H  H65  1  0.12875181  0.82675932  0.18662928  1  0.126063  -0.00141  0.117792  0.094245  -0.000629  1.014888  -0.001
H  H66  1  0.62874137  0.82674480  0.31337488  1  0.125975  -0.001415  0.117846  0.094324  -0.000634  1.014909  -0.001
H  H67  1  0.87124620  0.17324033  0.81339658  1  0.125614  0.001396  0.117901  0.094287  0.000669  1.01478  0.001
H  H68  1  0.03479889  0.11197195  0.69168434  1  0.118952  -0.00152  0.116241  0.089724  -0.000681  1.029358  -0.001
H  H69  1  0.46520651  0.88803110  0.19173003  1  0.118323  -0.001539  0.116283  0.089929  -0.000698  1.028963  -0.001
H  H70  1  0.96519736  0.88803562  0.30827557  1  0.118542  -0.001549  0.11631  0.089984  -0.000701  1.02891  -0.001
H  H71  1  0.53479224  0.11197409  0.80831249  1  0.118643  0.00151  0.116256  0.089708  0.00073  1.029275  0.001
C  C72  1  0.20805006  0.45447247  0.99978780  1  0.00027  0.000493  0.013028  0.175805  0.000342  3.939585  0.0
C  C73  1  0.29195069  0.54552981  0.49979187  1  0.000442  0.000502  0.013017  0.17582  0.000344  3.939731  0.0
C  C74  1  0.79194912  0.54553431  0.00020473  1  -0.000255  -0.000493  0.013051  0.175927  -0.000326  3.939603  0.0
C  C75  1  0.70805420  0.45446907  0.50020205  1  0.000132  0.000506  0.013029  0.17573  0.000348  3.939671  0.0
C  C76  1  0.25168012  0.27308582  0.01242716  1  -0.006022  0.000232  -0.157639  -0.1148  0.000151  3.929442  0.0
C  C77  1  0.24830664  0.72690857  0.51244917  1  -0.006198  0.000254  -0.157793  -0.115032  0.00019  3.929799  0.0
C  C78  1  0.74830764  0.72691380  0.98754941  1  -0.006134  0.000235  -0.157773  -0.114992  0.000197  3.929685  0.0
C  C79  1  0.75168504  0.27308235  0.48756836  1  -0.006042  -0.000219  -0.157653  -0.114995  -0.000154  3.929519  0.0
C  C80  1  0.17525184  0.33760234  0.97956839  1  0.00986  -4.2e-05  -0.158211  -0.207521  -1.9e-05  3.951785  0.0
C  C81  1  0.32474244  0.66239923  0.47957964  1  0.009276  3.2e-05  -0.158329  -0.207761  2.8e-05  3.951899  0.0
C  C82  1  0.82474161  0.66240363  0.02041652  1  0.009545  1.9e-05  -0.158444  -0.207997  1.2e-05  3.952001  0.0
C  C83  1  0.67525793  0.33760043  0.52042262  1  0.009369  5.3e-05  -0.158255  -0.207581  3.8e-05  3.951631  0.0
C  C84  1  0.13657270  0.51504185  0.97492798  1  -0.043521  -0.000258  -0.093545  -0.199525  -0.000194  3.967698  0.0
C  C85  1  0.36342943  0.48496531  0.47492454  1  -0.043046  -0.000252  -0.093462  -0.199207  -0.000192  3.967523  0.0
C  C86  1  0.86342700  0.48496968  0.02507011  1  -0.043052  0.000265  -0.093528  -0.199495  0.000208  3.967677  0.0
C  C87  1  0.63657510  0.51503515  0.52505967  1  -0.043587  -0.000263  -0.093488  -0.199538  -0.000199  3.967777  0.0
C  C88  1  0.32940786  0.61803900  0.05578983  1  0.494457  0.000548  0.041756  0.101341  0.000344  3.98906  0.0
C  C89  1  0.17059454  0.38195522  0.55578050  1  0.49465  0.000552  0.041664  0.101179  0.000346  3.988964  0.0
C  C90  1  0.67059129  0.38195907  0.94421798  1  0.494385  -0.00055  0.041777  0.101464  -0.000324  3.988855  0.0
C  C91  1  0.82941263  0.61804050  0.44420648  1  0.494513  0.000549  0.041769  0.101384  0.000344  3.988905  0.0
C  C92  1  0.16434195  0.62293331  0.99333344  1  0.470778  0.000536  0.035118  0.089931  0.000355  4.002615  0.0
C  C93  1  0.33565904  0.37706980  0.49331583  1  0.46999  0.000531  0.035072  0.089834  0.000352  4.00288  0.0
C  C94  1  0.83565609  0.37707505  0.00667715  1  0.470236  -0.000535  0.035044  0.089797  -0.000333  4.002905  0.0
C  C95  1  0.66434463  0.62292750  0.50665935  1  0.470476  0.000536  0.035085  0.089873  0.000356  4.002503  0.0
C  C96  1  0.30706239  0.50891645  0.04118865  1  -0.044079  -0.000253  -0.092389  -0.200216  -0.000183  3.955892  0.0
C  C97  1  0.19293992  0.49108021  0.54119072  1  -0.044142  -0.000243  -0.092325  -0.200112  -0.000178  3.955812  0.0
C  C98  1  0.69293484  0.49108319  0.95880736  1  -0.043538  0.000263  -0.092333  -0.200255  0.000201  3.955903  0.0
C  C99  1  0.80707005  0.50891710  0.45880459  1  -0.043895  -0.000256  -0.092294  -0.200079  -0.000187  3.955765  0.0
C  C100  1  0.00602588  0.11308857  0.44103116  1  1.603832  0.000877  0.19991  0.52997  -0.000607  4.244735  0.001
C  C101  1  0.49399633  0.88699723  0.94112380  1  1.605232  0.000576  0.199842  0.529556  -0.000979  4.246169  0.001
C  C102  1  0.99398187  0.88698951  0.55886350  1  1.604995  0.000868  0.200023  0.529569  -0.000627  4.245539  0.001
C  C103  1  0.50603319  0.11309992  0.05897079  1  1.602642  -0.00059  0.19999  0.529922  0.001238  4.244618  -0.001
C  C104  1  0.18779268  0.09848751  0.23076371  1  -0.094775  0.002625  -0.058378  -0.015785  0.001919  3.892836  0.001
C  C105  1  0.31221912  0.90151615  0.73083639  1  -0.093999  0.00274  -0.058295  -0.015575  0.002013  3.892462  0.002
C  C106  1  0.81222341  0.90151774  0.76916080  1  -0.093807  0.002617  -0.05833  -0.015644  0.001913  3.892587  0.001
C  C107  1  0.68778191  0.09848588  0.26924639  1  -0.094133  -0.00269  -0.058387  -0.015931  -0.001836  3.892608  -0.001
C  C108  1  0.21070884  0.15627077  0.98190193  1  -0.05728  -0.000176  -0.169983  -0.241298  -9.6e-05  3.919982  0.0
C  C109  1  0.28927030  0.84372441  0.48193064  1  -0.057791  -5e-06  -0.169882  -0.241147  4.6e-05  3.919889  0.0
C  C110  1  0.78926911  0.84373040  0.01807325  1  -0.057192  -0.000132  -0.169785  -0.240976  -9.9e-05  3.919909  0.0
C  C111  1  0.71071415  0.15626886  0.51809869  1  -0.057227  0.000302  -0.169964  -0.24117  0.000257  3.920202  0.0
C  C112  1  0.10833483  0.12800142  0.82924741  1  0.02498  -0.00397  -0.08161  -0.184937  -0.002825  3.922629  -0.003
C  C113  1  0.39165827  0.87200644  0.32928631  1  0.025338  -0.003993  -0.081289  -0.184297  -0.00284  3.922389  -0.003
C  C114  1  0.89165103  0.87200848  0.17071875  1  0.024709  -0.004059  -0.081246  -0.184314  -0.00288  3.922479  -0.003
C  C115  1  0.60833447  0.12800270  0.67075135  1  0.02508  0.00403  -0.081489  -0.184765  0.003045  3.922566  0.003
C  C116  1  0.28561580  0.10663291  0.27832208  1  0.093934  -0.00325  -0.068993  -0.118665  -0.002441  3.907192  -0.002
C  C117  1  0.21438221  0.89330078  0.77839560  1  0.093527  -0.004  -0.068672  -0.118361  -0.002941  3.90724  -0.003
C  C118  1  0.71438678  0.89330023  0.72160174  1  0.093396  -0.003873  -0.068694  -0.118485  -0.002856  3.907484  -0.003
C  C119  1  0.78560963  0.10663628  0.22168579  1  0.094021  0.003425  -0.068919  -0.118483  0.002706  3.906931  0.002
C  C120  1  0.09282977  0.10018090  0.27906501  1  -0.049434  -0.003368  -0.067325  -0.119603  -0.002419  3.900509  -0.002
C  C121  1  0.40719308  0.89988907  0.77915147  1  -0.053816  -0.004092  -0.067561  -0.120312  -0.002892  3.900178  -0.003
C  C122  1  0.90719599  0.89988535  0.72084283  1  -0.054036  -0.004059  -0.067499  -0.120136  -0.002886  3.899899  -0.003
C  C123  1  0.59282072  0.10017952  0.22094173  1  -0.04994  0.003528  -0.067298  -0.119596  0.002653  3.900192  0.002
C  C124  1  0.09811881  0.10890832  0.37552518  1  0.493058  0.000442  0.114361  0.112802  -0.000173  3.946316  0.001
C  C125  1  0.40190443  0.89114930  0.87561584  1  0.49313  0.000408  0.114776  0.113892  -0.000125  3.945032  0.001
C  C126  1  0.90190509  0.89113972  0.62438266  1  0.493103  0.000428  0.114754  0.113878  -0.000161  3.945211  0.001
C  C127  1  0.59811135  0.10891218  0.12448291  1  0.493673  -0.000446  0.114623  0.113151  0.000384  3.946311  -0.001
C  C128  1  0.30378332  0.16449525  0.82627183  1  -0.074292  -0.003979  -0.086529  -0.189863  -0.002784  3.931662  -0.003
C  C129  1  0.19620634  0.83548569  0.32629860  1  -0.074756  -0.003956  -0.086596  -0.189621  -0.002779  3.931263  -0.003
C  C130  1  0.69619748  0.83547900  0.17370405  1  -0.074659  -0.003975  -0.086535  -0.189575  -0.002794  3.93101  -0.003
C  C131  1  0.80378422  0.16449255  0.67373212  1  -0.074301  0.003978  -0.086585  -0.189924  0.002955  3.931671  0.003
C  C132  1  0.20715975  0.14786875  0.87826915  1  0.028885  0.002642  0.019285  0.188881  0.001895  3.923603  0.002
C  C133  1  0.29282714  0.85212538  0.37830061  1  0.028799  0.002739  0.019232  0.188527  0.001962  3.923818  0.002
C  C134  1  0.79281997  0.85212450  0.12170325  1  0.029417  0.002767  0.019116  0.188406  0.001962  3.923644  0.002
C  C135  1  0.70716203  0.14786790  0.62173080  1  0.02891  -0.002794  0.019351  0.188914  -0.001872  3.923448  -0.002
C  C136  1  0.28519591  0.11520941  0.37472879  1  0.409956  0.000366  0.110632  0.097948  -0.000171  3.968974  0.001
C  C137  1  0.21481003  0.88473650  0.87479541  1  0.40846  0.000457  0.110813  0.098156  -8.9e-05  3.969188  0.001
C  C138  1  0.71481257  0.88473088  0.62520335  1  0.408511  0.000331  0.1108  0.098223  -0.00018  3.969299  0.001
C  C139  1  0.78518845  0.11521326  0.12528113  1  0.409865  -0.000447  0.110535  0.097696  0.000388  3.969062  -0.001
C  C140  1  0.38140500  0.12638592  0.43976535  1  1.593428  0.00093  0.199398  0.520125  -0.000721  4.262702  0.001
C  C141  1  0.11858671  0.87352002  0.93983560  1  1.594269  0.000941  0.199359  0.520334  -0.000733  4.26204  0.001
C  C142  1  0.61859409  0.87351158  0.56016054  1  1.594097  0.000938  0.199387  0.520237  -0.000741  4.262035  0.001
C  C143  1  0.88138648  0.12638927  0.06023816  1  1.594763  -0.00093  0.199617  0.520425  0.001017  4.261964  -0.001
C  C144  1  0.29872444  0.16180851  0.73007961  1  0.426175  0.000744  0.039122  0.083926  0.000126  3.956353  0.0
C  C145  1  0.20127682  0.83819116  0.23010776  1  0.426798  0.000786  0.039218  0.083829  0.000156  3.956006  0.001
C  C146  1  0.70126623  0.83818161  0.26989626  1  0.426655  0.000786  0.039307  0.083872  0.000149  3.956464  0.001
C  C147  1  0.79871923  0.16180135  0.76992435  1  0.426357  -0.000837  0.039197  0.083992  -2e-06  3.956192  -0.001
C  C148  1  0.10936495  0.12680038  0.73285734  1  0.362636  0.000649  0.042366  0.085674  6e-05  3.950717  0.0
C  C149  1  0.39063510  0.87320640  0.23289971  1  0.363174  0.000701  0.042016  0.085089  0.00012  3.950626  0.0
C  C150  1  0.89062578  0.87320716  0.26710327  1  0.362798  0.000658  0.042069  0.085135  6.3e-05  3.950648  0.0
C  C151  1  0.60936250  0.12680037  0.76714073  1  0.362845  -0.000691  0.042234  0.085539  6.7e-05  3.950658  0.0
N  N152  1  0.25947467  0.67472965  0.03323757  1  -1.228085  -0.001227  -0.336179  -0.275253  -0.001025  3.525439  -0.002
N  N153  1  0.24052586  0.32526626  0.53321586  1  -1.227637  -0.001224  -0.336233  -0.275233  -0.001032  3.52563  -0.002
N  N154  1  0.74052299  0.32527158  0.96677996  1  -1.227695  0.00123  -0.336232  -0.275298  0.00116  3.525519  0.002
N  N155  1  0.75947693  0.67472786  0.46675932  1  -1.227881  -0.001248  -0.336188  -0.27522  -0.001045  3.525291  -0.003
N  N156  1  0.20293355  0.14352026  0.68389650  1  -1.241474  -0.056266  -0.36712  -0.234037  -0.038793  3.679718  -0.048
N  N157  1  0.29707320  0.85649630  0.18393557  1  -1.241358  -0.056667  -0.367183  -0.234014  -0.039052  3.680064  -0.048
N  N158  1  0.79706142  0.85649126  0.31606758  1  -1.24118  -0.056918  -0.3674  -0.234281  -0.039242  3.680519  -0.048
N  N159  1  0.70292764  0.14351366  0.81610625  1  -1.241458  0.056298  -0.367089  -0.233991  0.040967  3.679424  0.048
N  N160  1  0.19276325  0.11586540  0.41919527  1  -1.218867  -0.093996  -0.36407  -0.250621  -0.063962  3.743734  -0.08
N  N161  1  0.30724951  0.88414287  0.91927288  1  -1.220641  -0.095094  -0.364926  -0.251884  -0.064682  3.744828  -0.081
N  N162  1  0.80724930  0.88413271  0.58072438  1  -1.220515  -0.094944  -0.364918  -0.251912  -0.064587  3.744904  -0.081
N  N163  1  0.69275414  0.11586868  0.08081199  1  -1.219157  0.09423  -0.364328  -0.250938  0.067714  3.74392  0.08
O  O164  1  0.91223560  0.10218659  0.40981255  1  -1.146562  -0.028002  -0.298466  -0.510736  -0.018193  2.167918  -0.024
O  O165  1  0.58780013  0.89798589  0.90991608  1  -1.147719  -0.028989  -0.298933  -0.511262  -0.018827  2.168658  -0.024
O  O166  1  0.08782091  0.89798588  0.59008418  1  -1.147295  -0.028818  -0.299056  -0.51137  -0.018718  2.167313  -0.024
O  O167  1  0.41221853  0.10220071  0.09019656  1  -1.145775  0.028256  -0.298686  -0.510956  0.019405  2.167245  0.023
O  O168  1  0.47294375  0.12750970  0.40828204  1  -1.147954  -0.027992  -0.300858  -0.496874  -0.018171  2.129989  -0.023
O  O169  1  0.02703809  0.87229421  0.90834894  1  -1.14877  -0.028759  -0.300855  -0.496956  -0.018661  2.129597  -0.024
O  O170  1  0.52703184  0.87228794  0.59165843  1  -1.14864  -0.028809  -0.300968  -0.497031  -0.018693  2.12908  -0.024
O  O171  1  0.97294172  0.12752166  0.09173107  1  -1.148887  0.028015  -0.300909  -0.496972  0.019228  2.12908  0.023
O  O172  1  0.35905057  0.13614577  0.52700916  1  -1.107761  -0.112357  -0.330027  -0.548153  -0.074096  2.254643  -0.102
O  O173  1  0.14098674  0.86383207  0.02709145  1  -1.107877  -0.113599  -0.330341  -0.548583  -0.07491  2.254288  -0.103
O  O174  1  0.64098360  0.86382786  0.47291187  1  -1.10781  -0.113561  -0.330281  -0.548493  -0.074884  2.254561  -0.103
O  O175  1  0.85903452  0.13613756  0.97299689  1  -1.107801  0.112348  -0.330118  -0.548175  0.07833  2.254743  0.102
O  O176  1  0.03438821  0.12846434  0.52775496  1  -1.115019  -0.108177  -0.328533  -0.546826  -0.071381  2.262851  -0.098
O  O177  1  0.46560534  0.87155771  0.02783890  1  -1.116519  -0.109649  -0.328449  -0.546525  -0.072368  2.263275  -0.1
O  O178  1  0.96560894  0.87155510  0.47215774  1  -1.116788  -0.109274  -0.328466  -0.5465  -0.072102  2.263782  -0.099
O  O179  1  0.53438746  0.12846885  0.97225361  1  -1.114955  0.108485  -0.328451  -0.546654  0.075684  2.26337  0.099
