# generated using pymatgen
data_HgH5C4N3Cl2
_symmetry_space_group_name_H-M   'P 1'
_cell_length_a   3.84829416
_cell_length_b   7.00626338
_cell_length_c   13.89547887
_cell_angle_alpha   89.99794872
_cell_angle_beta   90.00099492
_cell_angle_gamma   99.07453871
_symmetry_Int_Tables_number   1
_chemical_formula_structural   HgH5C4N3Cl2
_chemical_formula_sum   'Hg2 H10 C8 N6 Cl4'
_cell_volume   369.96300855
_cell_formula_units_Z   2
loop_
 _symmetry_equiv_pos_site_id
 _symmetry_equiv_pos_as_xyz
  1  'x, y, z'
loop_
 _atom_site_type_symbol
 _atom_site_label
 _atom_site_symmetry_multiplicity
 _atom_site_fract_x
 _atom_site_fract_y
 _atom_site_fract_z
 _atom_site_occupancy
 _atom_site_hle17_bader_spin_density
 _atom_site_hle17_ddec_charge
 _atom_site_hle17_ddec_spin_density
 _atom_site_hle17_ddec_sum_bond_order
 _atom_site_hle17_magmom
 _atom_site_hse06_10hf_bader_spin_density
 _atom_site_hse06_10hf_ddec_charge
 _atom_site_hse06_10hf_ddec_spin_density
 _atom_site_hse06_10hf_ddec_sum_bond_order
 _atom_site_hse06_10hf_magmom
 _atom_site_hse06_bader_spin_density
 _atom_site_hse06_ddec_charge
 _atom_site_hse06_ddec_spin_density
 _atom_site_hse06_ddec_sum_bond_order
 _atom_site_hse06_magmom
 _atom_site_pbe_bader_spin_density
 _atom_site_pbe_cm5_charge
 _atom_site_pbe_ddec_charge
 _atom_site_pbe_ddec_spin_density
 _atom_site_pbe_ddec_sum_bond_order
 _atom_site_pbe_magmom
Hg  Hg0  1  0.99999625  0.00000437  0.50000108  1  0  0.745018  0  2.049833  0  0  0.599324  0  2.522851  0  0  0.653332  0  2.490516  0  0  0.497642  0.562136  0  2.544548  0
Hg  Hg1  1  0.00000899  0.99999832  0.00000227  1  0  0.744851  0  2.04998  0  0  0.599157  0  2.523039  0  0  0.653168  0  2.4907  0  0  0.497582  0.561974  0  2.544726  0
H  H2  1  0.71161174  0.13018091  0.31299373  1  0  0.31807  0  0.949391  0  0  0.299296  0  1.019702  0  0  0.30653  0  1.013778  0  0  0.273404  0.294157  0  1.02395  0
H  H3  1  0.28841404  0.86980997  0.81298804  1  0  0.318115  0  0.94934  0  0  0.299311  0  1.01967  0  0  0.306545  0  1.013747  0  0  0.273386  0.294171  0  1.023921  0
H  H4  1  0.28842552  0.86981858  0.68699958  1  0  0.318236  0  0.949145  0  0  0.29936  0  1.019582  0  0  0.306595  0  1.013658  0  0  0.273441  0.29422  0  1.023833  0
H  H5  1  0.71160540  0.13018068  0.18700671  1  0  0.318093  0  0.949353  0  0  0.299296  0  1.019696  0  0  0.30653  0  1.013776  0  0  0.273394  0.294157  0  1.023945  0
H  H6  1  0.20317681  0.41273176  0.25001038  1  0  0.118842  0  0.972564  0  0  0.124012  0  1.040164  0  0  0.127783  0  1.040232  0  0  0.096572  0.121216  0  1.040591  0
H  H7  1  0.79679597  0.58728001  0.74999948  1  0  0.118774  0  0.972577  0  0  0.12394  0  1.040209  0  0  0.1277  0  1.040289  0  0  0.096566  0.121147  0  1.040632  0
H  H8  1  0.12194777  0.59050305  0.40517987  1  0  0.076456  0  0.956605  0  0  0.08191  0  1.029882  0  0  0.084019  0  1.026163  0  0  0.099024  0.080302  0  1.032648  0
H  H9  1  0.87805853  0.40946135  0.90517122  1  0  0.076418  0  0.956682  0  0  0.081914  0  1.029885  0  0  0.08394  0  1.026247  0  0  0.099004  0.080301  0  1.032664  0
H  H10  1  0.87809199  0.40951664  0.59482352  1  0  0.07637  0  0.956764  0  0  0.08189  0  1.029967  0  0  0.083973  0  1.026273  0  0  0.099  0.080281  0  1.032739  0
H  H11  1  0.12190113  0.59049839  0.09483216  1  0  0.076441  0  0.95661  0  0  0.081926  0  1.029832  0  0  0.083949  0  1.026198  0  0  0.099026  0.080328  0  1.032596  0
C  C12  1  0.91444123  0.90765492  0.25000613  1  0  0.632855  0  3.816078  0  0  0.588152  0  4.084416  0  0  0.615985  0  4.092936  0  0  0.340993  0.569316  0  4.078149  0
C  C13  1  0.08554318  0.09234112  0.75000014  1  0  0.632939  0  3.815735  0  0  0.588176  0  4.084214  0  0  0.616077  0  4.092641  0  0  0.341042  0.56929  0  4.078027  0
C  C14  1  0.12344966  0.55476512  0.25000743  1  0  -0.218813  0  3.721892  0  0  -0.230032  0  3.981071  0  0  -0.245338  0  4.002207  0  0  -0.113293  -0.220319  0  3.967202  0
C  C15  1  0.87656555  0.44524998  0.75000027  1  0  -0.218608  0  3.721747  0  0  -0.229846  0  3.980908  0  0  -0.245142  0  4.002048  0  0  -0.113227  -0.220131  0  3.967031  0
C  C16  1  0.07486963  0.65188014  0.33512763  1  0  0.20801  0  3.714644  0  0  0.168625  0  3.975594  0  0  0.184463  0  3.989861  0  0  0.055906  0.15845  0  3.965513  0
C  C17  1  0.92516380  0.34810504  0.83511027  1  0  0.207855  0  3.715243  0  0  0.16853  0  3.976162  0  0  0.184429  0  3.990457  0  0  0.055978  0.15836  0  3.966079  0
C  C18  1  0.92512436  0.34813330  0.66487360  1  0  0.207937  0  3.714686  0  0  0.168519  0  3.975669  0  0  0.184382  0  3.989944  0  0  0.055904  0.158346  0  3.965591  0
C  C19  1  0.07484370  0.65188981  0.16488808  1  0  0.20795  0  3.715127  0  0  0.168568  0  3.976118  0  0  0.184478  0  3.990408  0  0  0.055974  0.158378  0  3.966034  0
N  N20  1  0.79411571  0.07678320  0.25000416  1  0  -0.683723  0  3.14041  0  0  -0.64591  0  3.371123  0  0  -0.668525  0  3.36798  0  0  -0.578412  -0.629967  0  3.373125  0
N  N21  1  0.20588695  0.92321304  0.74998772  1  0  -0.683954  0  3.140228  0  0  -0.645971  0  3.371094  0  0  -0.668608  0  3.367918  0  0  -0.578416  -0.630011  0  3.373117  0
N  N22  1  0.97457224  0.82627930  0.33606668  1  0  -0.457051  0  3.114305  0  0  -0.384381  0  3.377974  0  0  -0.413522  0  3.394895  0  0  -0.323125  -0.364537  0  3.365799  0
N  N23  1  0.02539415  0.17371806  0.83605457  1  0  -0.456762  0  3.114461  0  0  -0.384193  0  3.378269  0  0  -0.413344  0  3.395134  0  0  -0.323132  -0.36434  0  3.366112  0
N  N24  1  0.02541988  0.17373700  0.66392664  1  0  -0.456963  0  3.113647  0  0  -0.384325  0  3.377433  0  0  -0.413491  0  3.394327  0  0  -0.323136  -0.364472  0  3.365282  0
N  N25  1  0.97455794  0.82626322  0.16394235  1  0  -0.456806  0  3.114242  0  0  -0.384166  0  3.377941  0  0  -0.413303  0  3.394831  0  0  -0.323077  -0.364324  0  3.365768  0
Cl  Cl26  1  0.50584458  0.74847852  0.55708345  1  0  -0.442685  0  1.075143  0  0  -0.383277  0  1.364019  0  0  -0.403162  0  1.346898  0  0  -0.227009  -0.369614  0  1.376002  0
Cl  Cl27  1  0.49415191  0.25151743  0.05707430  1  0  -0.442609  0  1.075199  0  0  -0.383244  0  1.364147  0  0  -0.403121  0  1.346998  0  0  -0.226985  -0.369581  0  1.376132  0
Cl  Cl28  1  0.49416959  0.25152216  0.44291778  1  0  -0.44268  0  1.075125  0  0  -0.383324  0  1.364036  0  0  -0.403205  0  1.346918  0  0  -0.227028  -0.369659  0  1.376018  0
Cl  Cl29  1  0.50584069  0.74848014  0.94292261  1  0  -0.442579  0  1.075107  0  0  -0.383237  0  1.364052  0  0  -0.403116  0  1.346906  0  0  -0.226999  -0.369574  0  1.376036  0
