# generated using pymatgen
data_ZnH3C5BrN4
_symmetry_space_group_name_H-M   'P 1'
_cell_length_a   10.17431042
_cell_length_b   13.79355583
_cell_length_c   14.10309159
_cell_angle_alpha   91.42778645
_cell_angle_beta   90.00014823
_cell_angle_gamma   89.99986673
_symmetry_Int_Tables_number   1
_chemical_formula_structural   ZnH3C5BrN4
_chemical_formula_sum   'Zn8 H24 C40 Br8 N32'
_cell_volume   1978.61222474
_cell_formula_units_Z   8
loop_
 _symmetry_equiv_pos_site_id
 _symmetry_equiv_pos_as_xyz
  1  'x, y, z'
loop_
 _atom_site_type_symbol
 _atom_site_label
 _atom_site_symmetry_multiplicity
 _atom_site_fract_x
 _atom_site_fract_y
 _atom_site_fract_z
 _atom_site_occupancy
 _atom_site_pbe_bader_charge
 _atom_site_pbe_bader_spin_density
 _atom_site_pbe_cm5_charge
 _atom_site_pbe_ddec_charge
 _atom_site_pbe_ddec_spin_density
 _atom_site_pbe_ddec_sum_bond_order
 _atom_site_pbe_magmom
Zn  Zn0  1  0.91548126  0.34057622  0.32488308  1  1.11632  0  0.614103  0.627676  0  2.587881  0
Zn  Zn1  1  0.41548080  0.15942265  0.17511517  1  1.116334  0  0.614127  0.627662  0  2.587899  0
Zn  Zn2  1  0.08451893  0.65942363  0.67511901  1  1.116474  0  0.614099  0.62763  0  2.587781  0
Zn  Zn3  1  0.58451840  0.84057720  0.82488409  1  1.116351  0  0.614126  0.627625  0  2.587802  0
Zn  Zn4  1  0.49573551  0.31012127  0.65302727  1  1.116944  0  0.615534  0.625112  0  2.593663  0
Zn  Zn5  1  0.99573750  0.18987696  0.84697085  1  1.116953  0  0.615528  0.625021  0  2.59363  0
Zn  Zn6  1  0.50426762  0.68988076  0.34697276  1  1.117065  0  0.615537  0.625084  0  2.593605  0
Zn  Zn7  1  0.00426662  0.81012144  0.15302837  1  1.116955  0  0.615536  0.625118  0  2.5936  0
H  H8  1  0.10320546  0.26572209  0.47133155  1  0.129772  0  0.119645  0.072153  0  1.006385  0
H  H9  1  0.60320420  0.23428165  0.02867049  1  0.129699  0  0.119699  0.072156  0  1.006397  0
H  H10  1  0.89679669  0.73427921  0.52866632  1  0.129733  0  0.119654  0.072186  0  1.006396  0
H  H11  1  0.39679795  0.76571965  0.97133022  1  0.129501  0  0.119664  0.072166  0  1.006383  0
H  H12  1  0.69560007  0.24594911  0.82004640  1  0.215005  0  0.124705  0.080303  0  1.077884  0
H  H13  1  0.19560622  0.25405179  0.67995335  1  0.214589  0  0.124652  0.080221  0  1.077946  0
H  H14  1  0.30439520  0.75405437  0.17995366  1  0.215027  0  0.12464  0.080231  0  1.07797  0
H  H15  1  0.80439397  0.74594733  0.32004660  1  0.214662  0  0.12466  0.080245  0  1.077948  0
H  H16  1  0.69797394  0.31915862  0.46943905  1  0.1359  0  0.113977  0.094073  0  1.034204  0
H  H17  1  0.19797093  0.18084133  0.03055882  1  0.135879  0  0.113958  0.094073  0  1.03424  0
H  H18  1  0.30202920  0.68084267  0.53056308  1  0.135832  0  0.113983  0.094085  0  1.034211  0
H  H19  1  0.80203024  0.81915634  0.96943755  1  0.135836  0  0.114001  0.09409  0  1.034207  0
H  H20  1  0.30826725  0.53540141  0.28458213  1  0.123442  0  0.120251  0.072183  0  1.01378  0
H  H21  1  0.80826692  0.96460173  0.21541675  1  0.12348  0  0.120234  0.072154  0  1.01381  0
H  H22  1  0.69173392  0.46460279  0.71541156  1  0.123418  0  0.12023  0.072128  0  1.013881  0
H  H23  1  0.19173228  0.03539522  0.78458102  1  0.123537  0  0.120238  0.072144  0  1.013761  0
H  H24  1  0.71524862  0.17939742  0.24082557  1  0.217142  0  0.125369  0.082614  0  1.069616  0
H  H25  1  0.21524993  0.32060468  0.25917026  1  0.217047  0  0.125372  0.082622  0  1.0696  0
H  H26  1  0.28474861  0.82060241  0.75918078  1  0.217105  0  0.125342  0.082528  0  1.069719  0
H  H27  1  0.78474337  0.67939734  0.74082622  1  0.217279  0  0.125342  0.082547  0  1.069681  0
H  H28  1  0.70991424  0.53435503  0.34945096  1  0.142923  0  0.115664  0.100214  0  1.015342  0
H  H29  1  0.20991274  0.96564610  0.15054415  1  0.142922  0  0.115669  0.100211  0  1.01531  0
H  H30  1  0.29008398  0.46564408  0.65055254  1  0.143154  0  0.115667  0.100183  0  1.01532  0
H  H31  1  0.79008745  0.03435737  0.84945308  1  0.142905  0  0.115655  0.1002  0  1.015363  0
C  C32  1  0.01114818  0.26735669  0.51116074  1  1.058803  0  0.17138  0.224167  0  3.972811  0
C  C33  1  0.51114760  0.23264959  0.98884306  1  1.058823  0  0.171433  0.224309  0  3.97283  0
C  C34  1  0.98885397  0.73264606  0.48884072  1  1.05886  0  0.171357  0.224103  0  3.972807  0
C  C35  1  0.48885259  0.76735315  0.01115911  1  1.059065  0  0.171359  0.224164  0  3.972719  0
C  C36  1  0.90233613  0.24959958  0.64784437  1  1.065092  0  0.226535  0.311523  0  4.054531  0
C  C37  1  0.40233406  0.25040242  0.85215934  1  1.064711  0  0.226515  0.311585  0  4.054602  0
C  C38  1  0.09766799  0.75040534  0.35215856  1  1.065139  0  0.226466  0.311475  0  4.054607  0
C  C39  1  0.59766810  0.74959525  0.14784129  1  1.065161  0  0.226497  0.311564  0  4.054516  0
C  C40  1  0.74715725  0.25056103  0.75246705  1  0.962682  0  0.162126  0.219313  0  3.901221  0
C  C41  1  0.24716266  0.24944195  0.74753143  1  0.963147  0  0.162145  0.219395  0  3.901094  0
C  C42  1  0.25284294  0.74944099  0.24753368  1  0.96252  0  0.162159  0.219312  0  3.90137  0
C  C43  1  0.75284145  0.75056152  0.25246650  1  0.963027  0  0.162151  0.219393  0  3.901232  0
C  C44  1  0.78206741  0.27582287  0.60415763  1  0.345356  0  0.092656  0.068334  0  4.059427  0
C  C45  1  0.28206558  0.22417861  0.89584159  1  0.345353  0  0.092704  0.068412  0  4.059409  0
C  C46  1  0.21793572  0.72418205  0.39584531  1  0.345416  0  0.092708  0.068461  0  4.059404  0
C  C47  1  0.71793559  0.77581907  0.10415548  1  0.345459  0  0.092722  0.0684  0  4.059411  0
C  C48  1  0.78517798  0.29853538  0.50920932  1  0.564042  0  0.063505  0.06426  0  3.888913  0
C  C49  1  0.28517656  0.20146392  0.99079056  1  0.563953  0  0.063507  0.064204  0  3.888879  0
C  C50  1  0.21482515  0.70146664  0.49079283  1  0.564273  0  0.063458  0.064088  0  3.889003  0
C  C51  1  0.71482559  0.79853593  0.00920799  1  0.56397  0  0.063429  0.064166  0  3.888953  0
C  C52  1  0.39993642  0.49432254  0.28536040  1  1.05092  0  0.170343  0.223529  0  3.974186  0
C  C53  1  0.89993852  0.00567926  0.21463719  1  1.050925  0  0.170311  0.223561  0  3.974221  0
C  C54  1  0.60006474  0.50568167  0.71463259  1  1.050981  0  0.170388  0.223625  0  3.974458  0
C  C55  1  0.10006069  0.99431914  0.78536203  1  1.050956  0  0.170331  0.223588  0  3.974187  0
C  C56  1  0.50929634  0.35544813  0.25874521  1  1.013504  0  0.226034  0.306174  0  4.068567  0
C  C57  1  0.00929715  0.14455142  0.24125442  1  1.013473  0  0.225995  0.306082  0  4.06867  0
C  C58  1  0.49069991  0.64455099  0.74125828  1  1.013657  0  0.226079  0.306191  0  4.068592  0
C  C59  1  0.99070107  0.85544843  0.75874271  1  1.013666  0  0.226031  0.306059  0  4.068665  0
C  C60  1  0.66379444  0.24816913  0.25187952  1  0.965405  0  0.164266  0.224311  0  3.892698  0
C  C61  1  0.16379592  0.25183234  0.24811833  1  0.965485  0  0.16425  0.224336  0  3.892678  0
C  C62  1  0.33620280  0.75183144  0.74812401  1  0.965372  0  0.164227  0.224427  0  3.892762  0
C  C63  1  0.83620230  0.74816751  0.75187951  1  0.965174  0  0.164254  0.224385  0  3.892752  0
C  C64  1  0.62869705  0.39829203  0.29160605  1  0.434621  0  0.092156  0.065067  0  4.056204  0
C  C65  1  0.12869788  0.10170950  0.20839244  1  0.434601  0  0.0921  0.064982  0  4.056331  0
C  C66  1  0.37130018  0.60170854  0.70839748  1  0.434514  0  0.092124  0.064974  0  4.056241  0
C  C67  1  0.87130034  0.89829181  0.79160331  1  0.434802  0  0.092122  0.064996  0  4.056196  0
C  C68  1  0.62458464  0.49449954  0.32215706  1  0.502143  0  0.061908  0.057382  0  3.891002  0
C  C69  1  0.12458468  0.00550344  0.17783934  1  0.502372  0  0.061941  0.057521  0  3.890969  0
C  C70  1  0.37541358  0.50550248  0.67784439  1  0.502145  0  0.061938  0.05752  0  3.891024  0
C  C71  1  0.87541354  0.99449786  0.82215854  1  0.502166  0  0.062  0.057522  0  3.890987  0
Br  Br72  1  0.00243042  0.49850010  0.31838022  1  -0.613536  0  -0.333112  -0.496072  0  1.115418  0
Br  Br73  1  0.50244125  0.00150236  0.18161594  1  -0.613574  0  -0.333111  -0.496044  0  1.115407  0
Br  Br74  1  0.99755502  0.50149830  0.68161617  1  -0.614227  0  -0.333119  -0.496068  0  1.115327  0
Br  Br75  1  0.49755107  0.99850401  0.81838420  1  -0.61418  0  -0.333118  -0.496049  0  1.11529  0
Br  Br76  1  0.40783055  0.28215558  0.50004944  1  -0.613475  0  -0.328884  -0.488974  0  1.096425  0
Br  Br77  1  0.90784971  0.21779781  0.99996226  1  -0.613512  0  -0.328863  -0.488936  0  1.096432  0
Br  Br78  1  0.59218045  0.71782686  0.49995008  1  -0.613582  0  -0.328881  -0.488966  0  1.096416  0
Br  Br79  1  0.09217210  0.78215271  0.00004922  1  -0.613459  0  -0.328883  -0.488981  0  1.096389  0
N  N80  1  0.90177844  0.29476454  0.46373705  1  -1.250595  0  -0.333668  -0.264483  0  3.568504  0
N  N81  1  0.40177636  0.20524160  0.03626561  1  -1.250378  0  -0.333717  -0.264463  0  3.568502  0
N  N82  1  0.09822371  0.70523966  0.53626374  1  -1.250852  0  -0.333651  -0.264352  0  3.568499  0
N  N83  1  0.59822284  0.79476187  0.96373728  1  -1.250473  0  -0.333635  -0.26438  0  3.568443  0
N  N84  1  0.01700824  0.24323903  0.60175303  1  -1.231585  0  -0.304174  -0.322155  0  3.295771  0
N  N85  1  0.51700332  0.25676651  0.89825005  1  -1.231182  0  -0.304222  -0.322337  0  3.295865  0
N  N86  1  0.98299588  0.75676589  0.39824707  1  -1.231578  0  -0.304135  -0.322164  0  3.295722  0
N  N87  1  0.48299391  0.74323695  0.10175355  1  -1.231618  0  -0.304193  -0.322258  0  3.295708  0
N  N88  1  0.87767715  0.23430053  0.74190106  1  -1.232819  0  -0.35959  -0.357351  0  3.476665  0
N  N89  1  0.37768059  0.26570369  0.75809983  1  -1.232875  0  -0.359585  -0.35739  0  3.476724  0
N  N90  1  0.12232500  0.76570367  0.25809973  1  -1.232815  0  -0.359553  -0.357326  0  3.476739  0
N  N91  1  0.62232352  0.73429761  0.24189947  1  -1.232817  0  -0.359555  -0.35734  0  3.476616  0
N  N92  1  0.68467322  0.27504684  0.67225910  1  -1.26452  0  -0.360761  -0.320091  0  3.526919  0
N  N93  1  0.18467409  0.22495698  0.82773787  1  -1.264517  0  -0.360773  -0.320138  0  3.526695  0
N  N94  1  0.31532795  0.72495663  0.32774167  1  -1.264454  0  -0.360766  -0.320093  0  3.526949  0
N  N95  1  0.81532708  0.77504577  0.17225933  1  -1.264591  0  -0.360766  -0.320162  0  3.526944  0
N  N96  1  0.50830248  0.54155716  0.31800587  1  -1.246769  0  -0.336366  -0.268316  0  3.574531  0
N  N97  1  0.00830504  0.95844430  0.18199099  1  -1.247109  0  -0.33636  -0.268423  0  3.574487  0
N  N98  1  0.49169575  0.45844559  0.68199134  1  -1.247046  0  -0.336388  -0.268461  0  3.574667  0
N  N99  1  0.99169417  0.04155482  0.81800683  1  -1.247083  0  -0.33641  -0.268427  0  3.574531  0
N  N100  1  0.39468309  0.40245841  0.25477931  1  -1.211544  0  -0.303975  -0.320837  0  3.296054  0
N  N101  1  0.89468500  0.09754122  0.24522034  1  -1.211508  0  -0.303922  -0.320759  0  3.296035  0
N  N102  1  0.60531415  0.59754362  0.74521788  1  -1.2117  0  -0.304043  -0.320823  0  3.296204  0
N  N103  1  0.10531420  0.90245645  0.75477957  1  -1.211745  0  -0.304024  -0.320799  0  3.2961  0
N  N104  1  0.53419543  0.26054483  0.23398567  1  -1.251662  0  -0.359711  -0.358742  0  3.492306  0
N  N105  1  0.03419407  0.23945613  0.26601334  1  -1.251634  0  -0.359699  -0.358687  0  3.492181  0
N  N106  1  0.46580181  0.73945501  0.76601856  1  -1.251673  0  -0.359646  -0.358724  0  3.492286  0
N  N107  1  0.96580317  0.76054445  0.73398381  1  -1.25164  0  -0.3597  -0.358673  0  3.492269  0
N  N108  1  0.72562067  0.32813077  0.28592701  1  -1.243164  0  -0.35994  -0.321354  0  3.512483  0
N  N109  1  0.22562130  0.17187276  0.21406887  1  -1.243188  0  -0.359872  -0.321347  0  3.512589  0
N  N110  1  0.27437558  0.67187124  0.71407585  1  -1.243099  0  -0.359874  -0.321288  0  3.512437  0
N  N111  1  0.77437888  0.82812708  0.78592968  1  -1.243136  0  -0.359827  -0.321267  0  3.512541  0
