# generated using pymatgen
data_Zn2H5C43N2(O2F5)4
_symmetry_space_group_name_H-M   'P 1'
_cell_length_a   16.68963803
_cell_length_b   17.88421351
_cell_length_c   30.97544325
_cell_angle_alpha   90.31273510
_cell_angle_beta   89.26244180
_cell_angle_gamma   89.95972748
_symmetry_Int_Tables_number   1
_chemical_formula_structural   Zn2H5C43N2(O2F5)4
_chemical_formula_sum   'Zn4 H10 C86 N4 O16 F40'
_cell_volume   9244.67631334
_cell_formula_units_Z   2
loop_
 _symmetry_equiv_pos_site_id
 _symmetry_equiv_pos_as_xyz
  1  'x, y, z'
loop_
 _atom_site_type_symbol
 _atom_site_label
 _atom_site_symmetry_multiplicity
 _atom_site_fract_x
 _atom_site_fract_y
 _atom_site_fract_z
 _atom_site_occupancy
 _atom_site_pbe_bader_charge
 _atom_site_pbe_bader_spin_density
 _atom_site_pbe_cm5_charge
 _atom_site_pbe_ddec_charge
 _atom_site_pbe_ddec_spin_density
 _atom_site_pbe_ddec_sum_bond_order
 _atom_site_pbe_magmom
Zn  Zn0  1  0.57125121  0.49883083  0.50560597  1  1.297003  0  0.674527  0.863411  0  2.369238  0
Zn  Zn1  1  0.40537182  0.49683114  0.50189319  1  1.291815  0  0.672386  0.858894  0  2.35283  0
Zn  Zn2  1  0.42902280  0.50098874  0.92434962  1  1.291921  0  0.675127  0.863469  0  2.371875  0
Zn  Zn3  1  0.59495684  0.49977990  0.92799388  1  1.291631  0  0.672284  0.859278  0  2.352015  0
H  H4  1  0.39831428  0.49570002  0.78744755  1  0.091079  0  0.101856  0.106927  0  1.028506  0
H  H5  1  0.65396878  0.50146264  0.79532520  1  0.089516  0  0.098581  0.107224  0  1.013839  0
H  H6  1  0.60162583  0.49507347  0.64249373  1  0.0876  0  0.101729  0.106767  0  1.028972  0
H  H7  1  0.34596909  0.50083002  0.63455983  1  0.101541  0  0.098373  0.10714  0  1.014513  0
H  H8  1  0.29832237  0.45052397  0.74047313  1  0.029204  0  0.093395  0.128131  0  0.992096  0
H  H9  1  0.29985333  0.54945794  0.74077326  1  0.033174  0  0.093873  0.129424  0  0.99063  0
H  H10  1  0.26195059  0.50051276  0.69527874  1  0.016559  0  0.091685  0.125991  0  0.998151  0
H  H11  1  0.70181348  0.45002247  0.68942460  1  0.037571  0  0.093435  0.127831  0  0.991986  0
H  H12  1  0.69985138  0.54895188  0.68909074  1  0.048587  0  0.093743  0.128962  0  0.990884  0
H  H13  1  0.73794172  0.50099820  0.73460786  1  0.041162  0  0.091819  0.125797  0  0.999215  0
C  C14  1  0.48924537  0.64202834  0.50067766  1  1.636451  0  0.217363  0.634085  0  4.158418  0
C  C15  1  0.48144499  0.49687075  0.58645765  1  1.539022  0  0.21686  0.602727  0  4.141259  0
C  C16  1  0.48813323  0.35377480  0.50271614  1  1.637931  0  0.217345  0.634344  0  4.15523  0
C  C17  1  0.49570724  0.50143473  0.42088460  1  1.631829  0  0.218047  0.633384  0  4.152948  0
C  C18  1  0.51056748  0.64459141  0.92855711  1  1.613895  0  0.217081  0.633348  0  4.15822  0
C  C19  1  0.51863936  0.49798789  0.84342784  1  1.571985  0  0.216749  0.602693  0  4.139063  0
C  C20  1  0.51293074  0.35643716  0.92611644  1  1.656589  0  0.21692  0.632725  0  4.156968  0
C  C21  1  0.50439790  0.50524375  0.00902785  1  1.670824  0  0.217765  0.634065  0  4.151316  0
C  C22  1  0.23581835  0.54978707  0.52206569  1  1.161052  0  0.241684  0.335647  0  4.108427  0
C  C23  1  0.15251657  0.55292141  0.52241157  1  0.640969  0  0.113768  0.100518  0  4.056274  0
C  C24  1  0.10895281  0.50162638  0.49732176  1  0.237189  0  0.011245  -0.002946  0  4.152532  0
C  C25  1  0.15378026  0.44958438  0.47274966  1  0.567791  0  0.114695  0.102155  0  4.049105  0
C  C26  1  0.23710191  0.45059488  0.47463922  1  1.237137  0  0.243747  0.339785  0  4.100946  0
C  C27  1  0.02474609  0.50197926  0.49747317  1  -0.008332  0  -0.008181  -0.025442  0  4.051121  0
C  C28  1  0.95187295  0.50207362  0.49859225  1  -0.232138  0  -0.007248  -0.023988  0  4.050323  0
C  C29  1  0.86770698  0.50105894  0.50031646  1  0.229423  0  0.011406  -0.002913  0  4.152271  0
C  C30  1  0.82419907  0.54250078  0.53150888  1  0.630516  0  0.113175  0.099738  0  4.055616  0
C  C31  1  0.74095374  0.53860312  0.53232804  1  1.182459  0  0.241744  0.33655  0  4.1078  0
C  C32  1  0.73958688  0.45741690  0.47465425  1  1.14118  0  0.24553  0.344143  0  4.095489  0
C  C33  1  0.82285910  0.45766313  0.47131478  1  0.666102  0  0.116147  0.103795  0  4.049479  0
C  C34  1  0.49380422  0.72581944  0.49645312  1  0.058163  0  -0.021099  -0.197871  0  3.963211  0
C  C35  1  0.56560799  0.76130170  0.48424725  1  0.611577  0  0.096164  0.166007  0  4.08319  0
C  C36  1  0.57152465  0.83876438  0.48210134  1  0.529941  0  0.09688  0.133958  0  4.065983  0
C  C37  1  0.50566425  0.88512196  0.49221204  1  0.170063  0  -0.010785  -0.040579  0  4.178747  0
C  C38  1  0.43332677  0.84940457  0.50368529  1  0.484424  0  0.098084  0.13634  0  4.061183  0
C  C39  1  0.42769373  0.77194060  0.50568831  1  0.615833  0  0.096734  0.166447  0  4.090013  0
C  C40  1  0.51061171  0.96361300  0.49203516  1  0.113878  0  -0.027841  -0.044668  0  4.097485  0
C  C41  1  0.51063088  0.03165773  0.49389638  1  -0.294856  0  -0.028967  -0.047426  0  4.098589  0
C  C42  1  0.50601311  0.11006879  0.49638859  1  0.197261  0  -0.009531  -0.037748  0  4.179316  0
C  C43  1  0.57296171  0.15501937  0.50538456  1  0.533296  0  0.095966  0.132076  0  4.066204  0
C  C44  1  0.56679581  0.23245509  0.50817936  1  0.588117  0  0.097852  0.170389  0  4.075984  0
C  C45  1  0.49361769  0.26971748  0.50179830  1  0.062892  0  -0.021937  -0.201404  0  3.951518  0
C  C46  1  0.42662411  0.22468625  0.49317937  1  0.601049  0  0.098024  0.168904  0  4.082323  0
C  C47  1  0.43257374  0.14722223  0.49056713  1  0.511958  0  0.09754  0.13508  0  4.06073  0
C  C48  1  0.45614562  0.49679538  0.77081756  1  0.020407  0  -0.084574  -0.140566  0  3.951675  0
C  C49  1  0.60123264  0.49968569  0.77493230  1  -0.011638  0  -0.093154  -0.168496  0  3.961247  0
C  C50  1  0.60947570  0.49882551  0.73055625  1  -0.032581  0  -0.00591  0.127016  0  3.96179  0
C  C51  1  0.53887888  0.49753584  0.70468296  1  0.004656  0  -0.005591  0.022274  0  3.968437  0
C  C52  1  0.54378038  0.49633046  0.65909703  1  -0.066751  0  -0.083432  -0.139889  0  3.95135  0
C  C53  1  0.39870775  0.49923190  0.65495823  1  -0.006721  0  -0.09295  -0.169351  0  3.961521  0
C  C54  1  0.39043872  0.49874674  0.69933776  1  0.012287  0  -0.006001  0.127524  0  3.960501  0
C  C55  1  0.46102163  0.49763652  0.72522804  1  -0.069739  0  -0.005041  0.022742  0  3.96734  0
C  C56  1  0.52483865  0.49787942  0.79531664  1  -0.080617  0  -0.020236  -0.023089  0  4.007234  0
C  C57  1  0.47513040  0.49724762  0.63457297  1  -0.020313  0  -0.020464  -0.021909  0  4.00554  0
C  C58  1  0.50273034  0.50894131  0.05758727  1  0.099293  0  -0.021491  -0.201048  0  3.958789  0
C  C59  1  0.43230490  0.49503939  0.08154309  1  0.600677  0  0.09797  0.170264  0  4.082657  0
C  C60  1  0.43125729  0.49673033  0.12642921  1  0.500696  0  0.097726  0.134297  0  4.063612  0
C  C61  1  0.50081591  0.51263543  0.14998271  1  0.1622  0  -0.010098  -0.039258  0  4.179158  0
C  C62  1  0.57120996  0.52731398  0.12599010  1  0.529883  0  0.097444  0.133864  0  4.06522  0
C  C63  1  0.57202695  0.52552184  0.08110432  1  0.555844  0  0.097858  0.169627  0  4.080415  0
C  C64  1  0.50019097  0.51312921  0.19536516  1  -0.162023  0  -0.027657  -0.044188  0  4.099087  0
C  C65  1  0.49971870  0.51253901  0.23467102  1  -0.093604  0  -0.027808  -0.045952  0  4.100489  0
C  C66  1  0.49905728  0.51081124  0.28003681  1  0.264077  0  -0.009853  -0.038868  0  4.180476  0
C  C67  1  0.42845606  0.52423735  0.30420845  1  0.580371  0  0.097402  0.133304  0  4.064721  0
C  C68  1  0.42767160  0.52151927  0.34906063  1  0.524098  0  0.097875  0.169421  0  4.081925  0
C  C69  1  0.49720635  0.50522491  0.37236079  1  0.085354  0  -0.021811  -0.200704  0  3.959742  0
C  C70  1  0.56776956  0.49233677  0.34823535  1  0.56641  0  0.097261  0.168563  0  4.084163  0
C  C71  1  0.56879798  0.49498159  0.30337939  1  0.540877  0  0.097864  0.135762  0  4.063681  0
C  C72  1  0.76457747  0.55206437  0.90732107  1  1.153569  0  0.242014  0.337135  0  4.105483  0
C  C73  1  0.84789443  0.55474502  0.90674618  1  0.652881  0  0.113541  0.100674  0  4.053049  0
C  C74  1  0.89143586  0.50381122  0.93180693  1  0.238466  0  0.011192  -0.003553  0  4.15183  0
C  C75  1  0.84660581  0.45255218  0.95655968  1  0.663281  0  0.115772  0.103342  0  4.050194  0
C  C76  1  0.76327704  0.45398882  0.95490065  1  1.129889  0  0.244138  0.340415  0  4.100783  0
C  C77  1  0.97562610  0.50374003  0.93154337  1  -0.240927  0  -0.007817  -0.024864  0  4.053408  0
C  C78  1  0.04848028  0.50343884  0.93047901  1  -0.003413  0  -0.007943  -0.024697  0  4.0536  0
C  C79  1  0.13264236  0.50225556  0.92883428  1  0.221276  0  0.012051  -0.002164  0  4.152552  0
C  C80  1  0.17615662  0.54346154  0.89783053  1  0.648647  0  0.112962  0.099777  0  4.054532  0
C  C81  1  0.25941960  0.53974417  0.89714840  1  1.172973  0  0.24151  0.335687  0  4.108257  0
C  C82  1  0.26073539  0.45913471  0.95460129  1  1.156086  0  0.245026  0.342895  0  4.096692  0
C  C83  1  0.17744620  0.45914660  0.95775656  1  0.666407  0  0.115978  0.103623  0  4.049481  0
C  C84  1  0.50580244  0.72857602  0.93139659  1  0.138337  0  -0.021244  -0.197625  0  3.963941  0
C  C85  1  0.43372280  0.76475451  0.94269132  1  0.584239  0  0.096723  0.166681  0  4.085225  0
C  C86  1  0.42741242  0.84228714  0.94322322  1  0.520337  0  0.096422  0.133146  0  4.067294  0
C  C87  1  0.49320120  0.88801669  0.93245208  1  0.115934  0  -0.010882  -0.041503  0  4.181012  0
C  C88  1  0.56580641  0.85166066  0.92189627  1  0.576793  0  0.097832  0.137012  0  4.06116  0
C  C89  1  0.57180706  0.77411524  0.92142178  1  0.546774  0  0.096976  0.166426  0  4.087193  0
C  C90  1  0.48814369  0.96647369  0.93163194  1  -0.370577  0  -0.027816  -0.044391  0  4.098977  0
C  C91  1  0.48807284  0.03446078  0.92960022  1  0.175613  0  -0.028655  -0.047163  0  4.098705  0
C  C92  1  0.49327074  0.11284536  0.92778264  1  0.214312  0  -0.010044  -0.037576  0  4.179516  0
C  C93  1  0.42701864  0.15857684  0.91872904  1  0.515853  0  0.095987  0.131322  0  4.065764  0
C  C94  1  0.43385438  0.23603086  0.91732447  1  0.584551  0  0.09777  0.171374  0  4.074541  0
C  C95  1  0.50698843  0.27243550  0.92521418  1  0.059182  0  -0.022269  -0.201553  0  3.952463  0
C  C96  1  0.57335768  0.22665078  0.93369056  1  0.541031  0  0.098368  0.170329  0  4.082735  0
C  C97  1  0.56677843  0.14918983  0.93490843  1  0.575745  0  0.097038  0.133077  0  4.063892  0
C  C98  1  0.30840175  0.49985418  0.72002443  1  -0.046981  0  -0.235237  -0.406327  0  3.993913  0
C  C99  1  0.69149923  0.49973942  0.70986006  1  -0.068299  0  -0.235156  -0.4049  0  3.994684  0
N  N100  1  0.27694098  0.49954160  0.49882380  1  -1.221019  0  -0.300677  -0.334454  0  3.486224  0
N  N101  1  0.69979333  0.49723770  0.50444878  1  -1.216605  0  -0.301321  -0.336759  0  3.48586  0
N  N102  1  0.72342779  0.50259469  0.93075943  1  -1.204723  0  -0.30107  -0.336423  0  3.485486  0
N  N103  1  0.30054647  0.49879748  0.92501988  1  -1.226584  0  -0.301113  -0.335636  0  3.486399  0
O  O104  1  0.55141987  0.61085849  0.51545474  1  -1.150602  0  -0.316522  -0.54565  0  2.332694  0
O  O105  1  0.42480329  0.61045677  0.48934397  1  -1.141536  0  -0.313991  -0.542624  0  2.295928  0
O  O106  1  0.41792212  0.51304225  0.56583764  1  -1.165137  0  -0.321898  -0.55449  0  2.353018  0
O  O107  1  0.54929019  0.48071410  0.56931959  1  -1.161683  0  -0.323361  -0.552991  0  2.320305  0
O  O108  1  0.42119881  0.38280697  0.51291952  1  -1.145181  0  -0.315367  -0.539166  0  2.295558  0
O  O109  1  0.55207046  0.38829552  0.49245554  1  -1.150153  0  -0.317829  -0.552868  0  2.365294  0
O  O110  1  0.55866587  0.52148075  0.44025283  1  -1.143599  0  -0.313486  -0.540636  0  2.312385  0
O  O111  1  0.43084721  0.47834401  0.43808489  1  -1.143628  0  -0.31516  -0.543787  0  2.346392  0
O  O112  1  0.44836022  0.61256402  0.91428163  1  -1.14248  0  -0.316145  -0.54514  0  2.338541  0
O  O113  1  0.57507527  0.61370143  0.94025198  1  -1.143513  0  -0.314087  -0.54238  0  2.292949  0
O  O114  1  0.58206876  0.51483137  0.86404307  1  -1.157899  0  -0.3223  -0.554964  0  2.35104  0
O  O115  1  0.45101244  0.48155565  0.86057942  1  -1.167506  0  -0.323495  -0.553218  0  2.320168  0
O  O116  1  0.57997808  0.38552743  0.91649185  1  -1.147574  0  -0.314502  -0.5376  0  2.295192  0
O  O117  1  0.44915555  0.39078615  0.93716003  1  -1.144186  0  -0.31771  -0.552318  0  2.36541  0
O  O118  1  0.44128078  0.52471045  0.98971717  1  -1.14375  0  -0.3136  -0.54064  0  2.310579  0
O  O119  1  0.56954864  0.48255518  0.99176378  1  -1.143178  0  -0.315094  -0.544133  0  2.345464  0
F  F120  1  0.27675024  0.59813280  0.54587934  1  -0.600001  0  -0.045431  -0.075141  0  1.407148  0
F  F121  1  0.27935175  0.40099682  0.45182163  1  -0.596377  0  -0.044775  -0.073991  0  1.398646  0
F  F122  1  0.11663322  0.39898745  0.44803585  1  -0.602068  0  -0.067441  -0.0758  0  1.369684  0
F  F123  1  0.11409932  0.60422423  0.54666905  1  -0.60415  0  -0.069799  -0.078515  0  1.371209  0
F  F124  1  0.86266918  0.58485164  0.56046725  1  -0.607998  0  -0.07106  -0.080332  0  1.369508  0
F  F125  1  0.85986829  0.41659403  0.44075434  1  -0.605817  0  -0.066675  -0.074961  0  1.371033  0
F  F126  1  0.69768104  0.41592704  0.44746050  1  -0.590933  0  -0.043839  -0.072766  0  1.419191  0
F  F127  1  0.69979624  0.57702103  0.56212846  1  -0.599928  0  -0.048958  -0.08061  0  1.381387  0
F  F128  1  0.63143464  0.72111579  0.47336960  1  -0.617384  0  -0.092883  -0.10448  0  1.369215  0
F  F129  1  0.35681521  0.74252066  0.51832847  1  -0.609012  0  -0.090586  -0.104461  0  1.386053  0
F  F130  1  0.36849453  0.89132909  0.51378016  1  -0.614958  0  -0.087873  -0.103139  0  1.358667  0
F  F131  1  0.64189649  0.87009640  0.47020462  1  -0.612015  0  -0.089865  -0.105531  0  1.353679  0
F  F132  1  0.64464363  0.12223152  0.51184709  1  -0.611094  0  -0.090295  -0.105957  0  1.355408  0
F  F133  1  0.36647598  0.10678441  0.48189268  1  -0.612104  0  -0.088095  -0.10343  0  1.358389  0
F  F134  1  0.35402683  0.25493637  0.48597749  1  -0.608117  0  -0.089524  -0.103027  0  1.392798  0
F  F135  1  0.63411223  0.27023114  0.51817060  1  -0.61149  0  -0.092824  -0.104725  0  1.378467  0
F  F136  1  0.36322283  0.47732762  0.06183963  1  -0.612408  0  -0.09034  -0.105395  0  1.399198  0
F  F137  1  0.64188671  0.54203159  0.06092526  1  -0.609024  0  -0.091786  -0.10341  0  1.372018  0
F  F138  1  0.63931127  0.54374290  0.14700347  1  -0.612377  0  -0.088158  -0.103771  0  1.357177  0
F  F139  1  0.36226763  0.48183066  0.14782079  1  -0.609485  0  -0.088217  -0.103127  0  1.355763  0
F  F140  1  0.36015504  0.54050494  0.28341681  1  -0.611244  0  -0.088644  -0.103826  0  1.356202  0
F  F141  1  0.63798043  0.48125656  0.28178674  1  -0.612615  0  -0.088069  -0.103612  0  1.356852  0
F  F142  1  0.63706091  0.47488390  0.36772604  1  -0.612189  0  -0.090198  -0.104744  0  1.399481  0
F  F143  1  0.35760220  0.53700034  0.36943078  1  -0.613807  0  -0.091628  -0.103213  0  1.373957  0
F  F144  1  0.72366771  0.60005615  0.88352728  1  -0.5919  0  -0.045426  -0.075386  0  1.407043  0
F  F145  1  0.72099012  0.40516676  0.97791867  1  -0.596811  0  -0.045145  -0.074444  0  1.39692  0
F  F146  1  0.88374084  0.40232433  0.98124407  1  -0.604311  0  -0.067784  -0.076053  0  1.370818  0
F  F147  1  0.88632922  0.60527097  0.88230489  1  -0.606839  0  -0.06997  -0.078847  0  1.369553  0
F  F148  1  0.13766847  0.58550633  0.86896922  1  -0.605594  0  -0.071023  -0.080333  0  1.369192  0
F  F149  1  0.14040052  0.41824611  0.98809354  1  -0.6036  0  -0.066634  -0.074626  0  1.371478  0
F  F150  1  0.30267966  0.41812067  0.98179482  1  -0.601241  0  -0.043812  -0.072871  0  1.41938  0
F  F151  1  0.30055217  0.57797206  0.86752791  1  -0.60619  0  -0.048691  -0.080268  0  1.382877  0
F  F152  1  0.36798823  0.72527838  0.95423112  1  -0.612512  0  -0.092872  -0.104488  0  1.370462  0
F  F153  1  0.64292015  0.74395096  0.90954135  1  -0.611865  0  -0.090455  -0.104529  0  1.385972  0
F  F154  1  0.63061699  0.89299043  0.91131648  1  -0.615138  0  -0.08767  -0.103069  0  1.359174  0
F  F155  1  0.35679395  0.87430020  0.95431836  1  -0.612528  0  -0.089692  -0.105091  0  1.353662  0
F  F156  1  0.35534963  0.12660646  0.91098088  1  -0.609978  0  -0.090369  -0.106075  0  1.354249  0
F  F157  1  0.63220353  0.10793237  0.94362558  1  -0.610983  0  -0.087113  -0.102185  0  1.360662  0
F  F158  1  0.64580943  0.25617629  0.94222068  1  -0.608698  0  -0.090182  -0.103737  0  1.388714  0
F  F159  1  0.36727260  0.27477502  0.90723787  1  -0.613652  0  -0.092777  -0.105262  0  1.376249  0
