# generated using pymatgen
data_CoH18C25N7O4
_symmetry_space_group_name_H-M   'P 1'
_cell_length_a   9.30255031
_cell_length_b   11.35657946
_cell_length_c   13.59050624
_cell_angle_alpha   67.63616457
_cell_angle_beta   71.98164394
_cell_angle_gamma   82.62112044
_symmetry_Int_Tables_number   1
_chemical_formula_structural   CoH18C25N7O4
_chemical_formula_sum   'Co2 H36 C50 N14 O8'
_cell_volume   1262.56966379
_cell_formula_units_Z   2
loop_
 _symmetry_equiv_pos_site_id
 _symmetry_equiv_pos_as_xyz
  1  'x, y, z'
loop_
 _atom_site_type_symbol
 _atom_site_label
 _atom_site_symmetry_multiplicity
 _atom_site_fract_x
 _atom_site_fract_y
 _atom_site_fract_z
 _atom_site_occupancy
 _atom_site_pbe_bader_charge
 _atom_site_pbe_bader_spin_density
 _atom_site_pbe_cm5_charge
 _atom_site_pbe_ddec_charge
 _atom_site_pbe_ddec_spin_density
 _atom_site_pbe_ddec_sum_bond_order
 _atom_site_pbe_magmom
Co  Co0  1  0.50000082  0.49999781  0.50000059  1  1.265438  2.582915  0.664615  0.790975  2.783331  2.583823  2.567
Co  Co1  1  0.00000052  0.99999794  0.99999959  1  1.136583  0.90065  0.669463  0.57611  0.975017  3.169404  0.893
H  H2  1  0.58509259  0.55763038  0.23449346  1  0.24026  0.000431  0.137427  0.119644  -0.000137  1.064092  0.0
H  H3  1  0.41490884  0.44237471  0.76550710  1  0.240223  0.000431  0.137447  0.119687  -0.000137  1.064052  0.0
H  H4  1  0.44215724  0.23019391  0.72708900  1  0.161461  0.000612  0.118029  0.118781  5.1e-05  1.039296  0.001
H  H5  1  0.55784662  0.76980362  0.27291184  1  0.161282  0.000612  0.118062  0.118878  5.1e-05  1.039224  0.001
H  H6  1  0.20151386  0.35041414  0.28873029  1  0.105774  0.000918  0.124115  0.126987  0.000361  1.009238  0.0
H  H7  1  0.79848744  0.64959293  0.71126676  1  0.10552  0.000918  0.124105  0.12697  0.000361  1.009268  0.0
H  H8  1  0.63416636  0.02080669  0.73481145  1  0.120855  0.000942  0.129198  0.132436  0.000387  0.989454  0.0
H  H9  1  0.36583634  0.97919271  0.26518981  1  0.120878  0.000942  0.12919  0.132455  0.000387  0.989442  0.0
H  H10  1  0.21087701  0.35989767  0.48904246  1  0.114988  0.000583  0.115342  0.109166  4.6e-05  1.01505  0.0
H  H11  1  0.78912907  0.64010085  0.51095685  1  0.11504  0.000583  0.115337  0.109099  4.6e-05  1.015102  0.0
H  H12  1  0.25199866  0.09085031  0.74435470  1  0.128756  0.000399  0.131836  0.092081  -6.5e-05  1.036558  0.0
H  H13  1  0.74800059  0.90914912  0.25564512  1  0.128746  0.000399  0.131841  0.092077  -6.5e-05  1.036545  0.0
H  H14  1  0.27122660  0.71482227  0.74526596  1  0.164803  0.000955  0.121067  0.128341  0.000373  1.045209  0.0
H  H15  1  0.72877951  0.28517530  0.25473364  1  0.164822  0.000955  0.12108  0.128351  0.000373  1.045193  0.0
H  H16  1  0.95119258  0.44612833  0.62701829  1  0.058053  -0.000161  0.102696  0.101882  -0.000314  1.0169  0.0
H  H17  1  0.04879776  0.55386718  0.37298543  1  0.058185  -0.000161  0.102747  0.101941  -0.000314  1.016883  0.0
H  H18  1  0.77464186  0.31820228  0.41843843  1  0.21554  0.000453  0.128431  0.10339  -0.000102  1.087032  0.0
H  H19  1  0.22536420  0.68179626  0.58156014  1  0.215489  0.000453  0.12843  0.103422  -0.000102  1.087038  0.0
H  H20  1  0.07877165  0.72367674  0.94353806  1  0.104836  0.000739  0.121172  0.11795  0.000195  0.991621  0.0
H  H21  1  0.92124017  0.27632175  0.05646366  1  0.104753  0.000738  0.121147  0.117932  0.000195  0.991582  0.0
H  H22  1  0.76685304  0.08859383  0.87939223  1  0.127625  0.000202  0.12469  0.107106  -4.6e-05  0.995525  0.0
H  H23  1  0.23313392  0.91140626  0.12061674  1  0.127633  0.000202  0.12471  0.107122  -4.6e-05  0.995563  0.0
H  H24  1  0.74852090  0.28222476  0.71128408  1  0.098231  1.5e-05  0.103279  0.109453  -4.7e-05  1.044454  0.0
H  H25  1  0.25146262  0.71777814  0.28872554  1  0.098543  1.5e-05  0.1033  0.109463  -4.7e-05  1.044398  0.0
H  H26  1  0.86275862  0.93948161  0.70033547  1  0.08417  6.6e-05  0.113889  0.123055  2.8e-05  0.98983  0.0
H  H27  1  0.13723961  0.06051215  0.29966409  1  0.083977  6.6e-05  0.113899  0.123056  2.8e-05  0.989843  0.0
H  H28  1  0.47502232  0.21826509  0.36726078  1  0.110174  -1.8e-05  0.104668  0.108797  -6.1e-05  1.051052  0.0
H  H29  1  0.52497574  0.78173717  0.63273918  1  0.110139  -1.8e-05  0.104664  0.108807  -6.1e-05  1.051086  0.0
H  H30  1  0.29145299  0.14417170  0.55275282  1  0.091523  4e-05  0.108593  0.112364  5e-06  1.01309  0.0
H  H31  1  0.70854972  0.85582677  0.44724799  1  0.091522  4e-05  0.108592  0.112349  5e-06  1.013066  0.0
H  H32  1  0.77388555  0.51931681  0.89767565  1  0.061693  3e-05  0.111612  0.120996  6e-06  0.992885  0.0
H  H33  1  0.22611008  0.48069393  0.10232449  1  0.061612  3e-05  0.111621  0.121028  6e-06  0.99288  0.0
H  H34  1  0.69190660  0.48473088  0.09784121  1  0.100874  6e-06  0.115543  0.129735  -2e-05  0.998838  0.0
H  H35  1  0.30808790  0.51527892  0.90215873  1  0.100519  6e-06  0.115501  0.129697  -2e-05  0.998858  0.0
H  H36  1  0.08146391  0.81341001  0.64184782  1  0.113191  -5e-06  0.109992  0.117969  -1e-05  1.030608  0.0
H  H37  1  0.91853542  0.18658471  0.35815120  1  0.113229  -5e-06  0.110023  0.118045  -1e-05  1.030531  0.0
C  C38  1  0.06958084  0.24037331  0.84429823  1  0.441423  -0.007703  0.099525  0.037752  -0.008331  3.932985  -0.005
C  C39  1  0.93041728  0.75962334  0.15569900  1  0.441664  -0.007703  0.099483  0.037526  -0.008331  3.93317  -0.005
C  C40  1  0.06836159  0.34957179  0.75124730  1  -0.031256  0.006863  -0.002008  -0.054492  0.003007  3.947876  0.006
C  C41  1  0.93163760  0.65042678  0.24874912  1  -0.031238  0.006863  -0.002  -0.054352  0.003007  3.947912  0.006
C  C42  1  0.18810888  0.20748235  0.90538657  1  1.587881  -0.003348  0.192314  0.510026  -0.004262  4.267362  -0.002
C  C43  1  0.81189144  0.79251345  0.09460748  1  1.587726  -0.003347  0.192222  0.509999  -0.004262  4.267635  -0.002
C  C44  1  0.87286697  0.07169271  0.53367153  1  0.241523  -0.000144  0.092972  0.160931  -0.00035  4.025537  0.0
C  C45  1  0.12713683  0.92830674  0.46632801  1  0.241495  -0.000145  0.093013  0.161099  -0.00035  4.025324  0.0
C  C46  1  0.39674527  0.95796414  0.60481872  1  0.285229  0.00091  0.091379  0.155514  0.000488  4.039217  0.001
C  C47  1  0.60325508  0.04203903  0.39518266  1  0.285218  0.00091  0.09136  0.155437  0.000488  4.039256  0.001
C  C48  1  0.48502129  0.49908717  0.27929813  1  0.927575  -0.006396  0.146464  0.101736  -0.007565  3.858845  -0.004
C  C49  1  0.51498012  0.50091793  0.72070169  1  0.927632  -0.006395  0.146366  0.101519  -0.007564  3.858967  -0.004
C  C50  1  0.53891277  0.21559282  0.66330375  1  0.424573  -0.000235  2.7e-05  -0.027712  -0.000863  3.98768  0.0
C  C51  1  0.46109107  0.78440473  0.33669635  1  0.424673  -0.000235  -7.5e-05  -0.028043  -0.000863  3.987773  0.0
C  C52  1  0.18586097  0.45244096  0.69948142  1  1.638187  -0.001192  0.202964  0.582941  -0.001946  4.262036  0.001
C  C53  1  0.81413950  0.54755469  0.30051854  1  1.638182  -0.001192  0.202933  0.582898  -0.001945  4.262056  0.001
C  C54  1  0.28163931  0.39314323  0.30814883  1  0.310573  0.002748  -0.002061  -0.118653  0.00121  3.936471  0.002
C  C55  1  0.71836098  0.60686093  0.69185079  1  0.310863  0.002748  -0.002028  -0.118695  0.00121  3.93638  0.002
C  C56  1  0.45394790  0.47870284  0.11268672  1  0.253631  0.00064  0.094521  0.162213  0.000364  4.014455  0.001
C  C57  1  0.54604890  0.52130510  0.88731253  1  0.253602  0.00064  0.094603  0.162205  0.000364  4.014219  0.001
C  C58  1  0.63504711  0.11231210  0.66893637  1  0.232628  0.003017  -0.000205  -0.113885  0.001526  3.9263  0.002
C  C59  1  0.36495445  0.88768453  0.33106232  1  0.232654  0.003017  -9.9e-05  -0.113717  0.001526  3.926143  0.002
C  C60  1  0.28791218  0.39803624  0.40631578  1  0.38238  -0.001297  -0.00048  -0.026249  -0.001815  4.007193  -0.001
C  C61  1  0.71208810  0.60196608  0.59368220  1  0.382506  -0.001297  -0.000428  -0.026113  -0.001815  4.00708  -0.001
C  C62  1  0.22767416  0.99056131  0.77353461  1  0.967401  -0.003398  0.137668  0.091223  -0.004266  3.90428  -0.002
C  C63  1  0.77232737  0.00943812  0.22646544  1  0.967412  -0.003398  0.137678  0.091254  -0.004266  3.904224  -0.002
C  C64  1  0.24153968  0.79274839  0.77588381  1  0.23952  0.002829  -0.004355  -0.113647  0.001442  3.915449  0.002
C  C65  1  0.75846642  0.20724827  0.22411459  1  0.239752  0.002829  -0.004384  -0.113728  0.001442  3.91543  0.002
C  C66  1  0.95331328  0.36323906  0.70101480  1  -0.033059  -0.011122  -0.080563  -0.087932  -0.012038  3.976417  -0.007
C  C67  1  0.04667700  0.63675744  0.29898716  1  -0.033277  -0.011121  -0.080694  -0.088135  -0.012037  3.976578  -0.007
C  C68  1  0.71048256  0.26573142  0.50352052  1  0.915993  -0.00621  0.135124  0.087738  -0.007319  3.877364  -0.004
C  C69  1  0.28952011  0.73426893  0.49648046  1  0.915764  -0.006206  0.135114  0.087664  -0.007317  3.877433  -0.004
C  C70  1  0.14433758  0.79940024  0.87310632  1  0.441736  0.000162  0.001125  -0.022928  -0.000428  3.986043  0.0
C  C71  1  0.85567309  0.20059640  0.12689328  1  0.441639  0.000161  0.001182  -0.022875  -0.000428  3.985871  0.0
C  C72  1  0.84896393  0.16501343  0.83990409  1  0.4645  -0.007241  0.044747  0.072243  -0.007772  3.902995  -0.004
C  C73  1  0.15102752  0.83498674  0.16010238  1  0.46464  -0.007241  0.04474  0.072221  -0.007772  3.903  -0.004
C  C74  1  0.84133474  0.27177533  0.74695584  1  -0.010161  0.000919  -0.085373  -0.112238  -0.000101  3.989449  0.001
C  C75  1  0.15865223  0.72822383  0.25305268  1  -0.010393  0.000919  -0.085329  -0.112162  -0.000101  3.989337  0.001
C  C76  1  0.92063565  0.96580540  0.61210809  1  0.010121  0.000153  -0.08838  -0.152336  1.2e-05  3.982448  0.0
C  C77  1  0.07936597  0.03419024  0.38789235  1  0.010309  0.000154  -0.088399  -0.15242  1.3e-05  3.982489  0.0
C  C78  1  0.48724556  0.12327455  0.42586924  1  -0.002304  -9.3e-05  -0.090009  -0.148411  -0.000198  3.983965  0.0
C  C79  1  0.51275701  0.87672868  0.57413016  1  -0.002149  -9.2e-05  -0.090003  -0.148454  -0.000198  3.984029  0.0
C  C80  1  0.38368679  0.08135958  0.53040474  1  -0.00145  0.000278  -0.087113  -0.148118  8.4e-05  3.996141  0.0
C  C81  1  0.61631699  0.91864358  0.46959736  1  -0.001527  0.000277  -0.087146  -0.148113  8.4e-05  3.99619  0.0
C  C82  1  0.65382976  0.51258369  0.94223759  1  0.052686  7.2e-05  -0.084309  -0.146143  -2.5e-05  3.975161  0.0
C  C83  1  0.34616608  0.48741757  0.05776390  1  0.052643  7.2e-05  -0.084327  -0.146217  -2.6e-05  3.975199  0.0
C  C84  1  0.60793512  0.49148054  0.05505254  1  0.037993  -8.5e-05  -0.080785  -0.138914  -0.000123  3.974928  0.0
C  C85  1  0.39205949  0.50852545  0.94494853  1  0.038379  -8.4e-05  -0.080767  -0.138849  -0.000123  3.97481  0.0
C  C86  1  0.04618938  0.89441096  0.57874353  1  0.027286  -0.000665  -0.089998  -0.153383  -0.000713  3.979663  0.0
C  C87  1  0.95381559  0.10558753  0.42125678  1  0.027314  -0.000665  -0.090006  -0.153355  -0.000713  3.979662  0.0
N  N88  1  0.96268652  0.14906143  0.88568592  1  -1.182734  -0.006984  -0.340567  -0.186481  -0.006263  3.697256  -0.004
N  N89  1  0.03731056  0.85093419  0.11431480  1  -1.182876  -0.006983  -0.340544  -0.186319  -0.006262  3.697163  -0.004
N  N90  1  0.29385343  0.91576243  0.71242777  1  -1.26628  0.001604  -0.230662  0.001438  0.000513  3.815194  0.001
N  N91  1  0.70614694  0.08423794  0.28757225  1  -1.266281  0.001604  -0.230648  0.001496  0.000513  3.815155  0.001
N  N92  1  0.74493857  0.14490494  0.56693134  1  -1.258908  0.00139  -0.227224  0.004943  0.000481  3.80015  0.001
N  N93  1  0.25506296  0.85509265  0.43306706  1  -1.258837  0.00139  -0.227293  0.004825  0.000481  3.800106  0.001
N  N94  1  0.40798282  0.45760965  0.22784277  1  -1.27094  0.000619  -0.22961  0.00252  -0.0001  3.803006  0.001
N  N95  1  0.59201620  0.54239926  0.77215570  1  -1.270903  0.000619  -0.229669  0.002588  -0.0001  3.802819  0.001
N  N96  1  0.58732819  0.31014615  0.55984084  1  -1.210025  0.05238  -0.342029  -0.285378  0.028182  3.575468  0.046
N  N97  1  0.41267792  0.68985327  0.44016040  1  -1.209756  0.052377  -0.34199  -0.285198  0.028181  3.57537  0.046
N  N98  1  0.41512897  0.46352980  0.38714132  1  -1.216536  0.052154  -0.347887  -0.290781  0.028142  3.590845  0.045
N  N99  1  0.58487253  0.53647152  0.61285890  1  -1.216789  0.052153  -0.347892  -0.290692  0.028142  3.590824  0.045
N  N100  1  0.13761909  0.92256260  0.87079051  1  -1.186823  0.058944  -0.325827  -0.255719  0.031459  3.512015  0.051
N  N101  1  0.86238597  0.07743302  0.12921138  1  -1.186879  0.058942  -0.325866  -0.255752  0.031458  3.512  0.051
O  O102  1  0.29627315  0.43567396  0.62192374  1  -1.174107  0.066373  -0.315407  -0.556766  0.034872  2.362707  0.056
O  O103  1  0.70372950  0.56432550  0.37807532  1  -1.174054  0.066369  -0.315386  -0.556748  0.034868  2.362693  0.056
O  O104  1  0.17159745  0.09521279  0.98312051  1  -1.091827  0.001974  -0.313423  -0.498761  0.000721  2.368618  0.003
O  O105  1  0.82840290  0.90478390  0.01687547  1  -1.091842  0.001973  -0.313387  -0.498744  0.00072  2.368604  0.003
O  O106  1  0.29140901  0.28275267  0.88009653  1  -1.16376  -0.00637  -0.32057  -0.524283  -0.006725  2.164044  -0.005
O  O107  1  0.70858901  0.71724592  0.11989866  1  -1.163875  -0.00637  -0.320492  -0.524232  -0.006725  2.164211  -0.005
O  O108  1  0.15966856  0.54644728  0.73017886  1  -1.186443  0.001137  -0.33858  -0.571704  -0.000454  2.11936  0.001
O  O109  1  0.84032266  0.45355127  0.26981712  1  -1.186553  0.001136  -0.338601  -0.571718  -0.000455  2.119364  0.001
