# generated using pymatgen
data_CdH8C6(NO)6
_symmetry_space_group_name_H-M   'P 1'
_cell_length_a   6.67220386
_cell_length_b   10.94595745
_cell_length_c   15.34822627
_cell_angle_alpha   90.00006355
_cell_angle_beta   90.00034785
_cell_angle_gamma   89.99979263
_symmetry_Int_Tables_number   1
_chemical_formula_structural   CdH8C6(NO)6
_chemical_formula_sum   'Cd4 H32 C24 N24 O24'
_cell_volume   1120.93713148
_cell_formula_units_Z   4
loop_
 _symmetry_equiv_pos_site_id
 _symmetry_equiv_pos_as_xyz
  1  'x, y, z'
loop_
 _atom_site_type_symbol
 _atom_site_label
 _atom_site_symmetry_multiplicity
 _atom_site_fract_x
 _atom_site_fract_y
 _atom_site_fract_z
 _atom_site_occupancy
 _atom_site_hle17_bader_spin_density
 _atom_site_hle17_ddec_charge
 _atom_site_hle17_ddec_spin_density
 _atom_site_hle17_ddec_sum_bond_order
 _atom_site_hle17_magmom
 _atom_site_hse06_10hf_bader_spin_density
 _atom_site_hse06_10hf_ddec_charge
 _atom_site_hse06_10hf_ddec_spin_density
 _atom_site_hse06_10hf_ddec_sum_bond_order
 _atom_site_hse06_10hf_magmom
 _atom_site_hse06_bader_spin_density
 _atom_site_hse06_ddec_charge
 _atom_site_hse06_ddec_spin_density
 _atom_site_hse06_ddec_sum_bond_order
 _atom_site_hse06_magmom
 _atom_site_pbe_bader_spin_density
 _atom_site_pbe_cm5_charge
 _atom_site_pbe_ddec_charge
 _atom_site_pbe_ddec_spin_density
 _atom_site_pbe_ddec_sum_bond_order
 _atom_site_pbe_magmom
Cd  Cd0  1  0.99999942  0.00000163  0.00000068  1  0  1.123892  0  1.664405  0  0  0.921541  0  2.112147  0  0  0.971927  0  2.068262  0  0  0.793371  0.885647  0  2.142288  0
Cd  Cd1  1  0.49999717  0.00000258  0.50000046  1  0  1.123942  0  1.664407  0  0  0.921588  0  2.112171  0  0  0.971984  0  2.068277  0  0  0.793361  0.885704  0  2.142317  0
Cd  Cd2  1  0.99999541  0.50000122  0.50000067  1  0  1.123926  0  1.664423  0  0  0.921549  0  2.112208  0  0  0.971943  0  2.068311  0  0  0.793371  0.885662  0  2.14235  0
Cd  Cd3  1  0.49999766  0.49999852  0.99999980  1  0  1.123877  0  1.664381  0  0  0.921512  0  2.112128  0  0  0.971905  0  2.068239  0  0  0.793347  0.885622  0  2.142268  0
H  H4  1  0.80806837  0.26128738  0.04403037  1  0  0.08559  0  0.968665  0  0  0.093407  0  1.034195  0  0  0.095613  0  1.031791  0  0  0.126723  0.091774  0  1.035955  0
H  H5  1  0.69191540  0.73870982  0.54403411  1  0  0.085575  0  0.968787  0  0  0.093347  0  1.034356  0  0  0.095551  0  1.031955  0  0  0.126706  0.091725  0  1.036104  0
H  H6  1  0.19191202  0.76129490  0.45596725  1  0  0.085607  0  0.968745  0  0  0.093358  0  1.034353  0  0  0.095561  0  1.031953  0  0  0.126734  0.091739  0  1.0361  0
H  H7  1  0.30806454  0.23871045  0.95596830  1  0  0.085572  0  0.96867  0  0  0.093397  0  1.034192  0  0  0.095603  0  1.031788  0  0  0.126731  0.091772  0  1.035947  0
H  H8  1  0.19192004  0.73871070  0.95596508  1  0  0.085551  0  0.968816  0  0  0.093316  0  1.034397  0  0  0.095521  0  1.031995  0  0  0.126726  0.091703  0  1.036146  0
H  H9  1  0.30808050  0.26129739  0.45596656  1  0  0.085554  0  0.968658  0  0  0.093317  0  1.034276  0  0  0.095525  0  1.031864  0  0  0.126714  0.091701  0  1.036024  0
H  H10  1  0.80808688  0.23870774  0.54403537  1  0  0.085572  0  0.968773  0  0  0.093336  0  1.034364  0  0  0.095541  0  1.031962  0  0  0.126705  0.091715  0  1.036112  0
H  H11  1  0.69195085  0.76128032  0.04403106  1  0  0.085633  0  0.968562  0  0  0.093231  0  1.034346  0  0  0.095436  0  1.031942  0  0  0.12669  0.091611  0  1.036092  0
H  H12  1  0.66386594  0.40528833  0.79912987  1  0  0.11569  0  0.981896  0  0  0.118788  0  1.053511  0  0  0.121951  0  1.049351  0  0  0.120517  0.116484  0  1.056441  0
H  H13  1  0.83612136  0.59471201  0.29913363  1  0  0.115672  0  0.981909  0  0  0.118745  0  1.053567  0  0  0.121908  0  1.049409  0  0  0.120523  0.116442  0  1.056497  0
H  H14  1  0.33612950  0.90529056  0.70086876  1  0  0.115726  0  0.981927  0  0  0.118803  0  1.053555  0  0  0.121964  0  1.049398  0  0  0.120538  0.116504  0  1.056484  0
H  H15  1  0.16388249  0.09470983  0.20087168  1  0  0.115743  0  0.98181  0  0  0.118772  0  1.053502  0  0  0.121935  0  1.049343  0  0  0.120508  0.11647  0  1.056432  0
H  H16  1  0.33612996  0.59471066  0.20086559  1  0  0.115638  0  0.981933  0  0  0.118748  0  1.053547  0  0  0.121911  0  1.049388  0  0  0.120527  0.116455  0  1.056481  0
H  H17  1  0.16387005  0.40528606  0.70086964  1  0  0.115747  0  0.981897  0  0  0.118809  0  1.053548  0  0  0.121972  0  1.04939  0  0  0.120539  0.116512  0  1.056475  0
H  H18  1  0.66387989  0.09471574  0.29913256  1  0  0.115683  0  0.981951  0  0  0.118751  0  1.053604  0  0  0.121914  0  1.049446  0  0  0.120523  0.116451  0  1.056524  0
H  H19  1  0.83612989  0.90529647  0.79913290  1  0  0.115728  0  0.981884  0  0  0.118837  0  1.053497  0  0  0.121999  0  1.04934  0  0  0.120534  0.116537  0  1.056431  0
H  H20  1  0.23821245  0.88802414  0.85478804  1  0  0.416398  0  0.877579  0  0  0.38505  0  0.947082  0  0  0.394951  0  0.932567  0  0  0.294488  0.377977  0  0.957466  0
H  H21  1  0.26178819  0.11198105  0.35478927  1  0  0.416391  0  0.87756  0  0  0.385083  0  0.947008  0  0  0.394982  0  0.932498  0  0  0.294504  0.378015  0  0.957384  0
H  H22  1  0.76178760  0.38801414  0.64520992  1  0  0.416381  0  0.877502  0  0  0.38504  0  0.947079  0  0  0.394941  0  0.932564  0  0  0.29448  0.37797  0  0.957455  0
H  H23  1  0.73820657  0.61197317  0.14521475  1  0  0.416394  0  0.877607  0  0  0.385065  0  0.947058  0  0  0.394961  0  0.932552  0  0  0.294495  0.377996  0  0.957434  0
H  H24  1  0.76178795  0.11197942  0.14521328  1  0  0.416369  0  0.877611  0  0  0.385056  0  0.947053  0  0  0.394953  0  0.932546  0  0  0.294494  0.377988  0  0.957427  0
H  H25  1  0.73821071  0.88802250  0.64521139  1  0  0.416345  0  0.877661  0  0  0.385015  0  0.947123  0  0  0.394916  0  0.932609  0  0  0.29448  0.377939  0  0.957512  0
H  H26  1  0.23820830  0.61197480  0.35478813  1  0  0.416388  0  0.877591  0  0  0.385034  0  0.947104  0  0  0.394934  0  0.932591  0  0  0.294483  0.377956  0  0.957493  0
H  H27  1  0.26178784  0.38801486  0.85478852  1  0  0.416346  0  0.87753  0  0  0.385039  0  0.947049  0  0  0.394936  0  0.932543  0  0  0.294489  0.377969  0  0.957426  0
H  H28  1  0.32769373  0.01910143  0.86138141  1  0  0.422203  0  0.858252  0  0  0.385816  0  0.93944  0  0  0.396962  0  0.922908  0  0  0.296312  0.377852  0  0.951238  0
H  H29  1  0.17229501  0.98090560  0.36138114  1  0  0.422282  0  0.858129  0  0  0.385905  0  0.939314  0  0  0.397051  0  0.922784  0  0  0.296348  0.377945  0  0.951107  0
H  H30  1  0.67229200  0.51908911  0.63861887  1  0  0.422183  0  0.85829  0  0  0.3858  0  0.939463  0  0  0.396946  0  0.922932  0  0  0.296296  0.377837  0  0.951259  0
H  H31  1  0.82769458  0.48089910  0.13861992  1  0  0.422352  0  0.858093  0  0  0.385952  0  0.939272  0  0  0.397098  0  0.922741  0  0  0.296403  0.377983  0  0.951078  0
H  H32  1  0.67229768  0.98090487  0.13861534  1  0  0.422274  0  0.858199  0  0  0.385898  0  0.939331  0  0  0.397044  0  0.9228  0  0  0.296332  0.377937  0  0.951127  0
H  H33  1  0.82769340  0.01909887  0.63861627  1  0  0.422244  0  0.858171  0  0  0.385857  0  0.939382  0  0  0.397002  0  0.922853  0  0  0.296321  0.377894  0  0.951179  0
H  H34  1  0.32769491  0.48089892  0.36138375  1  0  0.422208  0  0.8582  0  0  0.385827  0  0.939419  0  0  0.396973  0  0.922889  0  0  0.296304  0.377862  0  0.951219  0
H  H35  1  0.17229683  0.51909075  0.86137880  1  0  0.422272  0  0.858157  0  0  0.385894  0  0.939332  0  0  0.39704  0  0.9228  0  0  0.296364  0.377932  0  0.951127  0
C  C36  1  0.79808558  0.26770510  0.97375147  1  0  0.256232  0  3.674909  0  0  0.200572  0  3.943921  0  0  0.213625  0  3.959081  0  0  0.138736  0.19209  0  3.933197  0
C  C37  1  0.70190114  0.73229642  0.47375629  1  0  0.256305  0  3.674916  0  0  0.200697  0  3.943906  0  0  0.213751  0  3.959062  0  0  0.13878  0.192213  0  3.933188  0
C  C38  1  0.20190019  0.76770827  0.52624509  1  0  0.256326  0  3.674747  0  0  0.200724  0  3.943725  0  0  0.213779  0  3.95888  0  0  0.138802  0.192237  0  3.933007  0
C  C39  1  0.29808991  0.23229549  0.02625108  1  0  0.256279  0  3.675042  0  0  0.200632  0  3.944042  0  0  0.213684  0  3.959201  0  0  0.138758  0.192149  0  3.933321  0
C  C40  1  0.20190433  0.73229754  0.02624203  1  0  0.25638  0  3.674774  0  0  0.200759  0  3.94378  0  0  0.213813  0  3.958935  0  0  0.138783  0.192274  0  3.933064  0
C  C41  1  0.29809326  0.26770987  0.52624633  1  0  0.256433  0  3.674694  0  0  0.200815  0  3.943681  0  0  0.21387  0  3.958838  0  0  0.138849  0.192326  0  3.932971  0
C  C42  1  0.79809871  0.23229529  0.47375557  1  0  0.256338  0  3.67492  0  0  0.200738  0  3.943925  0  0  0.213792  0  3.959082  0  0  0.138785  0.192253  0  3.933211  0
C  C43  1  0.70192398  0.76770075  0.97375089  1  0  0.256267  0  3.674841  0  0  0.200785  0  3.943849  0  0  0.213839  0  3.959007  0  0  0.138812  0.192301  0  3.933134  0
C  C44  1  0.72412241  0.34363905  0.84769971  1  0  0.041389  0  3.651841  0  0  -0.016962  0  3.93615  0  0  -0.003373  0  3.946674  0  0  0.026683  -0.025517  0  3.928706  0
C  C45  1  0.77586706  0.65636227  0.34770271  1  0  0.041567  0  3.651894  0  0  -0.016719  0  3.936205  0  0  -0.003132  0  3.946731  0  0  0.026767  -0.025271  0  3.928757  0
C  C46  1  0.27587340  0.84364043  0.65229887  1  0  0.041306  0  3.652043  0  0  -0.016971  0  3.936349  0  0  -0.00338  0  3.946874  0  0  0.026666  -0.025523  0  3.928907  0
C  C47  1  0.22413793  0.15635988  0.15229874  1  0  0.041362  0  3.651997  0  0  -0.016878  0  3.936335  0  0  -0.003289  0  3.946859  0  0  0.026743  -0.02543  0  3.928888  0
C  C48  1  0.27587499  0.65635902  0.15229640  1  0  0.041575  0  3.651938  0  0  -0.016753  0  3.936218  0  0  -0.003166  0  3.946744  0  0  0.026752  -0.025306  0  3.928777  0
C  C49  1  0.22412585  0.34363854  0.65229991  1  0  0.041359  0  3.651935  0  0  -0.016929  0  3.936251  0  0  -0.003339  0  3.946774  0  0  0.026673  -0.025481  0  3.928805  0
C  C50  1  0.72413000  0.15636130  0.34770440  1  0  0.04157  0  3.651969  0  0  -0.016712  0  3.936257  0  0  -0.003126  0  3.94678  0  0  0.026772  -0.025266  0  3.928812  0
C  C51  1  0.77587746  0.84364185  0.84770323  1  0  0.041342  0  3.652137  0  0  -0.017001  0  3.936441  0  0  -0.003409  0  3.946964  0  0  0.026732  -0.025556  0  3.929001  0
C  C52  1  0.82757125  0.23288845  0.83829611  1  0  0.133618  0  3.762657  0  0  0.099601  0  4.056615  0  0  0.094483  0  4.07976  0  0  0.163491  0.102385  0  4.041439  0
C  C53  1  0.67242558  0.76711560  0.33830153  1  0  0.133523  0  3.762731  0  0  0.099403  0  4.056824  0  0  0.094286  0  4.079967  0  0  0.163433  0.102189  0  4.04165  0
C  C54  1  0.17243120  0.73288916  0.66170043  1  0  0.133857  0  3.762417  0  0  0.099706  0  4.056533  0  0  0.094591  0  4.079675  0  0  0.163572  0.102491  0  4.041356  0
C  C55  1  0.32758025  0.26710842  0.16170261  1  0  0.133585  0  3.762439  0  0  0.09948  0  4.056496  0  0  0.094362  0  4.079641  0  0  0.163474  0.102265  0  4.041318  0
C  C56  1  0.17243214  0.76711419  0.16169739  1  0  0.133581  0  3.762592  0  0  0.099527  0  4.056612  0  0  0.094412  0  4.079754  0  0  0.163476  0.102315  0  4.041434  0
C  C57  1  0.32757182  0.23288704  0.66170109  1  0  0.133609  0  3.762654  0  0  0.09951  0  4.056703  0  0  0.094391  0  4.079847  0  0  0.163491  0.102298  0  4.041522  0
C  C58  1  0.82757219  0.26711714  0.33830154  1  0  0.133499  0  3.762715  0  0  0.099448  0  4.056721  0  0  0.094333  0  4.079867  0  0  0.163417  0.102235  0  4.041549  0
C  C59  1  0.67243214  0.73289148  0.83829544  1  0  0.133676  0  3.762527  0  0  0.099608  0  4.056573  0  0  0.094487  0  4.07972  0  0  0.163475  0.102394  0  4.041399  0
N  N60  1  0.87367516  0.18521973  0.91908203  1  0  -0.44164  0  3.100021  0  0  -0.378699  0  3.381083  0  0  -0.396527  0  3.397745  0  0  -0.343985  -0.36634  0  3.369622  0
N  N61  1  0.62631979  0.81478080  0.41908476  1  0  -0.441621  0  3.100277  0  0  -0.378649  0  3.381346  0  0  -0.396477  0  3.398008  0  0  -0.343952  -0.366294  0  3.369889  0
N  N62  1  0.12631709  0.68522589  0.58091642  1  0  -0.4417  0  3.099991  0  0  -0.378727  0  3.381078  0  0  -0.396554  0  3.397736  0  0  -0.344037  -0.366366  0  3.369613  0
N  N63  1  0.37367976  0.31477796  0.08091746  1  0  -0.44164  0  3.10015  0  0  -0.378683  0  3.381241  0  0  -0.396511  0  3.397907  0  0  -0.344007  -0.366324  0  3.369776  0
N  N64  1  0.12632374  0.81477926  0.08091472  1  0  -0.441596  0  3.100293  0  0  -0.378645  0  3.381344  0  0  -0.396471  0  3.398004  0  0  -0.343941  -0.366282  0  3.369878  0
N  N65  1  0.37367761  0.18522184  0.58091460  1  0  -0.441747  0  3.100064  0  0  -0.378789  0  3.381152  0  0  -0.396618  0  3.397814  0  0  -0.344012  -0.366429  0  3.369694  0
N  N66  1  0.87367881  0.31478132  0.41908620  1  0  -0.441641  0  3.100313  0  0  -0.378689  0  3.381364  0  0  -0.396519  0  3.39803  0  0  -0.343948  -0.366331  0  3.369907  0
N  N67  1  0.62633113  0.68522103  0.91908060  1  0  -0.44165  0  3.100028  0  0  -0.378692  0  3.381034  0  0  -0.39652  0  3.397697  0  0  -0.343972  -0.366335  0  3.369577  0
N  N68  1  0.70514421  0.36444865  0.93372396  1  0  -0.39179  0  3.202417  0  0  -0.305598  0  3.48272  0  0  -0.330659  0  3.49912  0  0  -0.35905  -0.28845  0  3.470781  0
N  N69  1  0.79484195  0.63554824  0.43372765  1  0  -0.391986  0  3.20247  0  0  -0.305794  0  3.482784  0  0  -0.330855  0  3.49918  0  0  -0.35912  -0.288652  0  3.470864  0
N  N70  1  0.29484848  0.86445350  0.56627398  1  0  -0.391988  0  3.202487  0  0  -0.305778  0  3.482762  0  0  -0.330843  0  3.499159  0  0  -0.359086  -0.288627  0  3.47083  0
N  N71  1  0.20515266  0.13554850  0.06627769  1  0  -0.391897  0  3.202553  0  0  -0.305711  0  3.482846  0  0  -0.330773  0  3.499245  0  0  -0.359116  -0.288564  0  3.470913  0
N  N72  1  0.29484869  0.63554760  0.06627214  1  0  -0.392027  0  3.202479  0  0  -0.305825  0  3.48278  0  0  -0.330888  0  3.499178  0  0  -0.359115  -0.288668  0  3.47085  0
N  N73  1  0.20515245  0.36445440  0.56627432  1  0  -0.391997  0  3.202454  0  0  -0.305787  0  3.482733  0  0  -0.33085  0  3.499128  0  0  -0.359121  -0.288636  0  3.470805  0
N  N74  1  0.70515941  0.13554914  0.43372668  1  0  -0.392018  0  3.20251  0  0  -0.30584  0  3.48283  0  0  -0.330902  0  3.499227  0  0  -0.359131  -0.288699  0  3.470912  0
N  N75  1  0.79485972  0.86444775  0.93372493  1  0  -0.391866  0  3.202674  0  0  -0.30566  0  3.482918  0  0  -0.33072  0  3.499313  0  0  -0.359117  -0.288511  0  3.470986  0
N  N76  1  0.86998414  0.17677630  0.75895212  1  0  0.481963  0  3.956937  0  0  0.505811  0  4.258658  0  0  0.527713  0  4.270382  0  0  0.034335  0.491226  0  4.250709  0
N  N77  1  0.63001459  0.82322488  0.25895356  1  0  0.482292  0  3.956716  0  0  0.506188  0  4.258395  0  0  0.528091  0  4.27011  0  0  0.034448  0.491603  0  4.25045  0
N  N78  1  0.13002314  0.67677723  0.74104568  1  0  0.481824  0  3.956842  0  0  0.505702  0  4.25857  0  0  0.527597  0  4.270295  0  0  0.03425  0.491119  0  4.250618  0
N  N79  1  0.36999091  0.32322504  0.24105128  1  0  0.482026  0  3.956838  0  0  0.505928  0  4.258529  0  0  0.52783  0  4.270251  0  0  0.034371  0.491345  0  4.250578  0
N  N80  1  0.13002375  0.82321903  0.24104855  1  0  0.482068  0  3.956688  0  0  0.505917  0  4.258424  0  0  0.52781  0  4.270147  0  0  0.034418  0.491331  0  4.250471  0
N  N81  1  0.36998281  0.17677228  0.74104645  1  0  0.482153  0  3.956909  0  0  0.506016  0  4.258619  0  0  0.527918  0  4.27034  0  0  0.034316  0.491432  0  4.250666  0
N  N82  1  0.86998325  0.32322359  0.25895173  1  0  0.482124  0  3.956817  0  0  0.505977  0  4.258512  0  0  0.527874  0  4.270236  0  0  0.034393  0.491391  0  4.250563  0
N  N83  1  0.63002148  0.67678126  0.75895069  1  0  0.482128  0  3.957029  0  0  0.505992  0  4.258738  0  0  0.527892  0  4.270462  0  0  0.034552  0.491405  0  4.250787  0
O  O84  1  0.81843082  0.23088578  0.68943785  1  0  -0.458626  0  1.827564  0  0  -0.419118  0  2.052424  0  0  -0.436892  0  2.05008  0  0  -0.162945  -0.407035  0  2.054195  0
O  O85  1  0.68156396  0.76911895  0.18944199  1  0  -0.458717  0  1.827526  0  0  -0.41927  0  2.052419  0  0  -0.437039  0  2.050071  0  0  -0.163035  -0.407193  0  2.054195  0
O  O86  1  0.18158064  0.73088305  0.81055999  1  0  -0.458585  0  1.827533  0  0  -0.419088  0  2.052403  0  0  -0.436853  0  2.050061  0  0  -0.162943  -0.407004  0  2.054176  0
O  O87  1  0.31843437  0.26911294  0.31056150  1  0  -0.458673  0  1.827469  0  0  -0.419181  0  2.052332  0  0  -0.436954  0  2.049988  0  0  -0.162987  -0.4071  0  2.054103  0
O  O88  1  0.18157557  0.76911138  0.31055630  1  0  -0.458692  0  1.827854  0  0  -0.419127  0  2.052698  0  0  -0.436884  0  2.050352  0  0  -0.162955  -0.407035  0  2.054464  0
O  O89  1  0.31842295  0.23087456  0.81055867  1  0  -0.458685  0  1.827516  0  0  -0.41926  0  2.052426  0  0  -0.437036  0  2.050083  0  0  -0.162975  -0.407176  0  2.054198  0
O  O90  1  0.81843175  0.26911229  0.18944328  1  0  -0.458708  0  1.827596  0  0  -0.419225  0  2.052474  0  0  -0.436991  0  2.05013  0  0  -0.163002  -0.407138  0  2.054244  0
O  O91  1  0.68157652  0.73089336  0.68943721  1  0  -0.458668  0  1.82755  0  0  -0.41919  0  2.052472  0  0  -0.436958  0  2.050128  0  0  -0.163041  -0.4071  0  2.05424  0
O  O92  1  0.95485293  0.07452841  0.75623787  1  0  -0.411453  0  1.805259  0  0  -0.377099  0  2.024203  0  0  -0.391818  0  2.020115  0  0  -0.147619  -0.366983  0  2.026974  0
O  O93  1  0.54514426  0.92547734  0.25624177  1  0  -0.41172  0  1.805259  0  0  -0.377327  0  2.024134  0  0  -0.392054  0  2.020067  0  0  -0.147696  -0.36721  0  2.026902  0
O  O94  1  0.04515495  0.57452679  0.74375919  1  0  -0.411481  0  1.805287  0  0  -0.377098  0  2.02414  0  0  -0.391849  0  2.020124  0  0  -0.147602  -0.366984  0  2.026908  0
O  O95  1  0.45485314  0.42547000  0.24376379  1  0  -0.411354  0  1.80537  0  0  -0.377052  0  2.024296  0  0  -0.391774  0  2.020217  0  0  -0.14758  -0.366938  0  2.027065  0
O  O96  1  0.04515046  0.92547149  0.24376214  1  0  -0.411592  0  1.804968  0  0  -0.377246  0  2.023894  0  0  -0.391995  0  2.019876  0  0  -0.147721  -0.367125  0  2.026658  0
O  O97  1  0.45485913  0.07452439  0.74375694  1  0  -0.411522  0  1.80529  0  0  -0.377097  0  2.024144  0  0  -0.391825  0  2.020073  0  0  -0.147587  -0.366982  0  2.026911  0
O  O98  1  0.95484994  0.42547220  0.25623756  1  0  -0.411535  0  1.805301  0  0  -0.37718  0  2.024202  0  0  -0.391908  0  2.020132  0  0  -0.147633  -0.367059  0  2.026969  0
O  O99  1  0.54516074  0.57453264  0.75623427  1  0  -0.4116  0  1.805418  0  0  -0.377247  0  2.024331  0  0  -0.391972  0  2.020257  0  0  -0.147764  -0.367129  0  2.027098  0
O  O100  1  0.26641462  0.95407866  0.89636359  1  0  -0.811492  0  1.855668  0  0  -0.752312  0  2.056821  0  0  -0.771956  0  2.024296  0  0  -0.58438  -0.738282  0  2.079633  0
O  O101  1  0.23358060  0.04592568  0.39636535  1  0  -0.811553  0  1.8556  0  0  -0.752396  0  2.056756  0  0  -0.772038  0  2.02423  0  0  -0.584413  -0.738365  0  2.079558  0
O  O102  1  0.73357755  0.45407140  0.60363443  1  0  -0.811454  0  1.855611  0  0  -0.752272  0  2.056797  0  0  -0.771918  0  2.024273  0  0  -0.584349  -0.738239  0  2.079604  0
O  O103  1  0.76641155  0.54592132  0.10363862  1  0  -0.811637  0  1.855578  0  0  -0.752446  0  2.056655  0  0  -0.772089  0  2.02413  0  0  -0.584474  -0.73842  0  2.079473  0
O  O104  1  0.73358278  0.04592581  0.10363512  1  0  -0.811503  0  1.855686  0  0  -0.752355  0  2.056793  0  0  -0.771995  0  2.02427  0  0  -0.584389  -0.738323  0  2.0796  0
O  O105  1  0.76641830  0.95407605  0.60363401  1  0  -0.811483  0  1.855695  0  0  -0.752306  0  2.056837  0  0  -0.771952  0  2.024315  0  0  -0.584386  -0.738282  0  2.079647  0
O  O106  1  0.26641236  0.54592211  0.39636559  1  0  -0.81147  0  1.85563  0  0  -0.752291  0  2.05681  0  0  -0.771937  0  2.024286  0  0  -0.584375  -0.738268  0  2.079626  0
O  O107  1  0.23357986  0.45407310  0.89636270  1  0  -0.811499  0  1.855558  0  0  -0.752351  0  2.056785  0  0  -0.77199  0  2.024261  0  0  -0.584427  -0.738323  0  2.079592  0
