# generated using pymatgen
data_Ag2H16C14S2O15
_symmetry_space_group_name_H-M   'P 1'
_cell_length_a   8.50927627
_cell_length_b   10.65596661
_cell_length_c   12.56562054
_cell_angle_alpha   115.30721436
_cell_angle_beta   99.96934023
_cell_angle_gamma   95.51316065
_symmetry_Int_Tables_number   1
_chemical_formula_structural   Ag2H16C14S2O15
_chemical_formula_sum   'Ag4 H32 C28 S4 O30'
_cell_volume   995.80101804
_cell_formula_units_Z   2
loop_
 _symmetry_equiv_pos_site_id
 _symmetry_equiv_pos_as_xyz
  1  'x, y, z'
loop_
 _atom_site_type_symbol
 _atom_site_label
 _atom_site_symmetry_multiplicity
 _atom_site_fract_x
 _atom_site_fract_y
 _atom_site_fract_z
 _atom_site_occupancy
 _atom_site_hle17_bader_spin_density
 _atom_site_hle17_ddec_charge
 _atom_site_hle17_ddec_spin_density
 _atom_site_hle17_ddec_sum_bond_order
 _atom_site_hle17_magmom
 _atom_site_hse06_10hf_bader_spin_density
 _atom_site_hse06_10hf_ddec_charge
 _atom_site_hse06_10hf_ddec_spin_density
 _atom_site_hse06_10hf_ddec_sum_bond_order
 _atom_site_hse06_10hf_magmom
 _atom_site_hse06_bader_spin_density
 _atom_site_hse06_ddec_charge
 _atom_site_hse06_ddec_spin_density
 _atom_site_hse06_ddec_sum_bond_order
 _atom_site_hse06_magmom
 _atom_site_pbe_bader_spin_density
 _atom_site_pbe_cm5_charge
 _atom_site_pbe_ddec_charge
 _atom_site_pbe_ddec_spin_density
 _atom_site_pbe_ddec_sum_bond_order
 _atom_site_pbe_magmom
Ag  Ag0  1  0.48103809  0.62350692  0.41011381  1  0  0.7638  0  1.056054  0  0  0.658505  0  1.440061  0  0  0.689956  0  1.38931  0  0  0.456224  0.634917  0  1.476209  0
Ag  Ag1  1  0.51896360  0.37647020  0.58986429  1  0  0.763835  0  1.055938  0  0  0.658575  0  1.439929  0  0  0.690015  0  1.389187  0  0  0.456216  0.634987  0  1.476071  0
Ag  Ag2  1  0.91760154  0.96827234  0.62077238  1  0  0.72284  0  1.148796  0  0  0.620525  0  1.547311  0  0  0.648958  0  1.498591  0  0  0.447893  0.59952  0  1.581945  0
Ag  Ag3  1  0.08243224  0.03172619  0.37922055  1  0  0.722871  0  1.148848  0  0  0.620531  0  1.547359  0  0  0.648967  0  1.498639  0  0  0.447908  0.599519  0  1.581991  0
H  H4  1  0.78559773  0.03363665  0.12927767  1  0  0.387265  0  0.88193  0  0  0.363719  0  0.947864  0  0  0.375108  0  0.935894  0  0  0.310077  0.355662  0  0.956293  0
H  H5  1  0.21438069  0.96636632  0.87073906  1  0  0.387081  0  0.88205  0  0  0.363582  0  0.947927  0  0  0.374999  0  0.935907  0  0  0.310005  0.355529  0  0.956364  0
H  H6  1  0.12198240  0.80687264  0.15061184  1  0  0.424094  0  0.86469  0  0  0.390697  0  0.94303  0  0  0.403091  0  0.928867  0  0  0.305889  0.382001  0  0.952092  0
H  H7  1  0.87802968  0.19313441  0.84939225  1  0  0.424149  0  0.864615  0  0  0.390706  0  0.94306  0  0  0.403101  0  0.928872  0  0  0.305889  0.38201  0  0.95212  0
H  H8  1  0.72225336  0.45032698  0.86857601  1  0  0.377823  0  0.901143  0  0  0.352422  0  0.97236  0  0  0.363959  0  0.96013  0  0  0.304447  0.344342  0  0.980797  0
H  H9  1  0.27772345  0.54967513  0.13139885  1  0  0.377824  0  0.900796  0  0  0.352386  0  0.972122  0  0  0.363933  0  0.959865  0  0  0.30439  0.344305  0  0.980564  0
H  H10  1  0.37915886  0.65990290  0.81061430  1  0  0.421345  0  0.873518  0  0  0.387561  0  0.950916  0  0  0.400443  0  0.933082  0  0  0.300097  0.378564  0  0.962051  0
H  H11  1  0.62081780  0.34011853  0.18938331  1  0  0.421337  0  0.873547  0  0  0.387546  0  0.950928  0  0  0.400424  0  0.933102  0  0  0.300174  0.378547  0  0.962075  0
H  H12  1  0.21532578  0.79390978  0.48907334  1  0  0.44278  0  0.839294  0  0  0.416096  0  0.897334  0  0  0.42573  0  0.883215  0  0  0.304824  0.409082  0  0.907631  0
H  H13  1  0.78469413  0.20607638  0.51093290  1  0  0.442834  0  0.839319  0  0  0.416126  0  0.89733  0  0  0.425769  0  0.883188  0  0  0.30483  0.409111  0  0.907626  0
H  H14  1  0.14687905  0.62710548  0.40692097  1  0  0.436034  0  0.859867  0  0  0.403818  0  0.924541  0  0  0.413568  0  0.910522  0  0  0.296881  0.396949  0  0.934373  0
H  H15  1  0.85313889  0.37288370  0.59307978  1  0  0.436074  0  0.859816  0  0  0.403802  0  0.924545  0  0  0.413547  0  0.910535  0  0  0.296884  0.396935  0  0.934373  0
H  H16  1  0.83973141  0.38301798  0.31557277  1  0  0.42712  0  0.867784  0  0  0.396162  0  0.930126  0  0  0.406023  0  0.915788  0  0  0.296067  0.389167  0  0.940303  0
H  H17  1  0.16025767  0.61700472  0.68443293  1  0  0.42735  0  0.867432  0  0  0.396259  0  0.929953  0  0  0.406139  0  0.915604  0  0  0.296131  0.389271  0  0.940119  0
H  H18  1  0.69464554  0.41249223  0.37713833  1  0  0.416192  0  0.886009  0  0  0.384035  0  0.953251  0  0  0.394104  0  0.938098  0  0  0.290895  0.37674  0  0.96423  0
H  H19  1  0.30535495  0.58753183  0.62288016  1  0  0.4163  0  0.885916  0  0  0.384184  0  0.953059  0  0  0.394256  0  0.937903  0  0  0.290983  0.376898  0  0.964026  0
H  H20  1  0.66515359  0.11636300  0.70081652  1  0  0.433679  0  0.867892  0  0  0.401359  0  0.932742  0  0  0.411687  0  0.917948  0  0  0.296502  0.394107  0  0.943102  0
H  H21  1  0.33487878  0.88362727  0.29918290  1  0  0.433561  0  0.868072  0  0  0.401281  0  0.932849  0  0  0.411599  0  0.918066  0  0  0.29645  0.39403  0  0.943214  0
H  H22  1  0.79227598  0.22182711  0.68169368  1  0  0.431742  0  0.86836  0  0  0.40076  0  0.930968  0  0  0.411079  0  0.916159  0  0  0.292482  0.393438  0  0.941462  0
H  H23  1  0.20775835  0.77816638  0.31830947  1  0  0.4319  0  0.868176  0  0  0.400893  0  0.930828  0  0  0.411213  0  0.916018  0  0  0.292545  0.39357  0  0.941321  0
H  H24  1  0.60283531  0.81975932  0.65402516  1  0  0.100893  0  0.959433  0  0  0.105586  0  1.035715  0  0  0.110014  0  1.029807  0  0  0.103166  0.102275  0  1.040146  0
H  H25  1  0.39714768  0.18023731  0.34598819  1  0  0.100839  0  0.95943  0  0  0.105538  0  1.035711  0  0  0.109961  0  1.029817  0  0  0.103087  0.102208  0  1.040155  0
H  H26  1  0.54841420  0.98470634  0.84684816  1  0  0.132507  0  0.941246  0  0  0.139756  0  1.001347  0  0  0.143952  0  0.999043  0  0  0.113237  0.136836  0  1.003018  0
H  H27  1  0.45155794  0.01527764  0.15316439  1  0  0.132547  0  0.941238  0  0  0.139841  0  1.001284  0  0  0.144027  0  0.998997  0  0  0.113257  0.136917  0  1.002947  0
H  H28  1  0.98037246  0.70233507  0.85188810  1  0  0.118926  0  0.938117  0  0  0.127346  0  1.001048  0  0  0.131374  0  0.996934  0  0  0.114565  0.1244  0  1.004111  0
H  H29  1  0.01961912  0.29767425  0.14812904  1  0  0.118895  0  0.938161  0  0  0.127358  0  1.001021  0  0  0.131385  0  0.996908  0  0  0.114608  0.124404  0  1.004086  0
H  H30  1  0.87840654  0.70644855  0.34630700  1  0  0.108148  0  0.951466  0  0  0.115926  0  1.018427  0  0  0.119702  0  1.014584  0  0  0.106975  0.113049  0  1.021405  0
H  H31  1  0.12162408  0.29354956  0.65366556  1  0  0.108181  0  0.951287  0  0  0.115916  0  1.018318  0  0  0.119691  0  1.014475  0  0  0.106962  0.113052  0  1.021283  0
H  H32  1  0.93732055  0.51837090  0.16231726  1  0  0.126259  0  0.930027  0  0  0.137408  0  0.985462  0  0  0.141427  0  0.983593  0  0  0.11199  0.13456  0  0.986954  0
H  H33  1  0.06269185  0.48162067  0.83764714  1  0  0.126309  0  0.930111  0  0  0.137394  0  0.985603  0  0  0.141412  0  0.983736  0  0  0.112013  0.134551  0  0.9871  0
H  H34  1  0.52152481  0.80229365  0.11715768  1  0  0.119578  0  0.940003  0  0  0.127483  0  1.004983  0  0  0.131574  0  1.000596  0  0  0.115492  0.124481  0  1.008223  0
H  H35  1  0.47846378  0.19769843  0.88283712  1  0  0.119593  0  0.940034  0  0  0.12748  0  1.005005  0  0  0.131575  0  1.000619  0  0  0.115503  0.124483  0  1.008249  0
C  C36  1  0.79640967  0.74983259  0.74083743  1  0  -0.182576  0  3.807468  0  0  -0.159225  0  4.071467  0  0  -0.170959  0  4.093632  0  0  -0.042095  -0.151717  0  4.056655  0
C  C37  1  0.20357693  0.25017033  0.25917533  1  0  -0.182683  0  3.807781  0  0  -0.159358  0  4.071821  0  0  -0.171089  0  4.093978  0  0  -0.042102  -0.151849  0  4.056991  0
C  C38  1  0.67469144  0.83045152  0.73931634  1  0  -0.021985  0  3.733287  0  0  -0.05165  0  3.995723  0  0  -0.04539  0  4.010675  0  0  -0.078277  -0.055367  0  3.985608  0
C  C39  1  0.32529090  0.16954726  0.26070010  1  0  -0.022008  0  3.73361  0  0  -0.051679  0  3.996078  0  0  -0.045395  0  4.010977  0  0  -0.078352  -0.055395  0  3.985986  0
C  C40  1  0.64442390  0.92450342  0.84695198  1  0  -0.153844  0  3.647105  0  0  -0.172916  0  3.902563  0  0  -0.180674  0  3.919423  0  0  -0.091742  -0.168043  0  3.891367  0
C  C41  1  0.35555241  0.07548904  0.15306400  1  0  -0.153862  0  3.646992  0  0  -0.172922  0  3.902398  0  0  -0.180672  0  3.919273  0  0  -0.091696  -0.168044  0  3.89118  0
C  C42  1  0.73636949  0.94235351  0.95865885  1  0  0.365933  0  3.756733  0  0  0.343475  0  4.023469  0  0  0.361451  0  4.035485  0  0  0.106256  0.331342  0  4.015152  0
C  C43  1  0.26361063  0.05764097  0.04135265  1  0  0.365762  0  3.756572  0  0  0.343282  0  4.023461  0  0  0.36124  0  4.035513  0  0  0.106236  0.331146  0  4.015151  0
C  C44  1  0.85860743  0.86051155  0.95951797  1  0  -0.242983  0  3.789314  0  0  -0.222822  0  4.037482  0  0  -0.239987  0  4.061858  0  0  -0.042105  -0.211575  0  4.021073  0
C  C45  1  0.14137546  0.13949567  0.04050071  1  0  -0.242968  0  3.789235  0  0  -0.222807  0  4.037476  0  0  -0.239968  0  4.061859  0  0  -0.042125  -0.211574  0  4.021077  0
C  C46  1  0.88665577  0.76427883  0.84971590  1  0  -0.012873  0  3.723716  0  0  -0.059183  0  3.988024  0  0  -0.050204  0  4.002633  0  0  -0.07795  -0.064789  0  3.977998  0
C  C47  1  0.11333518  0.23572828  0.15029561  1  0  -0.012815  0  3.724018  0  0  -0.059108  0  3.988299  0  0  -0.05013  0  4.002913  0  0  -0.077978  -0.064704  0  3.978256  0
C  C48  1  0.95436221  0.87706742  0.07529228  1  0  0.667202  0  3.834345  0  0  0.610169  0  4.132579  0  0  0.644438  0  4.127667  0  0  0.227061  0.586955  0  4.135308  0
C  C49  1  0.04563620  0.12293112  0.92470899  1  0  0.667663  0  3.834114  0  0  0.610562  0  4.132463  0  0  0.644831  0  4.127547  0  0  0.227339  0.587359  0  4.135192  0
C  C50  1  0.69952096  0.76867316  0.24205925  1  0  -0.175854  0  3.798726  0  0  -0.152664  0  4.06248  0  0  -0.16445  0  4.084331  0  0  -0.040955  -0.145197  0  4.047835  0
C  C51  1  0.30048874  0.23131353  0.75792385  1  0  -0.175722  0  3.798746  0  0  -0.15232  0  4.062125  0  0  -0.164102  0  4.083969  0  0  -0.040931  -0.144864  0  4.047521  0
C  C52  1  0.81566510  0.68753546  0.25584752  1  0  -0.024803  0  3.732882  0  0  -0.056772  0  3.999183  0  0  -0.049747  0  4.013509  0  0  -0.079757  -0.061005  0  3.98954  0
C  C53  1  0.18436109  0.31246279  0.74413340  1  0  -0.025052  0  3.733023  0  0  -0.057043  0  3.999316  0  0  -0.050017  0  4.013645  0  0  -0.079811  -0.061274  0  3.989676  0
C  C54  1  0.84745994  0.58203073  0.15445201  1  0  -0.164642  0  3.664659  0  0  -0.184665  0  3.922944  0  0  -0.192493  0  3.939352  0  0  -0.095727  -0.179751  0  3.911968  0
C  C55  1  0.15254856  0.41796941  0.84552219  1  0  -0.164521  0  3.664906  0  0  -0.184512  0  3.923205  0  0  -0.192345  0  3.939632  0  0  -0.095729  -0.179595  0  3.912207  0
C  C56  1  0.76319697  0.55446495  0.03748028  1  0  0.366206  0  3.759627  0  0  0.344684  0  4.024378  0  0  0.36273  0  4.036531  0  0  0.104236  0.33256  0  4.015986  0
C  C57  1  0.23679167  0.44553091  0.96249437  1  0  0.366289  0  3.759713  0  0  0.344807  0  4.024456  0  0  0.362851  0  4.036617  0  0  0.104421  0.332685  0  4.016069  0
C  C58  1  0.64299187  0.63398638  0.02406866  1  0  -0.243444  0  3.772295  0  0  -0.221795  0  4.018656  0  0  -0.239291  0  4.043132  0  0  -0.04104  -0.210424  0  4.002261  0
C  C59  1  0.35700382  0.36601385  0.97591304  1  0  -0.24375  0  3.772736  0  0  -0.222128  0  4.019255  0  0  -0.239623  0  4.043727  0  0  -0.04119  -0.210756  0  4.002867  0
C  C60  1  0.61308461  0.74136264  0.12785587  1  0  -0.013898  0  3.719336  0  0  -0.06104  0  3.985008  0  0  -0.051883  0  3.999812  0  0  -0.076764  -0.066651  0  3.974695  0
C  C61  1  0.38691936  0.25864104  0.87213903  1  0  -0.013981  0  3.71959  0  0  -0.061091  0  3.985133  0  0  -0.05194  0  3.999939  0  0  -0.07681  -0.066704  0  3.974831  0
C  C62  1  0.55252332  0.60408214  0.90178377  1  0  0.680527  0  3.823506  0  0  0.623549  0  4.122454  0  0  0.658565  0  4.116744  0  0  0.230674  0.599812  0  4.125727  0
C  C63  1  0.44746353  0.39592655  0.09820320  1  0  0.680913  0  3.822846  0  0  0.623758  0  4.122052  0  0  0.658773  0  4.116342  0  0  0.230786  0.600024  0  4.125321  0
S  S64  1  0.84072971  0.63317084  0.60457615  1  0  1.318633  0  5.566196  0  0  1.215781  0  6.075921  0  0  1.263726  0  6.056216  0  0  0.519798  1.182625  0  6.088435  0
S  S65  1  0.15926803  0.36683956  0.39544120  1  0  1.318672  0  5.566141  0  0  1.215778  0  6.075915  0  0  1.263738  0  6.056203  0  0  0.519828  1.182626  0  6.088424  0
S  S66  1  0.66441446  0.90721799  0.37183427  1  0  1.321297  0  5.582142  0  0  1.222102  0  6.085905  0  0  1.270601  0  6.065204  0  0  0.514803  1.188652  0  6.099039  0
S  S67  1  0.33561490  0.09276380  0.62816104  1  0  1.320966  0  5.582517  0  0  1.221664  0  6.086316  0  0  1.270189  0  6.065602  0  0  0.514608  1.188222  0  6.099455  0
O  O68  1  0.68064623  0.54328869  0.52314472  1  0  -0.745861  0  2.13015  0  0  -0.669152  0  2.419598  0  0  -0.695876  0  2.400422  0  0  -0.343704  -0.6497  0  2.43217  0
O  O69  1  0.31935317  0.45671852  0.47687007  1  0  -0.745792  0  2.130117  0  0  -0.669107  0  2.419556  0  0  -0.695832  0  2.400378  0  0  -0.343626  -0.649666  0  2.432128  0
O  O70  1  0.91849668  0.71586447  0.55351807  1  0  -0.651413  0  2.017539  0  0  -0.595366  0  2.293465  0  0  -0.618563  0  2.277171  0  0  -0.335084  -0.578826  0  2.304178  0
O  O71  1  0.08149637  0.28414062  0.44649691  1  0  -0.651527  0  2.01752  0  0  -0.595367  0  2.293357  0  0  -0.618563  0  2.277054  0  0  -0.335148  -0.578836  0  2.304071  0
O  O72  1  0.94737471  0.54610938  0.63619349  1  0  -0.677233  0  2.006298  0  0  -0.609462  0  2.241149  0  0  -0.632494  0  2.227649  0  0  -0.324183  -0.593369  0  2.250142  0
O  O73  1  0.05262150  0.45389989  0.36382011  1  0  -0.677111  0  2.006114  0  0  -0.609444  0  2.241072  0  0  -0.632504  0  2.227578  0  0  -0.324203  -0.593349  0  2.250061  0
O  O74  1  0.70588648  0.03634520  0.06117424  1  0  -0.468956  0  2.08795  0  0  -0.417979  0  2.293691  0  0  -0.438006  0  2.284363  0  0  -0.325075  -0.40379  0  2.299881  0
O  O75  1  0.29408709  0.96365143  0.93884134  1  0  -0.468719  0  2.08817  0  0  -0.41776  0  2.293894  0  0  -0.437812  0  2.284557  0  0  -0.324954  -0.403571  0  2.300087  0
O  O76  1  0.93274597  0.96665060  0.17414974  1  0  -0.60746  0  2.104316  0  0  -0.544331  0  2.352646  0  0  -0.570912  0  2.344363  0  0  -0.290524  -0.525832  0  2.357826  0
O  O77  1  0.06724662  0.03335144  0.82586969  1  0  -0.607605  0  2.104633  0  0  -0.544515  0  2.353092  0  0  -0.571066  0  2.344723  0  0  -0.290696  -0.526029  0  2.35828  0
O  O78  1  0.05985553  0.79315722  0.06693993  1  0  -0.531086  0  2.124307  0  0  -0.476102  0  2.345889  0  0  -0.498813  0  2.332905  0  0  -0.316202  -0.460447  0  2.353823  0
O  O79  1  0.94014581  0.20685508  0.93306732  1  0  -0.531295  0  2.123971  0  0  -0.476295  0  2.345689  0  0  -0.499007  0  2.332681  0  0  -0.316335  -0.460645  0  2.353635  0
O  O80  1  0.81304391  0.02036463  0.42857850  1  0  -0.717416  0  2.074627  0  0  -0.650277  0  2.357758  0  0  -0.674527  0  2.337338  0  0  -0.343607  -0.632854  0  2.371598  0
O  O81  1  0.18699296  0.97961738  0.57142641  1  0  -0.717135  0  2.074762  0  0  -0.649993  0  2.357884  0  0  -0.674252  0  2.33749  0  0  -0.343482  -0.632561  0  2.371696  0
O  O82  1  0.63931978  0.84682042  0.45552631  1  0  -0.712824  0  2.103292  0  0  -0.64984  0  2.408045  0  0  -0.675755  0  2.388965  0  0  -0.348594  -0.631309  0  2.420478  0
O  O83  1  0.36070026  0.15315266  0.54445542  1  0  -0.712775  0  2.102932  0  0  -0.649848  0  2.407798  0  0  -0.67576  0  2.388711  0  0  -0.3486  -0.63131  0  2.420219  0
O  O84  1  0.52440777  0.95890829  0.33060096  1  0  -0.642212  0  2.007536  0  0  -0.5779  0  2.244585  0  0  -0.600596  0  2.231341  0  0  -0.320202  -0.562054  0  2.253274  0
O  O85  1  0.47561678  0.04109473  0.66940854  1  0  -0.642327  0  2.008028  0  0  -0.577922  0  2.245077  0  0  -0.600669  0  2.231857  0  0  -0.320191  -0.56208  0  2.253773  0
O  O86  1  0.79734041  0.45223815  0.94123000  1  0  -0.4749  0  2.110422  0  0  -0.424429  0  2.323028  0  0  -0.444264  0  2.313766  0  0  -0.330942  -0.410437  0  2.32892  0
O  O87  1  0.20264290  0.54776177  0.05873917  1  0  -0.474812  0  2.109989  0  0  -0.424343  0  2.322615  0  0  -0.444177  0  2.313345  0  0  -0.330924  -0.410351  0  2.328507  0
O  O88  1  0.58331868  0.50900672  0.80883774  1  0  -0.635972  0  2.082265  0  0  -0.574645  0  2.344619  0  0  -0.601509  0  2.333077  0  0  -0.305678  -0.555934  0  2.352316  0
O  O89  1  0.41665474  0.49100704  0.19114409  1  0  -0.636037  0  2.082186  0  0  -0.574615  0  2.344586  0  0  -0.601489  0  2.333042  0  0  -0.305605  -0.555898  0  2.352278  0
O  O90  1  0.44373527  0.68125940  0.89833894  1  0  -0.531974  0  2.127062  0  0  -0.473025  0  2.34385  0  0  -0.497022  0  2.329376  0  0  -0.307798  -0.456573  0  2.352633  0
O  O91  1  0.55625036  0.31875271  0.10166185  1  0  -0.532073  0  2.12678  0  0  -0.473019  0  2.343577  0  0  -0.497012  0  2.329105  0  0  -0.307916  -0.45657  0  2.352367  0
O  O92  1  0.22379826  0.70955222  0.41659604  1  0  -0.841726  0  1.905962  0  0  -0.772342  0  2.098256  0  0  -0.795621  0  2.064904  0  0  -0.5686  -0.755426  0  2.121561  0
O  O93  1  0.77621735  0.29043698  0.58340607  1  0  -0.841748  0  1.905965  0  0  -0.772317  0  2.098301  0  0  -0.795592  0  2.064961  0  0  -0.568589  -0.755403  0  2.121603  0
O  O94  1  0.72145493  0.35045535  0.30066011  1  0  -0.790588  0  1.848662  0  0  -0.737273  0  2.002127  0  0  -0.755294  0  1.971933  0  0  -0.574124  -0.724641  0  2.023372  0
O  O95  1  0.27853194  0.64957370  0.69934840  1  0  -0.790874  0  1.848526  0  0  -0.737468  0  2.002232  0  0  -0.755517  0  1.971962  0  0  -0.57422  -0.724836  0  2.023471  0
O  O96  1  0.78335676  0.15903396  0.72195411  1  0  -0.844387  0  1.966807  0  0  -0.774121  0  2.171513  0  0  -0.798968  0  2.139301  0  0  -0.569796  -0.756375  0  2.193737  0
O  O97  1  0.21668165  0.84095638  0.27804754  1  0  -0.844466  0  1.966813  0  0  -0.774219  0  2.171465  0  0  -0.799064  0  2.139274  0  0  -0.569848  -0.756477  0  2.193682  0
