# generated using pymatgen
data_ZnH12C18N2O5
_symmetry_space_group_name_H-M   'P 1'
_cell_length_a   8.53007012
_cell_length_b   10.04374573
_cell_length_c   10.67899933
_cell_angle_alpha   84.58781199
_cell_angle_beta   66.73284345
_cell_angle_gamma   68.62907430
_symmetry_Int_Tables_number   1
_chemical_formula_structural   ZnH12C18N2O5
_chemical_formula_sum   'Zn2 H24 C36 N4 O10'
_cell_volume   781.39368860
_cell_formula_units_Z   2
loop_
 _symmetry_equiv_pos_site_id
 _symmetry_equiv_pos_as_xyz
  1  'x, y, z'
loop_
 _atom_site_type_symbol
 _atom_site_label
 _atom_site_symmetry_multiplicity
 _atom_site_fract_x
 _atom_site_fract_y
 _atom_site_fract_z
 _atom_site_occupancy
 _atom_site_hle17_bader_spin_density
 _atom_site_hle17_ddec_charge
 _atom_site_hle17_ddec_spin_density
 _atom_site_hle17_ddec_sum_bond_order
 _atom_site_hle17_magmom
 _atom_site_hse06_10hf_bader_spin_density
 _atom_site_hse06_10hf_ddec_charge
 _atom_site_hse06_10hf_ddec_spin_density
 _atom_site_hse06_10hf_ddec_sum_bond_order
 _atom_site_hse06_10hf_magmom
 _atom_site_hse06_bader_spin_density
 _atom_site_hse06_ddec_charge
 _atom_site_hse06_ddec_spin_density
 _atom_site_hse06_ddec_sum_bond_order
 _atom_site_hse06_magmom
 _atom_site_pbe_bader_spin_density
 _atom_site_pbe_cm5_charge
 _atom_site_pbe_ddec_charge
 _atom_site_pbe_ddec_spin_density
 _atom_site_pbe_ddec_sum_bond_order
 _atom_site_pbe_magmom
Zn  Zn0  1  0.14313136  0.98923053  0.79257136  1  0  1.054138  0  1.815151  0  0  0.864855  0  2.288026  0  0  0.914143  0  2.229992  0  0  0.694198  0.830438  0  2.328001  0
Zn  Zn1  1  0.85686583  0.01076941  0.20742880  1  0  1.054168  0  1.815126  0  0  0.864885  0  2.288001  0  0  0.914175  0  2.229966  0  0  0.69421  0.830468  0  2.327975  0
H  H2  1  0.28762213  0.22874421  0.62370667  1  0  0.081897  0  0.957139  0  0  0.089917  0  1.019982  0  0  0.092438  0  1.017908  0  0  0.116272  0.088017  0  1.021814  0
H  H3  1  0.71237264  0.77126109  0.37629193  1  0  0.081885  0  0.95712  0  0  0.089929  0  1.019937  0  0  0.092453  0  1.017858  0  0  0.11625  0.088032  0  1.021772  0
H  H4  1  0.35575273  0.30895060  0.38282747  1  0  0.102993  0  0.954414  0  0  0.114361  0  1.011561  0  0  0.117106  0  1.011329  0  0  0.108596  0.112282  0  1.012199  0
H  H5  1  0.64424332  0.69105470  0.61716979  1  0  0.103027  0  0.954315  0  0  0.11439  0  1.011479  0  0  0.117128  0  1.011253  0  0  0.108602  0.11231  0  1.012115  0
H  H6  1  0.31119541  0.17667923  0.21895935  1  0  0.091892  0  0.978861  0  0  0.101518  0  1.042476  0  0  0.101876  0  1.044768  0  0  0.107254  0.101291  0  1.040864  0
H  H7  1  0.68879776  0.82332392  0.78104180  1  0  0.091953  0  0.978816  0  0  0.101605  0  1.042396  0  0  0.101966  0  1.044691  0  0  0.107281  0.101377  0  1.040787  0
H  H8  1  0.22563255  0.96202958  0.29401552  1  0  0.117555  0  0.994464  0  0  0.123293  0  1.060798  0  0  0.127373  0  1.058138  0  0  0.108378  0.120621  0  1.062356  0
H  H9  1  0.77436622  0.03797249  0.70598398  1  0  0.117579  0  0.994446  0  0  0.123311  0  1.060788  0  0  0.127391  0  1.058128  0  0  0.108378  0.120642  0  1.062337  0
H  H10  1  0.22563390  0.75996821  0.34914562  1  0  0.12653  0  0.946828  0  0  0.134327  0  1.009519  0  0  0.137823  0  1.008041  0  0  0.114246  0.131934  0  1.010351  0
H  H11  1  0.77437573  0.24002956  0.65085366  1  0  0.126463  0  0.946845  0  0  0.134299  0  1.009509  0  0  0.137788  0  1.008038  0  0  0.114217  0.131902  0  1.010344  0
H  H12  1  0.17614497  0.53887482  0.44354986  1  0  0.095289  0  0.955702  0  0  0.10492  0  1.017396  0  0  0.107852  0  1.015033  0  0  0.106272  0.102362  0  1.019799  0
H  H13  1  0.82386674  0.46112402  0.55644775  1  0  0.095243  0  0.955707  0  0  0.104873  0  1.017402  0  0  0.10781  0  1.015034  0  0  0.106255  0.102317  0  1.019799  0
H  H14  1  0.12949099  0.49319975  0.69278928  1  0  0.112248  0  0.972273  0  0  0.119516  0  1.035375  0  0  0.122725  0  1.034525  0  0  0.107415  0.116722  0  1.036864  0
H  H15  1  0.87051386  0.50680018  0.30720850  1  0  0.112366  0  0.972344  0  0  0.11964  0  1.035414  0  0  0.122852  0  1.034562  0  0  0.107465  0.116848  0  1.036904  0
H  H16  1  0.13011359  0.68099269  0.83183454  1  0  0.098907  0  0.943209  0  0  0.10685  0  1.005198  0  0  0.109001  0  1.003672  0  0  0.122628  0.105364  0  1.006008  0
H  H17  1  0.86988214  0.31901046  0.16816581  1  0  0.098895  0  0.943193  0  0  0.106797  0  1.005238  0  0  0.108936  0  1.003721  0  0  0.12262  0.105307  0  1.00605  0
H  H18  1  0.44821002  0.60627599  0.86636526  1  0  0.115941  0  0.936612  0  0  0.126355  0  0.997205  0  0  0.130254  0  0.995001  0  0  0.10663  0.123678  0  0.998718  0
H  H19  1  0.55179151  0.39372288  0.13363083  1  0  0.115927  0  0.936616  0  0  0.126351  0  0.997202  0  0  0.130247  0  0.994995  0  0  0.106632  0.123675  0  0.998718  0
H  H20  1  0.90342976  0.38288630  0.82227752  1  0  0.400166  0  0.884201  0  0  0.373473  0  0.959681  0  0  0.38414  0  0.947303  0  0  0.303378  0.365935  0  0.968345  0
H  H21  1  0.09657065  0.61710935  0.17772293  1  0  0.400296  0  0.884156  0  0  0.373602  0  0.959622  0  0  0.384271  0  0.947239  0  0  0.303412  0.366061  0  0.968292  0
H  H22  1  0.92437116  0.54083079  0.94900006  1  0  0.11556  0  0.999417  0  0  0.122637  0  1.067724  0  0  0.127  0  1.064033  0  0  0.10273  0.119561  0  1.070275  0
H  H23  1  0.07562717  0.45916378  0.05100300  1  0  0.115538  0  0.99951  0  0  0.122655  0  1.067756  0  0  0.126995  0  1.064104  0  0  0.102771  0.119564  0  1.070342  0
H  H24  1  0.44663471  0.91872554  0.11797560  1  0  0.103264  0  0.984181  0  0  0.111351  0  1.053028  0  0  0.1145  0  1.05147  0  0  0.101457  0.108683  0  1.055242  0
H  H25  1  0.55336600  0.08127225  0.88202458  1  0  0.103276  0  0.984135  0  0  0.111355  0  1.053  0  0  0.114503  0  1.051443  0  0  0.101454  0.108686  0  1.055208  0
C  C26  1  0.28198861  0.17048760  0.54548930  1  0  0.143054  0  3.700167  0  0  0.110998  0  3.953583  0  0  0.118335  0  3.971043  0  0  0.049682  0.106137  0  3.941701  0
C  C27  1  0.71801048  0.82951662  0.45450805  1  0  0.143213  0  3.700109  0  0  0.111137  0  3.953501  0  0  0.118478  0  3.970955  0  0  0.049797  0.106264  0  3.941625  0
C  C28  1  0.31506546  0.21609082  0.41318039  1  0  -0.121127  0  3.71254  0  0  -0.13374  0  3.965578  0  0  -0.141183  0  3.986822  0  0  -0.081301  -0.128661  0  3.951449  0
C  C29  1  0.68493185  0.78391447  0.58681835  1  0  -0.121259  0  3.7126  0  0  -0.133887  0  3.96569  0  0  -0.141331  0  3.986947  0  0  -0.081361  -0.12881  0  3.951569  0
C  C30  1  0.29255304  0.14149440  0.32173113  1  0  0.023498  0  3.694518  0  0  0.0043  0  3.943026  0  0  0.00844  0  3.962684  0  0  -0.058265  0.001677  0  3.929222  0
C  C31  1  0.70744093  0.85850982  0.67826874  1  0  0.023465  0  3.694624  0  0  0.004268  0  3.943087  0  0  0.008402  0  3.962749  0  0  -0.058281  0.001644  0  3.929283  0
C  C32  1  0.24723456  0.02019118  0.36311410  1  0  -0.137233  0  3.677537  0  0  -0.156455  0  3.926911  0  0  -0.163643  0  3.946666  0  0  -0.077672  -0.151381  0  3.912872  0
C  C33  1  0.75276196  0.97981304  0.63688592  1  0  -0.137337  0  3.677479  0  0  -0.156566  0  3.926882  0  0  -0.163755  0  3.946639  0  0  -0.077707  -0.151492  0  3.91284  0
C  C34  1  0.22880186  0.97528733  0.49429907  1  0  0.172422  0  3.77304  0  0  0.167518  0  4.015081  0  0  0.173691  0  4.036423  0  0  0.118971  0.163577  0  4.000463  0
C  C35  1  0.77119642  0.02471582  0.50570049  1  0  0.17245  0  3.772946  0  0  0.167525  0  4.015017  0  0  0.173694  0  4.036356  0  0  0.118923  0.163571  0  4.000406  0
C  C36  1  0.19975416  0.83965887  0.54171750  1  0  0.169355  0  3.774107  0  0  0.166321  0  4.012114  0  0  0.172167  0  4.034101  0  0  0.119339  0.162161  0  3.997652  0
C  C37  1  0.80024490  0.16034534  0.45828266  1  0  0.16941  0  3.774105  0  0  0.16639  0  4.012121  0  0  0.172257  0  4.034077  0  0  0.119435  0.162227  0  3.997661  0
C  C38  1  0.20336225  0.74046531  0.45586946  1  0  -0.131733  0  3.671253  0  0  -0.149973  0  3.914607  0  0  -0.156727  0  3.935696  0  0  -0.074818  -0.145269  0  3.900021  0
C  C39  1  0.79664082  0.25953568  0.54413066  1  0  -0.131688  0  3.671182  0  0  -0.149977  0  3.914553  0  0  -0.156732  0  3.935633  0  0  -0.074798  -0.145267  0  3.899958  0
C  C40  1  0.17694006  0.61479601  0.50957716  1  0  -0.004059  0  3.725475  0  0  -0.021492  0  3.972234  0  0  -0.018132  0  3.990955  0  0  -0.065892  -0.023408  0  3.959533  0
C  C41  1  0.82306684  0.38520497  0.49042177  1  0  -0.003993  0  3.725478  0  0  -0.021416  0  3.972247  0  0  -0.018059  0  3.990972  0  0  -0.065893  -0.023329  0  3.959542  0
C  C42  1  0.15062172  0.58973053  0.64589392  1  0  -0.12017  0  3.711144  0  0  -0.131044  0  3.957968  0  0  -0.138592  0  3.980379  0  0  -0.080971  -0.126259  0  3.943663  0
C  C43  1  0.84938264  0.41027046  0.35410486  1  0  -0.120342  0  3.711255  0  0  -0.131219  0  3.958065  0  0  -0.138771  0  3.980474  0  0  -0.081042  -0.126438  0  3.943768  0
C  C44  1  0.15009007  0.69315068  0.72469430  1  0  0.144439  0  3.674436  0  0  0.113648  0  3.923271  0  0  0.120234  0  3.94189  0  0  0.055511  0.109301  0  3.910797  0
C  C45  1  0.84990791  0.30685032  0.27530553  1  0  0.144456  0  3.674431  0  0  0.113691  0  3.923297  0  0  0.120287  0  3.941904  0  0  0.055534  0.10935  0  3.91082  0
C  C46  1  0.22588304  0.84745854  0.03032215  1  0  0.691152  0  3.848078  0  0  0.634814  0  4.140348  0  0  0.671426  0  4.129258  0  0  0.223221  0.610163  0  4.14722  0
C  C47  1  0.77411622  0.15254247  0.96967728  1  0  0.691211  0  3.848137  0  0  0.634895  0  4.140366  0  0  0.671506  0  4.129276  0  0  0.223238  0.610233  0  4.147251  0
C  C48  1  0.42468226  0.76877662  0.99883557  1  0  -0.045538  0  3.782851  0  0  -0.021325  0  4.021599  0  0  -0.026772  0  4.041308  0  0  -0.018243  -0.018384  0  4.009356  0
C  C49  1  0.57531878  0.23122332  0.00116153  1  0  -0.04554  0  3.782835  0  0  -0.021344  0  4.021596  0  0  -0.026785  0  4.041296  0  0  -0.018196  -0.018398  0  4.009351  0
C  C50  1  0.51819134  0.64356235  0.91356356  1  0  -0.184515  0  3.688451  0  0  -0.217867  0  3.940017  0  0  -0.220265  0  3.957039  0  0  -0.096473  -0.216127  0  3.928979  0
C  C51  1  0.48180761  0.35643651  0.08643614  1  0  -0.184441  0  3.688444  0  0  -0.217797  0  3.940004  0  0  -0.22019  0  3.957017  0  0  -0.096488  -0.216058  0  3.92897  0
C  C52  1  0.70002681  0.56235939  0.89378233  1  0  0.324654  0  3.839743  0  0  0.322674  0  4.102024  0  0  0.332451  0  4.118498  0  0  0.077277  0.315889  0  4.090483  0
C  C53  1  0.29997391  0.43763841  0.10621598  1  0  0.324553  0  3.839832  0  0  0.322578  0  4.102129  0  0  0.332356  0  4.118598  0  0  0.07722  0.31579  0  4.090591  0
C  C54  1  0.78557815  0.60700459  0.96127550  1  0  -0.222168  0  3.724984  0  0  -0.256778  0  3.976015  0  0  -0.260205  0  3.994434  0  0  -0.108349  -0.254054  0  3.962806  0
C  C55  1  0.21442049  0.39299212  0.03872635  1  0  -0.222073  0  3.724962  0  0  -0.256759  0  3.975949  0  0  -0.260176  0  3.99438  0  0  -0.108362  -0.254034  0  3.962741  0
C  C56  1  0.69421987  0.73543806  0.04163874  1  0  -0.043013  0  3.795268  0  0  -0.017562  0  4.030326  0  0  -0.02298  0  4.051321  0  0  -0.023655  -0.013697  0  4.01581  0
C  C57  1  0.30578023  0.26455544  0.95836385  1  0  -0.04305  0  3.795265  0  0  -0.017445  0  4.030174  0  0  -0.022861  0  4.051167  0  0  -0.02367  -0.013582  0  4.015659  0
C  C58  1  0.51465862  0.81747637  0.05861388  1  0  -0.11006  0  3.729096  0  0  -0.150967  0  3.983063  0  0  -0.150176  0  4.001066  0  0  -0.098207  -0.151986  0  3.972633  0
C  C59  1  0.48533984  0.18252355  0.94138777  1  0  -0.110066  0  3.729166  0  0  -0.151011  0  3.983114  0  0  -0.150226  0  4.001122  0  0  -0.09821  -0.152026  0  3.972673  0
C  C60  1  0.78557140  0.78217639  0.11515398  1  0  0.667571  0  3.88373  0  0  0.616791  0  4.175978  0  0  0.651652  0  4.166222  0  0  0.213303  0.593245  0  4.181586  0
C  C61  1  0.21442644  0.21781924  0.88484914  1  0  0.667384  0  3.883933  0  0  0.616521  0  4.176272  0  0  0.651384  0  4.166526  0  0  0.213166  0.592979  0  4.181867  0
N  N62  1  0.23936184  0.05316807  0.58514824  1  0  -0.362728  0  3.266425  0  0  -0.292374  0  3.537464  0  0  -0.310512  0  3.552525  0  0  -0.317639  -0.279656  0  3.526923  0
N  N63  1  0.76063724  0.94683615  0.41485098  1  0  -0.362779  0  3.266487  0  0  -0.292398  0  3.537508  0  0  -0.310542  0  3.552575  0  0  -0.317657  -0.279658  0  3.526952  0
N  N64  1  0.17364155  0.81481957  0.67375177  1  0  -0.355294  0  3.266938  0  0  -0.280764  0  3.530484  0  0  -0.299363  0  3.546076  0  0  -0.316947  -0.268448  0  3.520296  0
N  N65  1  0.82635545  0.18518357  0.32624912  1  0  -0.355294  0  3.267088  0  0  -0.280774  0  3.530623  0  0  -0.299378  0  3.546204  0  0  -0.316988  -0.268459  0  3.520436  0
O  O66  1  0.16179545  0.84286924  0.94275633  1  0  -0.654426  0  2.097218  0  0  -0.589432  0  2.372456  0  0  -0.615631  0  2.35647  0  0  -0.323388  -0.571428  0  2.382551  0
O  O67  1  0.83820144  0.15712855  0.05724410  1  0  -0.654446  0  2.097357  0  0  -0.589432  0  2.372525  0  0  -0.615629  0  2.356534  0  0  -0.323383  -0.571426  0  2.382628  0
O  O68  1  0.12891426  0.91194071  0.14925448  1  0  -0.629521  0  2.049098  0  0  -0.55518  0  2.318692  0  0  -0.582968  0  2.302387  0  0  -0.311682  -0.535804  0  2.329099  0
O  O69  1  0.87108627  0.08806029  0.85074362  1  0  -0.629566  0  2.049141  0  0  -0.555215  0  2.318717  0  0  -0.583001  0  2.302411  0  0  -0.311701  -0.535833  0  2.329125  0
O  O70  1  0.78746833  0.44104197  0.81008240  1  0  -0.53953  0  2.089256  0  0  -0.489538  0  2.300385  0  0  -0.508173  0  2.291897  0  0  -0.362346  -0.475759  0  2.306063  0
O  O71  1  0.21253447  0.55895690  0.18991329  1  0  -0.539644  0  2.089271  0  0  -0.489651  0  2.30039  0  0  -0.508287  0  2.291896  0  0  -0.362371  -0.475867  0  2.306064  0
O  O72  1  0.90721507  0.68685342  0.14651153  1  0  -0.649901  0  2.015645  0  0  -0.597726  0  2.250936  0  0  -0.621401  0  2.239862  0  0  -0.320431  -0.581259  0  2.258205  0
O  O73  1  0.09278648  0.31313686  0.85349088  1  0  -0.649771  0  2.015763  0  0  -0.597577  0  2.251075  0  0  -0.621251  0  2.239994  0  0  -0.32034  -0.58112  0  2.258355  0
O  O74  1  0.72646130  0.91717660  0.14487656  1  0  -0.641556  0  2.074128  0  0  -0.568296  0  2.346648  0  0  -0.597988  0  2.333761  0  0  -0.32048  -0.54753  0  2.35501  0
O  O75  1  0.27353641  0.08281367  0.85512985  1  0  -0.641422  0  2.074093  0  0  -0.568149  0  2.346636  0  0  -0.597818  0  2.333694  0  0  -0.320408  -0.547381  0  2.35499  0
