# generated using pymatgen
data_Zn2H13C17N7O6
_symmetry_space_group_name_H-M   'P 1'
_cell_length_a   7.25017452
_cell_length_b   10.08738914
_cell_length_c   14.56490449
_cell_angle_alpha   85.46322975
_cell_angle_beta   80.80125789
_cell_angle_gamma   89.41673325
_symmetry_Int_Tables_number   1
_chemical_formula_structural   Zn2H13C17N7O6
_chemical_formula_sum   'Zn4 H26 C34 N14 O12'
_cell_volume   1048.21238729
_cell_formula_units_Z   2
loop_
 _symmetry_equiv_pos_site_id
 _symmetry_equiv_pos_as_xyz
  1  'x, y, z'
loop_
 _atom_site_type_symbol
 _atom_site_label
 _atom_site_symmetry_multiplicity
 _atom_site_fract_x
 _atom_site_fract_y
 _atom_site_fract_z
 _atom_site_occupancy
 _atom_site_hle17_bader_spin_density
 _atom_site_hle17_ddec_charge
 _atom_site_hle17_ddec_spin_density
 _atom_site_hle17_ddec_sum_bond_order
 _atom_site_hle17_magmom
 _atom_site_hse06_10hf_bader_spin_density
 _atom_site_hse06_10hf_ddec_charge
 _atom_site_hse06_10hf_ddec_spin_density
 _atom_site_hse06_10hf_ddec_sum_bond_order
 _atom_site_hse06_10hf_magmom
 _atom_site_hse06_bader_spin_density
 _atom_site_hse06_ddec_charge
 _atom_site_hse06_ddec_spin_density
 _atom_site_hse06_ddec_sum_bond_order
 _atom_site_hse06_magmom
 _atom_site_pbe_bader_spin_density
 _atom_site_pbe_cm5_charge
 _atom_site_pbe_ddec_charge
 _atom_site_pbe_ddec_spin_density
 _atom_site_pbe_ddec_sum_bond_order
 _atom_site_pbe_magmom
Zn  Zn0  1  0.56377719  0.35620966  0.74831713  1  0  0.990162  0  1.853812  0  0  0.792669  0  2.321779  0  0  0.835054  0  2.273828  0  0  0.726149  0.761313  0  2.356724  0
Zn  Zn1  1  0.43622567  0.64379193  0.25168202  1  0  0.990215  0  1.853739  0  0  0.792702  0  2.321705  0  0  0.83509  0  2.273753  0  0  0.726179  0.761344  0  2.356647  0
Zn  Zn2  1  0.31735473  0.66855730  0.74273107  1  0  1.018477  0  1.912199  0  0  0.815923  0  2.426927  0  0  0.863026  0  2.366866  0  0  0.711977  0.78316  0  2.468144  0
Zn  Zn3  1  0.68264809  0.33144623  0.25726938  1  0  1.018388  0  1.912318  0  0  0.815837  0  2.42705  0  0  0.862953  0  2.366989  0  0  0.711952  0.78309  0  2.468263  0
H  H4  1  0.44043813  0.42153533  0.92692684  1  0  0.423252  0  0.823407  0  0  0.404373  0  0.882385  0  0  0.413137  0  0.871854  0  0  0.315326  0.397795  0  0.890562  0
H  H5  1  0.55956055  0.57846230  0.07307207  1  0  0.423251  0  0.8235  0  0  0.404371  0  0.882474  0  0  0.413134  0  0.871946  0  0  0.315335  0.397792  0  0.890652  0
H  H6  1  0.61984213  0.34123564  0.94812386  1  0  0.436269  0  0.863777  0  0  0.403714  0  0.929196  0  0  0.414767  0  0.913151  0  0  0.284688  0.395872  0  0.940534  0
H  H7  1  0.38015927  0.65876588  0.05187745  1  0  0.436288  0  0.863752  0  0  0.403738  0  0.929164  0  0  0.414791  0  0.913118  0  0  0.284714  0.395896  0  0.940503  0
H  H8  1  0.45760705  0.44283812  0.57735324  1  0  0.420283  0  0.832763  0  0  0.398996  0  0.896096  0  0  0.407983  0  0.884985  0  0  0.314675  0.392279  0  0.904638  0
H  H9  1  0.54239718  0.55716245  0.42264653  1  0  0.420292  0  0.832787  0  0  0.398984  0  0.896139  0  0  0.40797  0  0.885035  0  0  0.314694  0.392268  0  0.904676  0
H  H10  1  0.65831043  0.37633188  0.54432565  1  0  0.435675  0  0.868323  0  0  0.403777  0  0.932602  0  0  0.414828  0  0.91648  0  0  0.287604  0.395954  0  0.944027  0
H  H11  1  0.34169244  0.62366476  0.45567300  1  0  0.435654  0  0.868351  0  0  0.403755  0  0.93263  0  0  0.414806  0  0.916507  0  0  0.287583  0.395935  0  0.944049  0
H  H12  1  0.18244094  0.17440114  0.75918684  1  0  0.082721  0  0.939172  0  0  0.094613  0  1.000503  0  0  0.095933  0  0.999458  0  0  0.134133  0.093445  0  1.001468  0
H  H13  1  0.81756329  0.82559943  0.24081293  1  0  0.082775  0  0.939107  0  0  0.094654  0  1.000459  0  0  0.095986  0  0.9994  0  0  0.13415  0.093484  0  1.001423  0
H  H14  1  0.48767304  0.14558993  0.63010170  1  0  0.086562  0  0.944421  0  0  0.09623  0  1.004653  0  0  0.09881  0  1.002481  0  0  0.11947  0.094618  0  1.005918  0
H  H15  1  0.51232417  0.85440764  0.36989938  1  0  0.086557  0  0.944393  0  0  0.096211  0  1.004642  0  0  0.098791  0  1.00247  0  0  0.119461  0.094599  0  1.005905  0
H  H16  1  0.53491690  0.90024956  0.62601532  1  0  0.129304  0  0.956692  0  0  0.138997  0  1.012569  0  0  0.142668  0  1.011221  0  0  0.115311  0.136579  0  1.013358  0
H  H17  1  0.46508294  0.09975080  0.37399096  1  0  0.1293  0  0.956729  0  0  0.139019  0  1.012566  0  0  0.142666  0  1.011253  0  0  0.115289  0.136603  0  1.013356  0
H  H18  1  0.83165949  0.91546859  0.85992696  1  0  0.118543  0  0.962968  0  0  0.125746  0  1.025198  0  0  0.128024  0  1.026273  0  0  0.111381  0.124271  0  1.024523  0
H  H19  1  0.16834618  0.08453302  0.14007129  1  0  0.118537  0  0.962909  0  0  0.125741  0  1.025156  0  0  0.12802  0  1.026229  0  0  0.111387  0.124265  0  1.02448  0
H  H20  1  0.76234719  0.15858660  0.85770345  1  0  0.082715  0  0.963427  0  0  0.089882  0  1.029831  0  0  0.091475  0  1.029221  0  0  0.118203  0.089037  0  1.030074  0
H  H21  1  0.23765990  0.84141603  0.14229398  1  0  0.082596  0  0.963363  0  0  0.089798  0  1.029762  0  0  0.091392  0  1.029149  0  0  0.118088  0.088952  0  1.030006  0
H  H22  1  0.89917394  0.76701082  0.05059102  1  0  0.101973  0  0.947354  0  0  0.111979  0  1.006395  0  0  0.115311  0  1.004913  0  0  0.103256  0.109307  0  1.008056  0
H  H23  1  0.10081626  0.23299267  0.94941171  1  0  0.101928  0  0.947303  0  0  0.111946  0  1.006326  0  0  0.115274  0  1.004849  0  0  0.103275  0.10929  0  1.007969  0
H  H24  1  0.70749410  0.95706526  0.11262393  1  0  0.094869  0  0.957324  0  0  0.104462  0  1.020135  0  0  0.107219  0  1.019602  0  0  0.100083  0.102382  0  1.020761  0
H  H25  1  0.29249186  0.04293818  0.88738048  1  0  0.094909  0  0.957288  0  0  0.104396  0  1.020208  0  0  0.107203  0  1.019616  0  0  0.100061  0.102322  0  1.020837  0
H  H26  1  0.99288212  0.78872016  0.42266279  1  0  0.102404  0  0.952456  0  0  0.109633  0  1.016379  0  0  0.113386  0  1.014082  0  0  0.099903  0.10669  0  1.018573  0
H  H27  1  0.00711801  0.21127356  0.57733411  1  0  0.102545  0  0.952436  0  0  0.109695  0  1.01643  0  0  0.113483  0  1.014097  0  0  0.09993  0.106752  0  1.018623  0
H  H28  1  0.16224021  0.00440495  0.63747673  1  0  0.094599  0  0.957576  0  0  0.103957  0  1.021348  0  0  0.107315  0  1.019349  0  0  0.099512  0.101444  0  1.022963  0
H  H29  1  0.83775869  0.99559290  0.36251529  1  0  0.094576  0  0.957509  0  0  0.103911  0  1.02132  0  0  0.107284  0  1.019305  0  0  0.099487  0.101401  0  1.022939  0
C  C30  1  0.86601241  0.56215143  0.75254228  1  0  0.272477  0  3.825494  0  0  0.251626  0  4.084988  0  0  0.262581  0  4.099361  0  0  0.224246  0.24465  0  4.07467  0
C  C31  1  0.13399324  0.43784321  0.24745625  1  0  0.272668  0  3.825157  0  0  0.251675  0  4.084819  0  0  0.262617  0  4.099202  0  0  0.224198  0.244701  0  4.074499  0
C  C32  1  0.72537560  0.74507253  0.74449728  1  0  0.317075  0  3.756028  0  0  0.294136  0  4.019028  0  0  0.306366  0  4.033583  0  0  0.223386  0.285753  0  4.009655  0
C  C33  1  0.27462581  0.25492603  0.25550345  1  0  0.317004  0  3.75596  0  0  0.294069  0  4.018927  0  0  0.306303  0  4.033469  0  0  0.223402  0.285675  0  4.009574  0
C  C34  1  0.15070477  0.27982512  0.75819198  1  0  0.214469  0  3.730642  0  0  0.162393  0  4.009024  0  0  0.174359  0  4.023218  0  0  0.145623  0.154936  0  3.998799  0
C  C35  1  0.84930087  0.72017248  0.24180712  1  0  0.214406  0  3.730918  0  0  0.162325  0  4.009315  0  0  0.174281  0  4.023513  0  0  0.145596  0.154869  0  3.999083  0
C  C36  1  0.00987144  0.46310061  0.75628490  1  0  0.277709  0  3.816408  0  0  0.257455  0  4.074336  0  0  0.270039  0  4.087362  0  0  0.224398  0.248678  0  4.065945  0
C  C37  1  0.99013141  0.53689799  0.24371436  1  0  0.277521  0  3.816294  0  0  0.257297  0  4.074254  0  0  0.269902  0  4.087256  0  0  0.224375  0.248518  0  4.065866  0
C  C38  1  0.55889438  0.08929209  0.68097212  1  0  0.127679  0  3.687538  0  0  0.09557  0  3.940113  0  0  0.101946  0  3.95891  0  0  0.048959  0.09134  0  3.927201  0
C  C39  1  0.44110701  0.91070844  0.31902923  1  0  0.127697  0  3.687551  0  0  0.095574  0  3.94013  0  0  0.101952  0  3.958923  0  0  0.048966  0.091343  0  3.927219  0
C  C40  1  0.58845119  0.95350395  0.67830210  1  0  -0.125155  0  3.670809  0  0  -0.148888  0  3.922099  0  0  -0.155159  0  3.941451  0  0  -0.072094  -0.144754  0  3.909086  0
C  C41  1  0.41155291  0.04649649  0.32170181  1  0  -0.125309  0  3.670994  0  0  -0.149042  0  3.922232  0  0  -0.155299  0  3.941603  0  0  -0.07212  -0.144908  0  3.909221  0
C  C42  1  0.68666835  0.88776855  0.74355314  1  0  0.078523  0  3.744752  0  0  0.091139  0  3.978067  0  0  0.094793  0  3.997191  0  0  0.027858  0.088454  0  3.965775  0
C  C43  1  0.31333297  0.11223091  0.25645031  1  0  0.078716  0  3.744749  0  0  0.091332  0  3.978023  0  0  0.094993  0  3.997138  0  0  0.027955  0.088648  0  3.965737  0
C  C44  1  0.75281376  0.96250071  0.80869402  1  0  -0.127941  0  3.661792  0  0  -0.146176  0  3.903227  0  0  -0.153013  0  3.923848  0  0  -0.069752  -0.141879  0  3.889967  0
C  C45  1  0.24718761  0.03750177  0.19130794  1  0  -0.128  0  3.661816  0  0  -0.146239  0  3.903279  0  0  -0.153082  0  3.923903  0  0  -0.069839  -0.141939  0  3.890016  0
C  C46  1  0.71462798  0.09743357  0.80795979  1  0  0.137781  0  3.697991  0  0  0.104857  0  3.947743  0  0  0.111924  0  3.966199  0  0  0.051079  0.09978  0  3.935361  0
C  C47  1  0.28537486  0.90256998  0.19203997  1  0  0.137889  0  3.697902  0  0  0.104894  0  3.947704  0  0  0.111964  0  3.966164  0  0  0.051179  0.099818  0  3.935317  0
C  C48  1  0.21509504  0.77905999  0.92199670  1  0  0.666998  0  3.902396  0  0  0.615474  0  4.196305  0  0  0.649829  0  4.187554  0  0  0.211526  0.592158  0  4.20129  0
C  C49  1  0.78489655  0.22093952  0.07800608  1  0  0.666732  0  3.902194  0  0  0.615243  0  4.196089  0  0  0.649597  0  4.187338  0  0  0.211504  0.591927  0  4.201072  0
C  C50  1  0.10892999  0.89308892  0.96583523  1  0  -0.056266  0  3.74714  0  0  -0.033307  0  3.978835  0  0  -0.038405  0  3.999214  0  0  -0.015797  -0.029947  0  3.964848  0
C  C51  1  0.89105470  0.10691168  0.03416526  1  0  -0.056105  0  3.746995  0  0  -0.033186  0  3.978758  0  0  -0.038278  0  3.999116  0  0  -0.015834  -0.029818  0  3.964755  0
C  C52  1  0.94380142  0.86922477  0.02938881  1  0  -0.093068  0  3.755905  0  0  -0.115073  0  4.007548  0  0  -0.116276  0  4.026892  0  0  -0.08921  -0.113929  0  3.994231  0
C  C53  1  0.05618325  0.13078274  0.97061278  1  0  -0.093117  0  3.755826  0  0  -0.1151  0  4.00746  0  0  -0.116306  0  4.026822  0  0  -0.089276  -0.113972  0  3.994138  0
C  C54  1  0.83604346  0.97532604  0.06322314  1  0  -0.080055  0  3.74397  0  0  -0.101586  0  3.992409  0  0  -0.102254  0  4.011863  0  0  -0.086541  -0.100994  0  3.979039  0
C  C55  1  0.16393699  0.02468341  0.93678005  1  0  -0.080084  0  3.744063  0  0  -0.10155  0  3.992531  0  0  -0.102258  0  4.01197  0  0  -0.086526  -0.100967  0  3.979178  0
C  C56  1  0.18370294  0.76364471  0.56862711  1  0  0.662939  0  3.904668  0  0  0.608693  0  4.203458  0  0  0.642772  0  4.195511  0  0  0.211573  0.58565  0  4.207764  0
C  C57  1  0.81629718  0.23635990  0.43137074  1  0  0.662994  0  3.904608  0  0  0.60867  0  4.203502  0  0  0.64275  0  4.195552  0  0  0.211439  0.585625  0  4.20781  0
C  C58  1  0.08728551  0.88538194  0.53329391  1  0  -0.061259  0  3.744983  0  0  -0.038587  0  3.976896  0  0  -0.045831  0  4.001012  0  0  -0.018313  -0.033736  0  3.960339  0
C  C59  1  0.91271457  0.11461074  0.46670441  1  0  -0.061347  0  3.745008  0  0  -0.03865  0  3.976916  0  0  -0.045892  0  4.001048  0  0  -0.018228  -0.033795  0  3.960359  0
C  C60  1  0.99458803  0.88160577  0.45612069  1  0  -0.080159  0  3.744591  0  0  -0.101904  0  3.992954  0  0  -0.1034  0  4.014378  0  0  -0.088437  -0.10053  0  3.97823  0
C  C61  1  0.00541349  0.11838696  0.54387615  1  0  -0.080181  0  3.74466  0  0  -0.101849  0  3.992984  0  0  -0.103379  0  4.014389  0  0  -0.088449  -0.100477  0  3.978259  0
C  C62  1  0.09144158  0.00437322  0.57690464  1  0  -0.073785  0  3.738903  0  0  -0.096152  0  3.987183  0  0  -0.09749  0  4.008867  0  0  -0.088086  -0.095139  0  3.972308  0
C  C63  1  0.90856144  0.99561763  0.42308873  1  0  -0.073761  0  3.738802  0  0  -0.096125  0  3.987122  0  0  -0.097473  0  4.008785  0  0  -0.088124  -0.095122  0  3.972253  0
N  N64  1  0.59979303  0.65070978  0.73492903  1  0  -0.319003  0  3.181835  0  0  -0.256379  0  3.477139  0  0  -0.27188  0  3.487635  0  0  -0.245761  -0.245985  0  3.469922  0
N  N65  1  0.40020971  0.34928871  0.26507368  1  0  -0.319043  0  3.181777  0  0  -0.256434  0  3.477074  0  0  -0.271939  0  3.487568  0  0  -0.245804  -0.246039  0  3.469865  0
N  N66  1  0.69099345  0.53254301  0.74081038  1  0  -0.301672  0  3.247377  0  0  -0.233899  0  3.534731  0  0  -0.250066  0  3.547914  0  0  -0.249561  -0.221927  0  3.525362  0
N  N67  1  0.30901077  0.46745557  0.25918947  1  0  -0.30171  0  3.247224  0  0  -0.233869  0  3.534576  0  0  -0.250036  0  3.547765  0  0  -0.249499  -0.221895  0  3.525206  0
N  N68  1  0.89254457  0.69307806  0.75648871  1  0  -0.425465  0  2.925632  0  0  -0.396514  0  3.188303  0  0  -0.411352  0  3.19989  0  0  -0.32051  -0.386129  0  3.180408  0
N  N69  1  0.10745830  0.30691857  0.24350993  1  0  -0.425364  0  2.925593  0  0  -0.396365  0  3.188277  0  0  -0.411199  0  3.199865  0  0  -0.320429  -0.385976  0  3.180386  0
N  N70  1  0.18987559  0.49223840  0.75859306  1  0  -0.320003  0  3.210546  0  0  -0.254364  0  3.510926  0  0  -0.270571  0  3.520476  0  0  -0.253292  -0.243323  0  3.504575  0
N  N71  1  0.81012726  0.50776319  0.24140609  1  0  -0.319983  0  3.210569  0  0  -0.254314  0  3.510897  0  0  -0.270531  0  3.520446  0  0  -0.253267  -0.243275  0  3.504552  0
N  N72  1  0.28061296  0.37280824  0.76024020  1  0  -0.283821  0  3.236289  0  0  -0.212262  0  3.526612  0  0  -0.229033  0  3.542933  0  0  -0.259777  -0.20058  0  3.514993  0
N  N73  1  0.71939129  0.62719434  0.23975880  1  0  -0.283814  0  3.236437  0  0  -0.212252  0  3.526727  0  0  -0.229023  0  3.543055  0  0  -0.259803  -0.200569  0  3.515105  0
N  N74  1  0.97976415  0.33152932  0.75587929  1  0  -0.424992  0  2.988631  0  0  -0.389014  0  3.263881  0  0  -0.404608  0  3.274736  0  0  -0.330137  -0.378562  0  3.256987  0
N  N75  1  0.02024154  0.66846933  0.24411839  1  0  -0.424952  0  2.988655  0  0  -0.388976  0  3.263903  0  0  -0.404575  0  3.274754  0  0  -0.330145  -0.378524  0  3.25701  0
N  N76  1  0.61947823  0.16048451  0.74502693  1  0  -0.336213  0  3.334483  0  0  -0.24721  0  3.611415  0  0  -0.26669  0  3.627077  0  0  -0.335921  -0.233498  0  3.601227  0
N  N77  1  0.38052740  0.83951705  0.25497270  1  0  -0.336216  0  3.334459  0  0  -0.247164  0  3.611382  0  0  -0.266645  0  3.627046  0  0  -0.335906  -0.23345  0  3.601187  0
O  O78  1  0.26154176  0.80194341  0.83330695  1  0  -0.638574  0  2.10829  0  0  -0.567229  0  2.394666  0  0  -0.597049  0  2.380637  0  0  -0.326619  -0.546166  0  2.403451  0
O  O79  1  0.73844006  0.19805908  0.16669641  1  0  -0.638307  0  2.108095  0  0  -0.567021  0  2.394488  0  0  -0.59684  0  2.380459  0  0  -0.326494  -0.545964  0  2.403276  0
O  O80  1  0.24585934  0.67336213  0.96931258  1  0  -0.650288  0  1.915972  0  0  -0.600182  0  2.125049  0  0  -0.62271  0  2.111987  0  0  -0.338789  -0.58427  0  2.133878  0
O  O81  1  0.75413642  0.32663835  0.03069055  1  0  -0.650267  0  1.915958  0  0  -0.600156  0  2.125022  0  0  -0.622684  0  2.11196  0  0  -0.338828  -0.584246  0  2.133852  0
O  O82  1  0.28123810  0.78356505  0.63279593  1  0  -0.664485  0  2.155384  0  0  -0.588772  0  2.445887  0  0  -0.617342  0  2.428915  0  0  -0.334754  -0.568486  0  2.456542  0
O  O83  1  0.71877891  0.21643671  0.36719670  1  0  -0.664395  0  2.155609  0  0  -0.588627  0  2.446104  0  0  -0.617204  0  2.429145  0  0  -0.334567  -0.568346  0  2.456764  0
O  O84  1  0.16902080  0.65387482  0.53448588  1  0  -0.634142  0  1.924701  0  0  -0.583493  0  2.133922  0  0  -0.605408  0  2.121743  0  0  -0.335527  -0.568237  0  2.142351  0
O  O85  1  0.83097773  0.34612663  0.46551770  1  0  -0.634178  0  1.924614  0  0  -0.583502  0  2.133863  0  0  -0.605415  0  2.121685  0  0  -0.335519  -0.568247  0  2.142297  0
O  O86  1  0.52221460  0.34888407  0.90608175  1  0  -0.835923  0  1.839896  0  0  -0.781577  0  2.032026  0  0  -0.801371  0  2.003085  0  0  -0.577558  -0.767425  0  2.052736  0
O  O87  1  0.47778822  0.65111451  0.09391820  1  0  -0.835946  0  1.839968  0  0  -0.781601  0  2.032091  0  0  -0.801396  0  2.003152  0  0  -0.577592  -0.767452  0  2.052801  0
O  O88  1  0.54604029  0.37639645  0.59529424  1  0  -0.841286  0  1.87509  0  0  -0.783802  0  2.072802  0  0  -0.803721  0  2.042984  0  0  -0.573921  -0.770124  0  2.094318  0
O  O89  1  0.45396392  0.62360409  0.40470622  1  0  -0.841261  0  1.875139  0  0  -0.78374  0  2.072896  0  0  -0.803659  0  2.043078  0  0  -0.573907  -0.770061  0  2.094411  0
