# generated using pymatgen
data_Na3B5H2CO11
_symmetry_space_group_name_H-M   'P 1'
_cell_length_a   6.37038540
_cell_length_b   6.51140255
_cell_length_c   11.97686726
_cell_angle_alpha   90.00009281
_cell_angle_beta   90.00003730
_cell_angle_gamma   117.72572790
_symmetry_Int_Tables_number   1
_chemical_formula_structural   Na3B5H2CO11
_chemical_formula_sum   'Na6 B10 H4 C2 O22'
_cell_volume   439.76173700
_cell_formula_units_Z   2
loop_
 _symmetry_equiv_pos_site_id
 _symmetry_equiv_pos_as_xyz
  1  'x, y, z'
loop_
 _atom_site_type_symbol
 _atom_site_label
 _atom_site_symmetry_multiplicity
 _atom_site_fract_x
 _atom_site_fract_y
 _atom_site_fract_z
 _atom_site_occupancy
 _atom_site_hle17_bader_spin_density
 _atom_site_hle17_ddec_charge
 _atom_site_hle17_ddec_spin_density
 _atom_site_hle17_ddec_sum_bond_order
 _atom_site_hle17_magmom
 _atom_site_hse06_10hf_bader_spin_density
 _atom_site_hse06_10hf_ddec_charge
 _atom_site_hse06_10hf_ddec_spin_density
 _atom_site_hse06_10hf_ddec_sum_bond_order
 _atom_site_hse06_10hf_magmom
 _atom_site_hse06_bader_spin_density
 _atom_site_hse06_ddec_charge
 _atom_site_hse06_ddec_spin_density
 _atom_site_hse06_ddec_sum_bond_order
 _atom_site_hse06_magmom
 _atom_site_pbe_bader_spin_density
 _atom_site_pbe_cm5_charge
 _atom_site_pbe_ddec_charge
 _atom_site_pbe_ddec_spin_density
 _atom_site_pbe_ddec_sum_bond_order
 _atom_site_pbe_magmom
Na  Na0  1  0.92564605  0.32753124  0.95063370  1  0  0.916656  0  0.380006  0  0  0.875287  0  0.528825  0  0  0.884546  0  0.508883  0  0  0.81898  0.868578  0  0.542885  0
Na  Na1  1  0.07435306  0.67246868  0.45063401  1  0  0.916653  0  0.380007  0  0  0.87528  0  0.528839  0  0  0.884538  0  0.508892  0  0  0.818979  0.868571  0  0.542899  0
Na  Na2  1  0.42316866  0.85087813  0.93465972  1  0  0.923709  0  0.357306  0  0  0.884002  0  0.499784  0  0  0.893047  0  0.480563  0  0  0.78888  0.877141  0  0.513621  0
Na  Na3  1  0.57683197  0.14912172  0.43465890  1  0  0.923702  0  0.357297  0  0  0.883993  0  0.499775  0  0  0.893039  0  0.480553  0  0  0.788872  0.877134  0  0.513613  0
Na  Na4  1  0.80355775  0.91312037  0.17081065  1  0  0.938378  0  0.30113  0  0  0.89865  0  0.43283  0  0  0.909766  0  0.411933  0  0  0.756646  0.890071  0  0.448126  0
Na  Na5  1  0.19644124  0.08688001  0.67081071  1  0  0.938369  0  0.301134  0  0  0.898643  0  0.432831  0  0  0.909763  0  0.411935  0  0  0.756645  0.890069  0  0.448128  0
B  B6  1  0.31204290  0.49666379  0.12280785  1  0  1.219566  0  2.763788  0  0  1.055506  0  3.094502  0  0  1.087087  0  3.070058  0  0  0.018676  1.032982  0  3.112645  0
B  B7  1  0.68795593  0.50333637  0.62280761  1  0  1.219532  0  2.76386  0  0  1.055469  0  3.094594  0  0  1.087042  0  3.070171  0  0  0.018656  1.032948  0  3.11272  0
B  B8  1  0.92162872  0.41316137  0.20982900  1  0  1.19938  0  2.835738  0  0  1.045164  0  3.162205  0  0  1.086547  0  3.118451  0  0  0.087698  1.016077  0  3.192601  0
B  B9  1  0.07836958  0.58683746  0.70982946  1  0  1.199402  0  2.835687  0  0  1.045151  0  3.162256  0  0  1.086536  0  3.1185  0  0  0.08771  1.016065  0  3.192653  0
B  B10  1  0.49244336  0.24154092  0.17520794  1  0  1.25346  0  2.710915  0  0  1.089656  0  3.042238  0  0  1.121934  0  3.014949  0  0  0.076104  1.067108  0  3.061236  0
B  B11  1  0.50755565  0.75845948  0.67520787  1  0  1.253403  0  2.710975  0  0  1.089591  0  3.042299  0  0  1.121875  0  3.015009  0  0  0.076087  1.067044  0  3.061298  0
B  B12  1  0.22882353  0.81092099  0.19426155  1  0  1.188117  0  2.850917  0  0  1.028279  0  3.187053  0  0  1.070044  0  3.144652  0  0  0.089448  0.999137  0  3.21606  0
B  B13  1  0.77117555  0.18907950  0.69426106  1  0  1.18811  0  2.850931  0  0  1.028269  0  3.187068  0  0  1.070037  0  3.144663  0  0  0.089439  0.999129  0  3.216076  0
B  B14  1  0.45685106  0.32827521  0.97547234  1  0  1.166571  0  2.902954  0  0  1.018487  0  3.223321  0  0  1.058893  0  3.182672  0  0  0.059356  0.988803  0  3.254444  0
B  B15  1  0.54314657  0.67172481  0.47547197  1  0  1.166533  0  2.902937  0  0  1.018446  0  3.223306  0  0  1.058859  0  3.182653  0  0  0.059359  0.98876  0  3.254429  0
H  H16  1  0.49830334  0.40305723  0.80759542  1  0  0.436246  0  0.869259  0  0  0.40119  0  0.938542  0  0  0.413149  0  0.921303  0  0  0.324814  0.392945  0  0.95038  0
H  H17  1  0.50169769  0.59694378  0.30759581  1  0  0.43626  0  0.869231  0  0  0.401183  0  0.938543  0  0  0.413141  0  0.921306  0  0  0.324796  0.392938  0  0.95038  0
H  H18  1  0.90562395  0.82857382  0.83206785  1  0  -0.003656  0  0.982002  0  0  0.005939  0  1.055931  0  0  0.007627  0  1.049804  0  0  0.123029  0.004387  0  1.060548  0
H  H19  1  0.09437716  0.17142730  0.33206773  1  0  -0.00362  0  0.982002  0  0  0.005981  0  1.055921  0  0  0.007665  0  1.049799  0  0  0.123052  0.004425  0  1.06054  0
C  C20  1  0.91398056  0.82715598  0.92458454  1  0  0.596563  0  3.972362  0  0  0.533156  0  4.282672  0  0  0.564986  0  4.270707  0  0  0.144491  0.511797  0  4.289936  0
C  C21  1  0.08602004  0.17284382  0.42458441  1  0  0.596501  0  3.972407  0  0  0.533084  0  4.282735  0  0  0.564916  0  4.270769  0  0  0.144433  0.51173  0  4.289993  0
O  O22  1  0.49772573  0.28965911  0.86588524  1  0  -0.904756  0  1.967871  0  0  -0.832334  0  2.208733  0  0  -0.854098  0  2.175702  0  0  -0.394238  -0.816632  0  2.231205  0
O  O23  1  0.50227392  0.71034216  0.36588573  1  0  -0.904755  0  1.967844  0  0  -0.832319  0  2.208725  0  0  -0.854079  0  2.17569  0  0  -0.394243  -0.816614  0  2.231198  0
O  O24  1  0.53428506  0.22346111  0.05315015  1  0  -0.948093  0  2.113572  0  0  -0.842611  0  2.375878  0  0  -0.867416  0  2.351348  0  0  -0.246148  -0.824891  0  2.392288  0
O  O25  1  0.46571114  0.77653700  0.55315008  1  0  -0.948089  0  2.113588  0  0  -0.842583  0  2.375874  0  0  -0.867408  0  2.351355  0  0  -0.246118  -0.824857  0  2.392276  0
O  O26  1  0.05643099  0.34226893  0.14859411  1  0  -0.943987  0  2.144642  0  0  -0.839724  0  2.411979  0  0  -0.865755  0  2.38856  0  0  -0.260965  -0.821244  0  2.427682  0
O  O27  1  0.94356950  0.65773136  0.64859410  1  0  -0.943992  0  2.144629  0  0  -0.839734  0  2.411996  0  0  -0.865755  0  2.388556  0  0  -0.260964  -0.821253  0  2.427698  0
O  O28  1  0.01241666  0.64502959  0.24244515  1  0  -0.901281  0  2.10844  0  0  -0.79969  0  2.380084  0  0  -0.823415  0  2.348223  0  0  -0.213704  -0.78304  0  2.401882  0
O  O29  1  0.98758333  0.35496938  0.74244489  1  0  -0.901273  0  2.108433  0  0  -0.799679  0  2.380079  0  0  -0.823406  0  2.348218  0  0  -0.213694  -0.783032  0  2.401881  0
O  O30  1  0.69595436  0.25205590  0.23979583  1  0  -0.947217  0  2.072981  0  0  -0.852269  0  2.353014  0  0  -0.875235  0  2.325366  0  0  -0.266447  -0.835984  0  2.371728  0
O  O31  1  0.30404644  0.74794480  0.73979651  1  0  -0.947215  0  2.07294  0  0  -0.852265  0  2.352977  0  0  -0.87523  0  2.325327  0  0  -0.266463  -0.83598  0  2.371692  0
O  O32  1  0.37032244  0.74319785  0.13580635  1  0  -0.938868  0  2.166203  0  0  -0.833711  0  2.434705  0  0  -0.858561  0  2.410164  0  0  -0.267105  -0.816154  0  2.451254  0
O  O33  1  0.62967801  0.25680238  0.63580505  1  0  -0.938865  0  2.166252  0  0  -0.833698  0  2.43475  0  0  -0.858551  0  2.41021  0  0  -0.267088  -0.81614  0  2.4513  0
O  O34  1  0.46846283  0.45101276  0.19466805  1  0  -0.946308  0  2.109838  0  0  -0.828541  0  2.354673  0  0  -0.855581  0  2.337305  0  0  -0.227576  -0.809291  0  2.36608  0
O  O35  1  0.53153699  0.54898600  0.69466780  1  0  -0.94626  0  2.109851  0  0  -0.828497  0  2.354684  0  0  -0.855537  0  2.337315  0  0  -0.227575  -0.809247  0  2.366093  0
O  O36  1  0.34451761  0.45795459  0.00238903  1  0  -0.936835  0  2.090816  0  0  -0.831809  0  2.351253  0  0  -0.855936  0  2.326725  0  0  -0.276418  -0.814516  0  2.367825  0
O  O37  1  0.65548239  0.54204504  0.50238966  1  0  -0.936794  0  2.090798  0  0  -0.831779  0  2.351251  0  0  -0.855903  0  2.326718  0  0  -0.276416  -0.814506  0  2.367866  0
O  O38  1  0.27734644  0.03381947  0.21191107  1  0  -0.888012  0  2.120646  0  0  -0.784375  0  2.392498  0  0  -0.8101  0  2.3672  0  0  -0.19752  -0.766277  0  2.409516  0
O  O39  1  0.72265344  0.96617937  0.71190958  1  0  -0.887983  0  2.120624  0  0  -0.784336  0  2.39247  0  0  -0.810061  0  2.36717  0  0  -0.197505  -0.766238  0  2.409489  0
O  O40  1  0.82241364  0.93722650  0.97545597  1  0  -0.760599  0  2.007571  0  0  -0.718803  0  2.279884  0  0  -0.738945  0  2.262728  0  0  -0.508427  -0.704484  0  2.290974  0
O  O41  1  0.17758316  0.06277179  0.47545661  1  0  -0.760575  0  2.007578  0  0  -0.718773  0  2.279887  0  0  -0.738915  0  2.262729  0  0  -0.508388  -0.704453  0  2.290973  0
O  O42  1  0.00871494  0.71547060  0.97047947  1  0  -0.719049  0  1.993433  0  0  -0.671452  0  2.252025  0  0  -0.692589  0  2.237372  0  0  -0.429574  -0.656518  0  2.261364  0
O  O43  1  0.99128424  0.28452941  0.47047975  1  0  -0.719031  0  1.993394  0  0  -0.671426  0  2.251984  0  0  -0.692562  0  2.237328  0  0  -0.429574  -0.656491  0  2.26132  0
