# generated using pymatgen
data_Co3H18(C4O7)2
_symmetry_space_group_name_H-M   'P 1'
_cell_length_a   6.53329428
_cell_length_b   9.94473733
_cell_length_c   9.92478255
_cell_angle_alpha   59.42408770
_cell_angle_beta   72.18674316
_cell_angle_gamma   72.13109992
_symmetry_Int_Tables_number   1
_chemical_formula_structural   Co3H18(C4O7)2
_chemical_formula_sum   'Co3 H18 C8 O14'
_cell_volume   519.48270176
_cell_formula_units_Z   1
loop_
 _symmetry_equiv_pos_site_id
 _symmetry_equiv_pos_as_xyz
  1  'x, y, z'
loop_
 _atom_site_type_symbol
 _atom_site_label
 _atom_site_symmetry_multiplicity
 _atom_site_fract_x
 _atom_site_fract_y
 _atom_site_fract_z
 _atom_site_occupancy
 _atom_site_pbe_bader_charge
 _atom_site_pbe_bader_spin_density
 _atom_site_pbe_cm5_charge
 _atom_site_pbe_ddec_charge
 _atom_site_pbe_ddec_spin_density
 _atom_site_pbe_ddec_sum_bond_order
 _atom_site_pbe_magmom
Co  Co0  1  0.50000115  0.00000069  0.99999916  1  1.306542  2.62241  0.637548  1.101256  2.796901  2.330799  2.609
Co  Co1  1  0.99990241  0.87197031  0.12730689  1  1.251731  2.618203  0.598107  0.97471  2.809058  2.449845  2.603
Co  Co2  1  0.00009793  0.12803317  0.87269064  1  1.252689  2.618319  0.598124  0.974761  2.809077  2.449879  2.603
H  H3  1  0.29036353  0.06773574  0.42765713  1  0.051323  7.2e-05  0.099524  0.111141  -0.000153  0.977597  0.0
H  H4  1  0.70996940  0.57137117  0.93297297  1  0.050607  -7.2e-05  0.099112  0.110834  -0.00026  0.977151  0.0
H  H5  1  0.70964218  0.93227972  0.57232751  1  0.051426  7.2e-05  0.099517  0.111187  -0.000154  0.977602  0.0
H  H6  1  0.29002702  0.42862998  0.06702235  1  0.050592  -7.2e-05  0.09912  0.110817  -0.00026  0.977206  0.0
H  H7  1  0.37686855  0.86682510  0.55034973  1  0.036089  0.000771  0.104655  0.121315  0.000293  0.961986  0.0
H  H8  1  0.62220095  0.44957279  0.13412324  1  0.077422  0.000601  0.103945  0.120702  0.000234  0.963001  0.0
H  H9  1  0.62311559  0.13319018  0.44964881  1  0.035935  0.00077  0.104632  0.1213  0.000293  0.961958  0.0
H  H10  1  0.37780732  0.55042008  0.86587310  1  0.077539  0.000601  0.103949  0.120694  0.000234  0.962982  0.0
H  H11  1  0.89022076  0.89524733  0.89227345  1  0.611335  0.000239  0.315982  0.408948  0.000462  0.878499  0.001
H  H12  1  0.10978483  0.10474657  0.10773394  1  0.611312  0.000239  0.315975  0.408888  0.000463  0.878558  0.001
H  H13  1  0.27065448  0.81135332  0.31311090  1  0.633665  0.000124  0.29348  0.386213  -6.8e-05  0.950629  0.0
H  H14  1  0.73034875  0.68552029  0.18764396  1  0.637649  0.00018  0.292949  0.385296  0.000152  0.951596  0.0
H  H15  1  0.72934938  0.18863461  0.68690074  1  0.633663  0.000124  0.29345  0.386172  -6.8e-05  0.950685  0.0
H  H16  1  0.26964647  0.31447000  0.81236801  1  0.63796  0.00018  0.292966  0.385331  0.000152  0.951556  0.0
H  H17  1  0.03493382  0.78018056  0.40656541  1  0.593521  -0.000328  0.311492  0.388091  -0.0004  0.904602  0.0
H  H18  1  0.96678521  0.59306328  0.21843151  1  0.615612  -0.00032  0.310421  0.385591  -0.000395  0.907487  0.0
H  H19  1  0.96505504  0.21983596  0.59342868  1  0.593626  -0.000328  0.311465  0.388066  -0.0004  0.904676  0.0
H  H20  1  0.03322439  0.40694389  0.78155452  1  0.615694  -0.00032  0.310407  0.385561  -0.000395  0.907616  0.0
C  C21  1  0.56925220  0.95531276  0.31790761  1  1.583628  0.002112  0.224226  0.662338  -0.000324  4.090596  0.001
C  C22  1  0.43076292  0.68224625  0.04408397  1  1.583518  -0.000165  0.223558  0.661454  -0.002472  4.091285  0.0
C  C23  1  0.43075053  0.04468713  0.68209329  1  1.58374  0.00211  0.22421  0.662333  -0.000326  4.090606  0.001
C  C24  1  0.56923660  0.31774771  0.95591941  1  1.583335  -0.000167  0.223564  0.66146  -0.002474  4.091165  0.0
C  C25  1  0.43789809  0.97784744  0.46284903  1  -0.029989  0.009951  -0.164566  -0.270665  0.005472  3.95198  0.007
C  C26  1  0.56195237  0.53690745  0.02248845  1  -0.072653  0.010057  -0.164507  -0.270982  0.005485  3.952759  0.007
C  C27  1  0.56209910  0.02216198  0.53714611  1  -0.00011  0.009905  -0.164549  -0.270772  0.005472  3.952028  0.007
C  C28  1  0.43804667  0.46308890  0.97751180  1  -0.040953  0.01001  -0.164482  -0.270896  0.005485  3.952716  0.007
O  O29  1  0.77302017  0.95668268  0.28079432  1  -1.18266  0.061038  -0.31124  -0.576885  0.03082  2.337882  0.055
O  O30  1  0.22735327  0.72065179  0.04044246  1  -1.181865  0.059754  -0.313919  -0.579766  0.030069  2.336097  0.054
O  O31  1  0.22698378  0.04331839  0.71920680  1  -1.182928  0.061035  -0.311196  -0.576862  0.030818  2.337923  0.055
O  O32  1  0.77264450  0.27934213  0.95956324  1  -1.181904  0.059756  -0.313957  -0.579787  0.03007  2.336077  0.054
O  O33  1  0.46234581  0.93613594  0.24251672  1  -1.192756  0.051927  -0.317497  -0.602314  0.026082  2.385893  0.044
O  O34  1  0.53729984  0.75704202  0.06402879  1  -1.197452  0.051473  -0.316803  -0.601842  0.025965  2.384321  0.044
O  O35  1  0.53766303  0.06385922  0.75748444  1  -1.192702  0.051932  -0.317538  -0.602306  0.026085  2.385809  0.044
O  O36  1  0.46269777  0.24295312  0.93597433  1  -1.197203  0.051479  -0.316821  -0.601873  0.025969  2.384356  0.044
O  O37  1  0.83038533  0.95509950  0.95307411  1  -1.158991  0.209319  -0.569211  -0.92237  0.11206  2.51746  0.187
O  O38  1  0.16961737  0.04490757  0.04692023  1  -1.158994  0.209318  -0.569244  -0.92231  0.112058  2.517531  0.187
O  O39  1  0.15953119  0.74863367  0.33754051  1  -1.183622  0.056857  -0.569827  -0.722493  0.02965  2.058409  0.045
O  O40  1  0.84187357  0.66181974  0.25004654  1  -1.210651  0.056984  -0.568642  -0.719964  0.029809  2.060857  0.045
O  O41  1  0.84046081  0.25136255  0.66247010  1  -1.183712  0.056862  -0.569749  -0.722413  0.029653  2.058533  0.045
O  O42  1  0.15812909  0.33817421  0.74995730  1  -1.211008  0.056987  -0.568631  -0.719959  0.029811  2.060997  0.045
