# generated using pymatgen
data_Al6H67C84IO28
_symmetry_space_group_name_H-M   'P 1'
_cell_length_a   13.29040102
_cell_length_b   13.33871542
_cell_length_c   28.25521830
_cell_angle_alpha   89.74059857
_cell_angle_beta   90.09173929
_cell_angle_gamma   119.48572735
_symmetry_Int_Tables_number   1
_chemical_formula_structural   Al6H67C84IO28
_chemical_formula_sum   'Al6 H67 C84 I1 O28'
_cell_volume   4360.17742274
_cell_formula_units_Z   1
loop_
 _symmetry_equiv_pos_site_id
 _symmetry_equiv_pos_as_xyz
  1  'x, y, z'
loop_
 _atom_site_type_symbol
 _atom_site_label
 _atom_site_symmetry_multiplicity
 _atom_site_fract_x
 _atom_site_fract_y
 _atom_site_fract_z
 _atom_site_occupancy
 _atom_site_pbe_bader_charge
 _atom_site_pbe_bader_spin_density
 _atom_site_pbe_cm5_charge
 _atom_site_pbe_ddec_charge
 _atom_site_pbe_ddec_spin_density
 _atom_site_pbe_ddec_sum_bond_order
 _atom_site_pbe_magmom
Al  Al0  1  0.17677425  0.58924282  0.49869458  1  2.486567  0  0.396901  1.682691  0  2.555873  0
Al  Al1  1  0.93243183  0.35522529  0.49965421  1  2.480661  0  0.505007  1.657609  0  2.519351  0
Al  Al2  1  0.93005231  0.57855797  0.49863854  1  2.480566  0  0.507009  1.6587  0  2.513685  0
Al  Al3  1  0.15935739  0.08855517  0.99949767  1  2.491183  0  0.396929  1.683674  0  2.556961  0
Al  Al4  1  0.40248575  0.09001354  0.99986943  1  2.484268  0  0.507501  1.660206  0  2.510321  0
Al  Al5  1  0.40818496  0.31752986  0.00046179  1  2.475154  0  0.506162  1.660054  0  2.512741  0
H  H6  1  0.67677979  0.16043002  0.77832175  1  0.067577  0  0.106831  0.098064  0  0.982924  0
H  H7  1  0.12335113  0.98412234  0.69301126  1  0.002871  0  0.094961  0.093982  0  0.981612  0
H  H8  1  0.15563595  0.02878549  0.77366806  1  0.013604  0  0.093542  0.090994  0  0.993356  0
H  H9  1  0.30367207  0.07337254  0.76595529  1  0.024592  0  0.090456  0.084388  0  0.999777  0
H  H10  1  0.24529940  0.74100965  0.70988894  1  0.040781  0  0.093867  0.092895  0  0.986844  0
H  H11  1  0.34328724  0.88552416  0.69524796  1  0.014444  0  0.09495  0.092974  0  0.979017  0
H  H12  1  0.27798093  0.78604718  0.79051567  1  0.030672  0  0.094794  0.094856  0  0.977428  0
H  H13  1  0.03209739  0.67606856  0.72078633  1  0.037486  0  0.092259  0.089004  0  0.984927  0
H  H14  1  0.06330944  0.72064819  0.80143041  1  0.034016  0  0.094079  0.091122  0  0.981722  0
H  H15  1  0.37524427  0.93098854  0.77599998  1  0.024769  0  0.093242  0.0908  0  0.982421  0
H  H16  1  0.26024636  0.52420665  0.79616726  1  0.039928  0  0.095872  0.095502  0  0.977178  0
H  H17  1  0.52404572  0.15554496  0.70701694  1  0.067715  0  0.103642  0.093655  0  0.991493  0
H  H18  1  0.23244285  0.52945507  0.71445348  1  0.050946  0  0.095742  0.094505  0  0.980461  0
H  H19  1  0.25247515  0.26113367  0.69858029  1  -0.001838  0  0.094381  0.095199  0  0.979128  0
H  H20  1  0.33309473  0.41309715  0.69915277  1  0.040335  0  0.096306  0.096242  0  0.975213  0
H  H21  1  0.36240030  0.40906141  0.78085137  1  0.04469  0  0.095313  0.093119  0  0.980483  0
H  H22  1  0.28205850  0.25693790  0.78010325  1  0.046179  0  0.091386  0.083532  0  1.012376  0
H  H23  1  0.96534398  0.23955090  0.72207073  1  0.013889  0  0.091833  0.086992  0  0.992372  0
H  H24  1  0.03579624  0.15912931  0.71170893  1  0.043383  0  0.094259  0.09323  0  0.979358  0
H  H25  1  0.99455900  0.23330346  0.80373480  1  0.027112  0  0.096668  0.096887  0  0.972952  0
H  H26  1  0.08158943  0.45892835  0.72345243  1  0.034052  0  0.089938  0.082135  0  0.998993  0
H  H27  1  0.10917881  0.45211904  0.80508654  1  0.040686  0  0.09453  0.092733  0  0.978541  0
H  H28  1  0.85992954  0.35779878  0.73469987  1  0.084915  0  0.100248  0.087351  0  1.009411  0
H  H29  1  0.06588155  0.15387460  0.79334809  1  0.031643  0  0.095365  0.094581  0  0.984003  0
H  H30  1  0.59987131  0.45574533  0.21434142  1  0.017289  0  0.093704  0.093517  0  0.977375  0
H  H31  1  0.65402729  0.48625789  0.29433861  1  0.030993  0  0.095648  0.098687  0  0.970593  0
H  H32  1  0.53097889  0.16882163  0.30541423  1  0.044345  0  0.095989  0.095742  0  0.98176  0
H  H33  1  0.49801564  0.28192231  0.30194303  1  0.032248  0  0.093508  0.091882  0  0.985722  0
H  H34  1  0.45841029  0.23675317  0.22146003  1  0.056193  0  0.091361  0.084  0  1.020766  0
H  H35  1  0.51726573  0.14382641  0.22322617  1  0.018889  0  0.094123  0.090552  0  1.000205  0
H  H36  1  0.84672359  0.34860798  0.28148408  1  0.018018  0  0.078935  0.083081  0  1.051625  0
H  H37  1  0.72901030  0.20773106  0.28417553  1  0.048848  0  0.097556  0.09932  0  0.966762  0
H  H38  1  0.82252708  0.36585411  0.20067588  1  0.044946  0  0.091505  0.088102  0  0.993181  0
H  H39  1  0.80696816  0.50106182  0.79129430  1  0.079586  0  0.106702  0.098481  0  0.98387  0
H  H40  1  0.79615900  0.51918191  0.27987127  1  0.070517  0  0.076321  0.07107  0  1.063802  0
H  H41  1  0.74621998  0.50511725  0.20008288  1  0.047269  0  0.094538  0.094749  0  0.978184  0
H  H42  1  0.72644099  0.21555860  0.20115242  1  0.055797  0  0.097719  0.099839  0  0.971205  0
H  H43  1  0.26233715  0.75781145  0.20547691  1  0.045729  0  0.10252  0.113462  0  0.963642  0
H  H44  1  0.24660753  0.73407911  0.28754553  1  0.084939  0  0.106784  0.09922  0  0.961379  0
H  H45  1  0.26434173  0.01558588  0.30478719  1  0.058398  0  0.099875  0.10454  0  0.972683  0
H  H46  1  0.34331085  0.94126086  0.30245629  1  0.037403  0  0.09857  0.099249  0  0.974279  0
H  H47  1  0.36665932  0.97286099  0.22054147  1  0.032274  0  0.095647  0.093732  0  0.989053  0
H  H48  1  0.28951558  0.04892940  0.22307276  1  0.011528  0  0.09536  0.093237  0  1.005171  0
H  H49  1  0.97395075  0.75890536  0.28416552  1  0.056054  0  0.088857  0.092175  0  1.004627  0
H  H50  1  0.65410180  0.49604152  0.72001973  1  0.069701  0  0.106752  0.096823  0  0.982515  0
H  H51  1  0.04812374  0.90875794  0.29410427  1  0.024309  0  0.097053  0.100334  0  0.974196  0
H  H52  1  0.99794329  0.79063530  0.20243892  1  0.055237  0  0.09737  0.100428  0  0.971301  0
H  H53  1  0.11044240  0.68368987  0.19947906  1  0.067155  0  0.094407  0.102156  0  1.000755  0
H  H54  1  0.07068077  0.94062391  0.21200491  1  0.041517  0  0.095533  0.09536  0  0.983629  0
H  H55  1  0.01616496  0.19326692  0.20494779  1  0.022257  0  0.09543  0.095597  0  0.973831  0
H  H56  1  0.98860335  0.19448967  0.28700469  1  0.02048  0  0.094027  0.094542  0  0.972507  0
H  H57  1  0.29588288  0.27590765  0.30891490  1  0.022202  0  0.092838  0.09004  0  0.989922  0
H  H58  1  0.15396603  0.15928108  0.30199330  1  0.01872  0  0.092347  0.089433  0  0.988639  0
H  H59  1  0.18699081  0.15972602  0.22044486  1  0.058801  0  0.091835  0.086736  0  1.000141  0
H  H60  1  0.47114426  0.29873902  0.76360900  1  0.071837  0  0.10146  0.092551  0  1.021123  0
H  H61  1  0.32690151  0.27919833  0.22725608  1  0.011825  0  0.089733  0.083682  0  1.011883  0
H  H62  1  0.22010656  0.50827933  0.29196176  1  0.034195  0  0.079537  0.076607  0  1.046156  0
H  H63  1  0.33465689  0.47908956  0.30076723  1  0.031771  0  0.095164  0.097611  0  0.969508  0
H  H64  1  0.23855233  0.50360600  0.20991731  1  0.048518  0  0.091027  0.089901  0  0.986133  0
H  H65  1  0.01169569  0.33625121  0.28225658  1  0.038683  0  0.078411  0.073555  0  1.056505  0
H  H66  1  0.03987732  0.33550573  0.20099312  1  0.010777  0  0.092535  0.090541  0  0.986958  0
H  H67  1  0.35904296  0.48321972  0.21827512  1  0.045839  0  0.092895  0.091321  0  0.9803  0
H  H68  1  0.01431746  0.82109438  0.79444187  1  0.042369  0  0.098086  0.099104  0  0.972062  0
H  H69  1  0.98222860  0.77585683  0.71374062  1  0.039932  0  0.095343  0.093998  0  0.976899  0
H  H70  1  0.27140847  0.02919795  0.68534409  1  0.025271  0  0.093244  0.090013  0  0.985732  0
H  H71  1  0.36612362  0.67405289  0.52758145  1  0.571111  0  0.291903  0.381981  0  0.924369  0
H  H72  1  0.96985640  0.98657001  0.02832912  1  0.591456  0  0.292053  0.38329  0  0.922532  0
C  C73  1  0.09649949  0.39000416  0.56796505  1  1.648067  0  0.276798  0.723149  0  4.155903  0
C  C74  1  0.74200660  0.37204280  0.61052179  1  0.248411  0  -0.042788  -0.208098  0  3.964113  0
C  C75  1  0.55772318  0.31201768  0.75668830  1  -0.021054  0  -0.066325  -0.072505  0  3.613079  0
C  C76  1  0.64246657  0.31448821  0.79709930  1  0.137668  0  0.009862  0.11625  0  3.783423  0
C  C77  1  0.65902089  0.42147962  0.73332398  1  -0.013486  0  -0.067726  -0.076451  0  3.627812  0
C  C78  1  0.68853768  0.34224346  0.70123477  1  0.142662  0  0.009964  0.115279  0  3.782665  0
C  C79  1  0.74431494  0.42450751  0.77212683  1  -0.024557  0  -0.066256  -0.074647  0  3.621397  0
C  C80  1  0.77325495  0.34451666  0.74165665  1  -0.039671  0  -0.064879  -0.068246  0  3.617814  0
C  C81  1  0.61617231  0.30167056  0.84606282  1  -0.299044  0  -0.013997  -0.019619  0  4.052917  0
C  C82  1  0.71553697  0.35696795  0.65233992  1  -0.524325  0  -0.014717  -0.019468  0  4.056552  0
C  C83  1  0.05434699  0.76584876  0.72725860  1  -0.035015  0  -0.152722  -0.185061  0  3.851117  0
C  C84  1  0.79293016  0.39849255  0.56413152  1  1.635575  0  0.283601  0.722287  0  4.150677  0
C  C85  1  0.19453993  0.97238122  0.70641371  1  -0.009363  0  -0.152432  -0.189512  0  3.847898  0
C  C86  1  0.21577700  0.00178407  0.75982104  1  -0.005566  0  -0.1524  -0.184841  0  3.838656  0
C  C87  1  0.22702924  0.93923426  0.88087981  1  0.217277  0  -0.048192  -0.217715  0  3.979344  0
C  C88  1  0.16444326  0.84587300  0.69828583  1  0.166963  0  0.001305  0.169867  0  3.897338  0
C  C89  1  0.07524733  0.79531103  0.78044433  1  -0.03383  0  -0.152706  -0.18827  0  3.850952  0
C  C90  1  0.19999161  0.89540451  0.78844645  1  0.153191  0  0.000757  0.1692  0  3.900022  0
C  C91  1  0.28722295  0.85987898  0.76967288  1  -0.00818  0  -0.153319  -0.186637  0  3.854279  0
C  C92  1  0.26609392  0.83031966  0.71645185  1  -0.024058  0  -0.154094  -0.187125  0  3.846277  0
C  C93  1  0.21695635  0.92116063  0.83855815  1  -0.509769  0  -0.016437  -0.028418  0  4.024624  0
C  C94  1  0.14255602  0.81344090  0.64885407  1  -0.336743  0  -0.016403  -0.027323  0  4.021831  0
C  C95  1  0.09588413  0.71583202  0.56444956  1  1.640833  0  0.27514  0.720369  0  4.153255  0
C  C96  1  0.12181118  0.77671549  0.60866346  1  0.041653  0  -0.051048  -0.220679  0  3.977453  0
C  C97  1  0.16000444  0.45356940  0.73098200  1  -0.06532  0  -0.152035  -0.184057  0  3.846341  0
C  C98  1  0.26033159  0.33817758  0.71602358  1  0.007651  0  -0.152482  -0.18581  0  3.846165  0
C  C99  1  0.27976005  0.33536923  0.76986903  1  -0.073451  0  -0.153657  -0.191904  0  3.854979  0
C  C100  1  0.22026791  0.32556802  0.88949153  1  0.102457  0  -0.047957  -0.219626  0  3.975057  0
C  C101  1  0.14824123  0.34382961  0.70689479  1  0.165746  0  0.001009  0.166834  0  3.905054  0
C  C102  1  0.17854786  0.44980534  0.78486611  1  -0.038537  0  -0.152841  -0.187675  0  3.85288  0
C  C103  1  0.18080286  0.33810575  0.79788481  1  0.15359  0  0.001547  0.170189  0  3.901027  0
C  C104  1  0.06447085  0.23281315  0.78321455  1  -0.021368  0  -0.152474  -0.186855  0  3.84046  0
C  C105  1  0.04505056  0.23648056  0.72937360  1  -0.021782  0  -0.154218  -0.186721  0  3.853466  0
C  C106  1  0.10009322  0.38317707  0.43492038  1  1.658483  0  0.278442  0.717519  0  4.157588  0
C  C107  1  0.20131012  0.33368649  0.84799137  1  -0.374988  0  -0.013073  -0.020483  0  4.018723  0
C  C108  1  0.13120515  0.35081287  0.65663387  1  -0.326255  0  -0.016976  -0.026953  0  4.03184  0
C  C109  1  0.11776084  0.36243641  0.61484395  1  0.043891  0  -0.051393  -0.222164  0  3.983415  0
C  C110  1  0.70473591  0.45556893  0.27462807  1  -0.053445  0  -0.160013  -0.190971  0  3.845729  0
C  C111  1  0.55301951  0.24977041  0.28695223  1  -0.02353  0  -0.151413  -0.18496  0  3.836943  0
C  C112  1  0.53394993  0.23024731  0.23290180  1  -0.046971  0  -0.153044  -0.185297  0  3.83424  0
C  C113  1  0.59051002  0.29195800  0.11265551  1  -0.062214  0  -0.049484  -0.228967  0  3.956291  0
C  C114  1  0.68115777  0.33901487  0.29643099  1  0.159958  0  0.001999  0.166486  0  3.884664  0
C  C115  1  0.67336301  0.44169650  0.22143564  1  -0.025325  0  -0.152348  -0.184492  0  3.846247  0
C  C116  1  0.64162999  0.31925321  0.20483271  1  0.132397  0  0.001832  0.16493  0  3.892734  0
C  C117  1  0.79407402  0.39731912  0.43356644  1  1.631349  0  0.284679  0.731579  0  4.137094  0
C  C118  1  0.74301161  0.29741053  0.21691595  1  -0.05619  0  -0.152958  -0.186747  0  3.844297  0
C  C119  1  0.75586345  0.29516476  0.27119093  1  -0.030548  0  -0.153901  -0.182625  0  3.828904  0
C  C120  1  0.61572512  0.30522160  0.15447845  1  -0.189131  0  -0.003222  0.001714  0  3.97828  0
C  C121  1  0.70878773  0.35307099  0.34667616  1  -0.535586  0  -0.004168  0.000459  0  3.976771  0
C  C122  1  0.73914718  0.36962890  0.38792005  1  0.266555  0  -0.050658  -0.229333  0  3.95724  0
C  C123  1  0.17195377  0.73620798  0.27218349  1  -0.156564  0  -0.081193  -0.020689  0  3.631379  0
C  C124  1  0.27006143  0.94584877  0.28667850  1  -0.059246  0  -0.149416  -0.182295  0  3.828799  0
C  C125  1  0.28570027  0.96737947  0.23270575  1  0.023519  0  -0.154494  -0.191846  0  3.843405  0
C  C126  1  0.21575038  0.91190527  0.11312114  1  -0.109386  0  -0.046307  -0.21291  0  3.962885  0
C  C127  1  0.15705699  0.83133458  0.29719761  1  0.152482  0  -0.002153  0.147111  0  3.911238  0
C  C128  1  0.09791092  0.71574301  0.43314630  1  1.661051  0  0.279986  0.712568  0  4.158992  0
C  C129  1  0.18261307  0.75443385  0.21820447  1  -0.025235  0  -0.157766  -0.230254  0  3.863468  0
C  C130  1  0.18447001  0.86841066  0.20565198  1  0.13135  0  0.001254  0.176773  0  3.900151  0
C  C131  1  0.06951803  0.86035357  0.22198479  1  -0.05053  0  -0.153453  -0.187312  0  3.84175  0
C  C132  1  0.05385175  0.83910814  0.27594617  1  -0.04282  0  -0.158321  -0.191159  0  3.853825  0
C  C133  1  0.20092038  0.89012598  0.15516981  1  -0.153171  0  -0.016063  -0.023934  0  4.010041  0
C  C134  1  0.14199285  0.80735117  0.34758293  1  -0.597747  0  -0.025959  -0.040743  0  4.042554  0
C  C135  1  0.12532512  0.77704235  0.38874357  1  0.337759  0  -0.042753  -0.199811  0  3.965051  0
C  C136  1  0.04872772  0.28112654  0.27349591  1  -0.025891  0  -0.157069  -0.18473  0  3.842754  0
C  C137  1  0.21485762  0.24644533  0.28918554  1  0.005832  0  -0.153468  -0.188397  0  3.853351  0
C  C138  1  0.23510216  0.24697466  0.23518725  1  -0.053141  0  -0.152549  -0.182073  0  3.834839  0
C  C139  1  0.58668716  0.23212249  0.72620738  1  -0.030756  0  -0.066836  -0.075357  0  3.626035  0
C  C140  1  0.22797294  0.31174898  0.11665996  1  0.187233  0  -0.052468  -0.224553  0  3.981646  0
C  C141  1  0.16530637  0.32708092  0.30012458  1  0.144945  0  0.001183  0.169889  0  3.894337  0
C  C142  1  0.06706443  0.28025979  0.21960536  1  0.001759  0  -0.15371  -0.183086  0  3.843013  0
C  C143  1  0.19656530  0.32508450  0.20892429  1  0.16155  0  0.000632  0.168606  0  3.901396  0
C  C144  1  0.26787770  0.44929381  0.22792487  1  -0.077636  0  -0.155827  -0.186513  0  3.856728  0
C  C145  1  0.25241464  0.44978408  0.28202417  1  -0.013632  0  -0.157423  -0.186728  0  3.843483  0
C  C146  1  0.21419567  0.32031321  0.15863295  1  -0.494411  0  -0.015633  -0.023468  0  4.027175  0
C  C147  1  0.14542188  0.33314502  0.35016851  1  -0.426675  0  -0.014312  -0.018686  0  4.013399  0
C  C148  1  0.12653075  0.34803915  0.39083774  1  0.146605  0  -0.050857  -0.223912  0  3.979107  0
C  C149  1  0.24109689  0.97586335  0.92940947  1  1.663284  0  0.277745  0.717336  0  4.159819  0
C  C150  1  0.67194024  0.23507185  0.76506094  1  -0.018215  0  -0.06831  -0.080918  0  3.629858  0
C  C151  1  0.54211783  0.26785927  0.93474124  1  1.619085  0  0.282833  0.721622  0  4.151511  0
C  C152  1  0.24399238  0.29576100  0.93549334  1  1.668673  0  0.280651  0.717736  0  4.159275  0
C  C153  1  0.23701653  0.95875936  0.06584933  1  1.644086  0  0.278483  0.720536  0  4.154181  0
C  C154  1  0.54119512  0.26806105  0.06595770  1  1.641819  0  0.284555  0.731881  0  4.137714  0
C  C155  1  0.24567842  0.28417262  0.06939869  1  1.670586  0  0.275883  0.723138  0  4.154095  0
C  C156  1  0.59123862  0.29055566  0.88804749  1  0.028547  0  -0.041962  -0.205686  0  3.960908  0
I  I157  1  0.03074152  0.56529478  0.29016656  1  0.014861  0  0.110041  -0.043909  0  1.600732  0
O  O158  1  0.16789811  0.68749074  0.54962500  1  -1.222915  0  -0.21154  -0.564847  0  2.291948  0
O  O159  1  0.82131742  0.32563292  0.45148220  1  -1.245225  0  -0.226442  -0.587625  0  2.244002  0
O  O160  1  0.81655474  0.49370079  0.45196707  1  -1.247953  0  -0.227385  -0.589974  0  2.237279  0
O  O161  1  0.99926417  0.68989847  0.45160142  1  -1.2605  0  -0.241093  -0.603453  0  2.236437  0
O  O162  1  0.01124211  0.50684249  0.49922866  1  -1.609782  0  -0.390862  -1.273013  0  2.296912  0
O  O163  1  0.16887269  0.20083391  0.95274801  1  -1.22217  0  -0.20013  -0.538273  0  2.290585  0
O  O164  1  0.16766281  0.00030245  0.94583408  1  -1.213016  0  -0.202046  -0.539934  0  2.28621  0
O  O165  1  0.33004945  0.98424076  0.95154537  1  -1.261988  0  -0.246006  -0.613088  0  2.232818  0
O  O166  1  0.51916308  0.17184184  0.95405631  1  -1.241056  0  -0.227773  -0.588563  0  2.244818  0
O  O167  1  0.51977950  0.34260092  0.95268287  1  -1.232186  0  -0.225911  -0.58599  0  2.248486  0
O  O168  1  0.34255216  0.36623914  0.95421059  1  -1.263938  0  -0.2431  -0.607319  0  2.231554  0
O  O169  1  0.17062335  0.48549103  0.55055090  1  -1.225215  0  -0.213357  -0.57013  0  2.292155  0
O  O170  1  0.17064256  0.18773123  0.05340665  1  -1.224914  0  -0.211619  -0.566832  0  2.296707  0
O  O171  1  0.16389061  0.98283631  0.04857068  1  -1.217071  0  -0.210203  -0.564949  0  2.292498  0
O  O172  1  0.33213752  0.97708829  0.04604774  1  -1.249894  0  -0.242162  -0.602848  0  2.224236  0
O  O173  1  0.51460083  0.17026546  0.04800917  1  -1.250489  0  -0.227825  -0.589252  0  2.243629  0
O  O174  1  0.52232106  0.34432812  0.04665902  1  -1.248961  0  -0.228934  -0.591924  0  2.240723  0
O  O175  1  0.33898421  0.35828821  0.04812025  1  -1.262501  0  -0.245112  -0.610568  0  2.232692  0
O  O176  1  0.32545111  0.16609987  0.00025205  1  -1.610462  0  -0.391544  -1.273245  0  2.295265  0
O  O177  1  0.00055555  0.31608574  0.54856102  1  -1.258223  0  -0.242608  -0.604859  0  2.236441  0
O  O178  1  0.81521769  0.32471401  0.54510417  1  -1.23464  0  -0.227259  -0.586241  0  2.247621  0
O  O179  1  0.81718908  0.49611698  0.54615619  1  -1.241014  0  -0.226995  -0.586991  0  2.243238  0
O  O180  1  0.99880916  0.69151931  0.54468509  1  -1.245917  0  -0.244571  -0.608315  0  2.231838  0
O  O181  1  0.16982663  0.68811678  0.44879093  1  -1.207824  0  -0.198257  -0.53145  0  2.282476  0
O  O182  1  0.16964363  0.48357915  0.44901760  1  -1.217589  0  -0.202846  -0.543716  0  2.285841  0
O  O183  1  0.00449677  0.31038119  0.45530760  1  -1.256858  0  -0.244492  -0.609984  0  2.234113  0
O  O184  1  0.32812632  0.66517571  0.49746217  1  -1.353386  0  -0.57734  -0.992991  0  1.79629  0
O  O185  1  0.00809882  0.01620338  0.99832674  1  -1.377432  0  -0.577889  -0.995627  0  1.791953  0
