# generated using pymatgen
data_SrH2(CO2)2
_symmetry_space_group_name_H-M   'P 1'
_cell_length_a   6.79858197
_cell_length_b   7.27583675
_cell_length_c   8.90370530
_cell_angle_alpha   89.99992630
_cell_angle_beta   89.99982747
_cell_angle_gamma   89.99953748
_symmetry_Int_Tables_number   1
_chemical_formula_structural   SrH2(CO2)2
_chemical_formula_sum   'Sr4 H8 C8 O16'
_cell_volume   440.42509990
_cell_formula_units_Z   4
loop_
 _symmetry_equiv_pos_site_id
 _symmetry_equiv_pos_as_xyz
  1  'x, y, z'
loop_
 _atom_site_type_symbol
 _atom_site_label
 _atom_site_symmetry_multiplicity
 _atom_site_fract_x
 _atom_site_fract_y
 _atom_site_fract_z
 _atom_site_occupancy
 _atom_site_pbe_bader_spin_density
 _atom_site_pbe_cm5_charge
 _atom_site_pbe_ddec_charge
 _atom_site_pbe_ddec_spin_density
 _atom_site_pbe_ddec_sum_bond_order
 _atom_site_pbe_magmom
Sr  Sr0  1  0.99712240  0.74161993  0.83581234  1  0  0.973341  1.423664  0  1.545134  0
Sr  Sr1  1  0.50288110  0.25837898  0.33581005  1  0  0.973352  1.423738  0  1.545077  0
Sr  Sr2  1  0.00287777  0.24162100  0.66418744  1  0  0.973341  1.423643  0  1.545175  0
Sr  Sr3  1  0.49711930  0.75838215  0.16418694  1  0  0.973331  1.423687  0  1.545105  0
H  H4  1  0.95902104  0.49483260  0.21653772  1  0  0.12903  0.028928  0  1.014726  0
H  H5  1  0.54096231  0.50515418  0.71654129  1  0  0.129053  0.028916  0  1.014791  0
H  H6  1  0.04097003  0.99482258  0.28347483  1  0  0.129069  0.028952  0  1.014858  0
H  H7  1  0.45903248  0.00516932  0.78347663  1  0  0.12905  0.028934  0  1.014892  0
H  H8  1  0.29098770  0.69779987  0.50894369  1  0  0.123653  0.007923  0  1.028879  0
H  H9  1  0.20901583  0.30219810  0.00895995  1  0  0.123641  0.007883  0  1.028818  0
H  H10  1  0.70902754  0.19780577  0.99104714  1  0  0.123637  0.0079  0  1.02883  0
H  H11  1  0.79097685  0.80219968  0.49104150  1  0  0.123682  0.007963  0  1.028786  0
C  C12  1  0.10586497  0.55604952  0.19763312  1  0  0.164045  0.511146  0  4.224446  0
C  C13  1  0.39412904  0.44394256  0.69763813  1  0  0.164066  0.51122  0  4.224502  0
C  C14  1  0.89414302  0.05605025  0.30236290  1  0  0.163991  0.511059  0  4.224751  0
C  C15  1  0.60586208  0.94395010  0.80236712  1  0  0.164047  0.511097  0  4.224576  0
C  C16  1  0.27315688  0.84926706  0.50858088  1  0  0.172256  0.521617  0  4.233123  0
C  C17  1  0.22683489  0.15072954  0.00858486  1  0  0.172207  0.521678  0  4.233385  0
C  C18  1  0.72683797  0.34927832  0.99140759  1  0  0.172291  0.521697  0  4.233261  0
C  C19  1  0.77317230  0.65074089  0.49140660  1  0  0.172155  0.521635  0  4.233009  0
O  O20  1  0.16172875  0.91812270  0.60772960  1  0  -0.380031  -0.621561  0  2.339648  0
O  O21  1  0.33828029  0.08187369  0.10772325  1  0  -0.380043  -0.621634  0  2.339623  0
O  O22  1  0.83827287  0.41813604  0.89227454  1  0  -0.380024  -0.621586  0  2.339836  0
O  O23  1  0.66171718  0.58186824  0.39226938  1  0  -0.380067  -0.621696  0  2.339466  0
O  O24  1  0.36446398  0.93635507  0.40638059  1  0  -0.385177  -0.620493  0  2.30148  0
O  O25  1  0.13555720  0.06366132  0.90638875  1  0  -0.385062  -0.620449  0  2.301832  0
O  O26  1  0.63553935  0.43634587  0.09361515  1  0  -0.385199  -0.620541  0  2.301542  0
O  O27  1  0.86443416  0.56365079  0.59361228  1  0  -0.385054  -0.620418  0  2.301694  0
O  O28  1  0.12238571  0.68261644  0.09976706  1  0  -0.398349  -0.623146  0  2.27841  0
O  O29  1  0.37761748  0.31737309  0.59976433  1  0  -0.398417  -0.623265  0  2.278276  0
O  O30  1  0.87761680  0.18261572  0.40023336  1  0  -0.398356  -0.623139  0  2.278375  0
O  O31  1  0.62238646  0.81738030  0.90023876  1  0  -0.398405  -0.623192  0  2.278339  0
O  O32  1  0.24876692  0.49869465  0.27651024  1  0  -0.398772  -0.628084  0  2.308735  0
O  O33  1  0.25122532  0.50130139  0.77649646  1  0  -0.398764  -0.628047  0  2.30905  0
O  O34  1  0.75123736  0.99869573  0.22350118  1  0  -0.398757  -0.628041  0  2.308969  0
O  O35  1  0.74876950  0.00131166  0.72350462  1  0  -0.398761  -0.627986  0  2.308866  0
