# generated using pymatgen
data_Ho2Cu3H38C42(N3O17)2
_symmetry_space_group_name_H-M   'P 1'
_cell_length_a   11.39093556
_cell_length_b   13.11114382
_cell_length_c   18.95925343
_cell_angle_alpha   89.99948434
_cell_angle_beta   91.99473456
_cell_angle_gamma   90.00003200
_symmetry_Int_Tables_number   1
_chemical_formula_structural   Ho2Cu3H38C42(N3O17)2
_chemical_formula_sum   'Ho4 Cu6 H76 C84 N12 O68'
_cell_volume   2829.81444402
_cell_formula_units_Z   2
loop_
 _symmetry_equiv_pos_site_id
 _symmetry_equiv_pos_as_xyz
  1  'x, y, z'
loop_
 _atom_site_type_symbol
 _atom_site_label
 _atom_site_symmetry_multiplicity
 _atom_site_fract_x
 _atom_site_fract_y
 _atom_site_fract_z
 _atom_site_occupancy
 _atom_site_pbe_bader_charge
 _atom_site_pbe_bader_spin_density
 _atom_site_pbe_cm5_charge
 _atom_site_pbe_ddec_charge
 _atom_site_pbe_ddec_spin_density
 _atom_site_pbe_ddec_sum_bond_order
 _atom_site_pbe_magmom
Ho  Ho0  1  0.86364676  0.93495585  0.14609820  1  2.204027  0.000193  1.517174  2.158903  0.000141  2.085235  0.0
Ho  Ho1  1  0.63636056  0.43497440  0.35390512  1  2.204245  0.000193  1.51715  2.159182  0.000141  2.084904  0.0
Ho  Ho2  1  0.13635428  0.06503607  0.85390615  1  2.204161  0.000193  1.51718  2.159052  0.000141  2.085011  0.0
Ho  Ho3  1  0.36364751  0.56505336  0.64609953  1  2.204026  0.000193  1.517267  2.159156  0.000141  2.084859  0.0
Cu  Cu4  1  0.15544045  0.59329244  0.32741925  1  1.096329  0.587032  0.759026  0.802507  0.742738  2.241087  0.585
Cu  Cu5  1  0.34456240  0.09329060  0.17257347  1  1.096457  0.587036  0.75905  0.802598  0.74273  2.241089  0.585
Cu  Cu6  1  0.84456082  0.40670558  0.67256716  1  1.0964  0.587049  0.759007  0.802613  0.742725  2.241039  0.585
Cu  Cu7  1  0.65543809  0.90670666  0.82742558  1  1.096397  0.587041  0.758997  0.802474  0.742733  2.241189  0.585
Cu  Cu8  1  0.99999561  0.00000158  0.49999605  1  1.080703  0.579173  0.758007  0.764259  0.740123  2.31731  0.577
Cu  Cu9  1  0.49999620  0.50000152  0.00000297  1  1.080707  0.57917  0.758036  0.764298  0.740119  2.317235  0.577
H  H10  1  0.80412147  0.79254721  0.26082113  1  0.669  -5.3e-05  0.300675  0.403322  -8.5e-05  0.931592  0.0
H  H11  1  0.69588032  0.29255205  0.23918653  1  0.669324  -5.3e-05  0.300682  0.403281  -8.5e-05  0.931606  0.0
H  H12  1  0.19587687  0.20744699  0.73918415  1  0.669273  -5.3e-05  0.30072  0.403326  -8.5e-05  0.931552  0.0
H  H13  1  0.30412228  0.70745207  0.76082105  1  0.669003  -5.3e-05  0.300654  0.403281  -8.5e-05  0.931635  0.0
H  H14  1  0.80602325  0.74607275  0.18335022  1  0.630522  -4e-06  0.313338  0.398923  -1.1e-05  0.91157  0.0
H  H15  1  0.69398020  0.24608496  0.31665938  1  0.630607  -4e-06  0.313375  0.398959  -1.1e-05  0.911503  0.0
H  H16  1  0.19397945  0.25391917  0.81665578  1  0.630656  -4e-06  0.31336  0.39888  -1.1e-05  0.911611  0.0
H  H17  1  0.30601535  0.75392602  0.68334842  1  0.630565  -4e-06  0.313341  0.398904  -1.1e-05  0.911589  0.0
H  H18  1  0.98775696  0.74643948  0.09540942  1  0.652418  2e-05  0.291633  0.411985  3.3e-05  0.922288  0.0
H  H19  1  0.51224973  0.24644434  0.40459029  1  0.652492  2e-05  0.291532  0.411907  3.3e-05  0.922415  0.0
H  H20  1  0.01224265  0.25355778  0.90458959  1  0.652386  2e-05  0.291614  0.411955  3.3e-05  0.922331  0.0
H  H21  1  0.48775518  0.75355826  0.59540842  1  0.652443  2e-05  0.291595  0.411913  3.3e-05  0.922371  0.0
H  H22  1  0.85372211  0.74051188  0.06215552  1  0.665988  2e-05  0.298237  0.41488  -2e-06  0.919018  0.0
H  H23  1  0.64628179  0.24052171  0.43784674  1  0.666  2e-05  0.2983  0.414903  -2e-06  0.918988  0.0
H  H24  1  0.14627474  0.25948386  0.93784547  1  0.665993  2e-05  0.298235  0.414794  -2e-06  0.919132  0.0
H  H25  1  0.35372039  0.75949080  0.56215343  1  0.665925  2e-05  0.298252  0.414931  -2e-06  0.918934  0.0
H  H26  1  0.81018399  0.97235738  0.99645490  1  0.652277  1.7e-05  0.29174  0.397623  5.6e-05  0.94477  0.0
H  H27  1  0.68984985  0.47242479  0.50354210  1  0.65407  1.7e-05  0.291734  0.397811  5.6e-05  0.944473  0.0
H  H28  1  0.18982508  0.02762920  0.00354768  1  0.65242  1.7e-05  0.291761  0.3977  5.6e-05  0.944637  0.0
H  H29  1  0.31020051  0.52769679  0.49644748  1  0.652458  1.7e-05  0.29172  0.397489  5.6e-05  0.945013  0.0
H  H30  1  0.92713831  0.04543639  0.00292094  1  0.603539  1.7e-05  0.324404  0.421355  8e-06  0.87706  0.0
H  H31  1  0.57269529  0.54529563  0.49710318  1  0.604034  1.7e-05  0.324362  0.421287  8e-06  0.877123  0.0
H  H32  1  0.07282375  0.95459824  0.99708753  1  0.603202  1.7e-05  0.324408  0.421436  8e-06  0.876941  0.0
H  H33  1  0.42700546  0.45446061  0.50293259  1  0.602104  1.7e-05  0.324472  0.421018  8e-06  0.877461  0.0
H  H34  1  0.64760180  0.08026737  0.17839664  1  0.675696  0.000561  0.303209  0.413252  0.000673  0.915615  0.0
H  H35  1  0.85240095  0.58027550  0.32159602  1  0.675645  0.000561  0.303162  0.413144  0.000673  0.915754  0.0
H  H36  1  0.35239859  0.91972760  0.82160399  1  0.675607  0.00056  0.303204  0.413228  0.000673  0.915633  0.0
H  H37  1  0.14759989  0.41972863  0.67839723  1  0.675606  0.000561  0.3032  0.413231  0.000673  0.915629  0.0
H  H38  1  0.75625638  0.07269103  0.23456949  1  0.611569  -1.4e-05  0.333345  0.424657  -1.2e-05  0.865175  0.0
H  H39  1  0.74374638  0.57270212  0.26542322  1  0.611727  -1.4e-05  0.333388  0.424799  -1.2e-05  0.865013  0.0
H  H40  1  0.24374311  0.92730775  0.76543163  1  0.611561  -1.4e-05  0.333328  0.424603  -1.2e-05  0.865252  0.0
H  H41  1  0.25625440  0.42731420  0.73457109  1  0.611551  -1.4e-05  0.33334  0.424595  -1.2e-05  0.865245  0.0
H  H42  1  0.03779390  0.09959138  0.15499887  1  0.628868  0.000437  0.296254  0.38831  0.000559  0.953693  0.0
H  H43  1  0.46221285  0.59959163  0.34498765  1  0.628421  0.000437  0.296293  0.388351  0.000559  0.953643  0.0
H  H44  1  0.96220926  0.90040359  0.84499977  1  0.62893  0.000437  0.296224  0.388205  0.000559  0.953833  0.0
H  H45  1  0.53778217  0.40040029  0.65498582  1  0.62904  0.000437  0.296229  0.388198  0.000559  0.953839  0.0
H  H46  1  0.93049373  0.16223017  0.11940020  1  0.606851  1.7e-05  0.336439  0.423913  1.5e-05  0.854853  0.0
H  H47  1  0.56950083  0.66217330  0.38063962  1  0.606991  1.7e-05  0.336358  0.42368  1.5e-05  0.855145  0.0
H  H48  1  0.06950676  0.83778005  0.88061309  1  0.607124  1.7e-05  0.336431  0.423827  1.5e-05  0.854953  0.0
H  H49  1  0.43046926  0.33772251  0.61942462  1  0.606931  1.7e-05  0.336437  0.423794  1.5e-05  0.854978  0.0
H  H50  1  0.39096916  0.65250183  0.18733226  1  0.088401  3.6e-05  0.111368  0.115403  -4e-06  1.017737  0.0
H  H51  1  0.10903211  0.15250108  0.31267164  1  0.088394  3.6e-05  0.111386  0.11539  -4e-06  1.017714  0.0
H  H52  1  0.60903117  0.34749848  0.81266942  1  0.088398  3.6e-05  0.111373  0.115389  -4e-06  1.017722  0.0
H  H53  1  0.89096832  0.84749542  0.68732846  1  0.088474  3.6e-05  0.111405  0.115428  -4e-06  1.017728  0.0
H  H54  1  0.57011770  0.75989361  0.20613699  1  0.1575  0.000937  0.115549  0.134286  0.000507  1.004663  0.001
H  H55  1  0.92988262  0.25989633  0.29386606  1  0.157532  0.000937  0.115578  0.134319  0.000507  1.004649  0.001
H  H56  1  0.42988246  0.24010441  0.79386732  1  0.15765  0.000937  0.115561  0.134297  0.000507  1.004674  0.001
H  H57  1  0.07011556  0.74010017  0.70612761  1  0.157598  0.000937  0.115616  0.13436  0.000507  1.004602  0.001
H  H58  1  0.54984581  0.94875816  0.20203979  1  0.163501  0.002225  0.12816  0.104894  0.001015  1.018993  0.002
H  H59  1  0.95015459  0.44875931  0.29796156  1  0.163569  0.002225  0.12817  0.104934  0.001016  1.018942  0.002
H  H60  1  0.45015543  0.05124215  0.79796140  1  0.163583  0.002225  0.128159  0.104929  0.001016  1.018952  0.002
H  H61  1  0.04984476  0.55123795  0.70202740  1  0.163805  0.002224  0.12818  0.105  0.001016  1.018985  0.002
H  H62  1  0.20121563  0.03199812  0.33601864  1  0.083063  1.5e-05  0.112396  0.114591  -3.3e-05  1.023953  0.0
H  H63  1  0.29879227  0.53199760  0.16397785  1  0.083098  1.5e-05  0.112382  0.114546  -3.3e-05  1.023964  0.0
H  H64  1  0.79879282  0.96799762  0.66397969  1  0.083013  1.5e-05  0.112392  0.11457  -3.3e-05  1.023925  0.0
H  H65  1  0.70120909  0.46799966  0.83602123  1  0.083028  1.5e-05  0.112392  0.114559  -3.3e-05  1.023917  0.0
H  H66  1  0.38061207  0.92950327  0.35413858  1  0.131039  0.001185  0.124033  0.135719  0.000627  0.95629  0.001
H  H67  1  0.11939566  0.42950318  0.14585966  1  0.131133  0.001185  0.123998  0.135666  0.000627  0.956398  0.001
H  H68  1  0.61939898  0.07049247  0.64586039  1  0.131034  0.001185  0.124018  0.135708  0.000626  0.956363  0.001
H  H69  1  0.88060392  0.57049332  0.85413987  1  0.131047  0.001185  0.124004  0.135693  0.000627  0.956318  0.001
H  H70  1  0.36256515  0.73705018  0.35440395  1  0.113424  0.002486  0.121322  0.086627  0.001124  1.007169  0.002
H  H71  1  0.13744273  0.23704934  0.14559232  1  0.112317  0.002486  0.121324  0.086559  0.001124  1.007249  0.002
H  H72  1  0.63744450  0.26294708  0.64558916  1  0.112123  0.002486  0.12132  0.086551  0.001124  1.007213  0.002
H  H73  1  0.86255844  0.76294792  0.85440992  1  0.11213  0.002485  0.121319  0.086568  0.001124  1.007174  0.002
H  H74  1  0.07568355  0.43599085  0.48504986  1  0.077729  -5.3e-05  0.107914  0.114544  -5.6e-05  1.023585  0.0
H  H75  1  0.42432171  0.93599082  0.01494559  1  0.077606  -5.3e-05  0.107912  0.114511  -5.6e-05  1.023677  0.0
H  H76  1  0.92431974  0.56401175  0.51494667  1  0.077631  -5.3e-05  0.107904  0.114514  -5.6e-05  1.023544  0.0
H  H77  1  0.57568056  0.06401254  0.98505300  1  0.077684  -5.3e-05  0.10794  0.114595  -5.6e-05  1.023562  0.0
H  H78  1  0.25106386  0.32194357  0.49526632  1  0.093567  0.000962  0.109209  0.111087  0.000496  1.016017  0.0
H  H79  1  0.24893894  0.82195349  0.00472656  1  0.093775  0.000962  0.109218  0.11115  0.000496  1.015905  0.0
H  H80  1  0.74893737  0.67804454  0.50472062  1  0.093817  0.000962  0.10924  0.111218  0.000496  1.015851  0.0
H  H81  1  0.75105963  0.17805444  0.99527504  1  0.093793  0.000962  0.109244  0.111167  0.000496  1.015875  0.0
H  H82  1  0.22085076  0.13269000  0.50330664  1  0.144026  0.002089  0.1319  0.118083  0.000939  0.966081  0.002
H  H83  1  0.27914766  0.63269351  0.99669636  1  0.144036  0.002089  0.131893  0.118068  0.000939  0.966181  0.002
H  H84  1  0.77914189  0.86730802  0.49669101  1  0.143936  0.002089  0.131925  0.118124  0.000939  0.966161  0.002
H  H85  1  0.72084864  0.36731214  0.00331359  1  0.143956  0.002089  0.131905  0.11812  0.000939  0.966106  0.002
C  C86  1  0.16295090  0.95168333  0.15900912  1  1.56439  -0.000837  0.229296  0.583673  -0.000831  4.15399  -0.001
C  C87  1  0.33704949  0.45168462  0.34099394  1  1.564136  -0.000838  0.229344  0.583759  -0.000832  4.153862  -0.001
C  C88  1  0.83705046  0.04831622  0.84098996  1  1.564367  -0.000838  0.229379  0.583777  -0.000832  4.153885  -0.001
C  C89  1  0.66294730  0.54831493  0.65900811  1  1.564401  -0.000838  0.229358  0.58374  -0.000832  4.153771  -0.001
C  C90  1  0.27118433  0.88799701  0.16942192  1  0.503249  -3e-06  0.10472  0.047106  -0.000618  3.940926  0.0
C  C91  1  0.22881690  0.38799532  0.33058210  1  0.503285  -2e-06  0.104784  0.047089  -0.000617  3.940902  0.0
C  C92  1  0.72881798  0.11200483  0.83057614  1  0.503267  -2e-06  0.104683  0.047137  -0.000618  3.940731  0.0
C  C93  1  0.77118077  0.61200117  0.66941999  1  0.503211  -2e-06  0.104721  0.047204  -0.000618  3.940674  0.0
C  C94  1  0.27426197  0.78095752  0.16998529  1  -0.051425  0.003271  0.00981  -0.04463  0.002255  3.866005  0.002
C  C95  1  0.22574008  0.28095814  0.33001996  1  -0.051061  0.003269  0.009785  -0.044716  0.002254  3.865959  0.002
C  C96  1  0.72574034  0.21904202  0.83001278  1  -0.051419  0.003271  0.00984  -0.044542  0.002255  3.865676  0.002
C  C97  1  0.77425658  0.71903989  0.66998420  1  -0.051183  0.003271  0.009847  -0.044609  0.002255  3.86569  0.002
C  C98  1  0.16971342  0.71102320  0.15310689  1  1.662398  0.001085  0.20051  0.591224  0.000808  4.253645  0.001
C  C99  1  0.33028842  0.21102594  0.34690195  1  1.66141  0.001086  0.200676  0.59148  0.000808  4.253372  0.001
C  C100  1  0.83028889  0.28897939  0.84689118  1  1.661929  0.001085  0.200482  0.591171  0.000808  4.253523  0.001
C  C101  1  0.66970873  0.78897589  0.65310857  1  1.662215  0.001085  0.20047  0.591193  0.000808  4.253207  0.001
C  C102  1  0.38374109  0.73510409  0.18528576  1  0.05173  -0.003575  -0.058795  -0.053584  -0.004131  3.913106  -0.002
C  C103  1  0.11625936  0.23510256  0.31471706  1  0.05189  -0.003576  -0.058857  -0.05354  -0.004131  3.91288  -0.002
C  C104  1  0.61625853  0.26489622  0.81471325  1  0.051885  -0.003575  -0.058827  -0.053592  -0.004131  3.912992  -0.002
C  C105  1  0.88374019  0.76489318  0.68528300  1  0.051498  -0.003575  -0.058913  -0.053674  -0.004131  3.913094  -0.002
C  C106  1  0.48383125  0.79380068  0.19636086  1  -0.060158  0.005913  -0.064725  -0.088893  0.003994  3.915989  0.005
C  C107  1  0.01617014  0.29380152  0.30364058  1  -0.060316  0.005913  -0.064768  -0.088991  0.003994  3.915987  0.005
C  C108  1  0.51616917  0.20620039  0.80363923  1  -0.060523  0.005914  -0.064777  -0.089019  0.003995  3.915989  0.005
C  C109  1  0.98382969  0.70619573  0.69635474  1  -0.060138  0.005913  -0.064735  -0.088928  0.003994  3.916262  0.005
C  C110  1  0.47362730  0.89979450  0.19394301  1  0.448602  -0.001518  0.060122  0.10743  -0.002051  3.902289  -0.001
C  C111  1  0.02637584  0.39979455  0.30605838  1  0.448553  -0.001518  0.060145  0.107425  -0.002051  3.902347  -0.001
C  C112  1  0.52637579  0.10020429  0.80605668  1  0.4486  -0.001518  0.060166  0.107462  -0.002052  3.902261  -0.001
C  C113  1  0.97362237  0.60020271  0.69393476  1  0.447628  -0.001517  0.060056  0.107282  -0.002051  3.902575  -0.001
C  C114  1  0.97208066  0.73224388  0.33378768  1  1.553325  -0.001161  0.21889  0.540907  -0.001267  4.197834  -0.001
C  C115  1  0.52792502  0.23224043  0.16621418  1  1.553775  -0.00116  0.21897  0.541114  -0.001267  4.197895  -0.001
C  C116  1  0.02792594  0.26775490  0.66621215  1  1.553113  -0.00116  0.218869  0.54096  -0.001266  4.197982  -0.001
C  C117  1  0.47207609  0.76775607  0.83378911  1  1.55334  -0.00116  0.218887  0.541022  -0.001266  4.197863  -0.001
C  C118  1  0.08202241  0.79528010  0.33351389  1  0.495752  -3.8e-05  0.109427  0.060621  -0.000814  3.948551  0.0
C  C119  1  0.41798438  0.29527990  0.16648566  1  0.495262  -3.9e-05  0.109364  0.060472  -0.000815  3.948607  0.0
C  C120  1  0.91798513  0.20471793  0.66648493  1  0.495947  -4e-05  0.10937  0.060597  -0.000816  3.948608  0.0
C  C121  1  0.58201682  0.70471965  0.83351605  1  0.495771  -3.9e-05  0.109387  0.060523  -0.000815  3.948688  0.0
C  C122  1  0.08407886  0.90174147  0.32931728  1  -0.018343  0.003154  0.008194  -0.065663  0.002119  3.888964  0.002
C  C123  1  0.41592808  0.40173969  0.17067951  1  -0.018333  0.003153  0.008192  -0.065531  0.002119  3.888983  0.002
C  C124  1  0.91592874  0.09825655  0.67068048  1  -0.018256  0.003154  0.008192  -0.065606  0.002119  3.888987  0.002
C  C125  1  0.58407156  0.59825681  0.82931897  1  -0.018302  0.003154  0.0082  -0.065574  0.00212  3.889007  0.002
C  C126  1  0.97624268  0.96860399  0.31796556  1  1.668675  0.00116  0.219014  0.641835  0.000757  4.210797  0.001
C  C127  1  0.52376224  0.46860261  0.18203376  1  1.66895  0.00116  0.219084  0.641849  0.000757  4.210723  0.001
C  C128  1  0.02376389  0.03139174  0.68203480  1  1.66856  0.001161  0.218987  0.641762  0.000757  4.210665  0.001
C  C129  1  0.47623740  0.53139388  0.81796472  1  1.668769  0.001161  0.218989  0.64175  0.000757  4.210697  0.001
C  C130  1  0.19404973  0.94945277  0.33730478  1  0.040893  -0.003351  -0.056094  -0.03929  -0.003921  3.9012  -0.002
C  C131  1  0.30595807  0.44945180  0.16269228  1  0.041044  -0.003352  -0.056112  -0.039225  -0.003922  3.901272  -0.002
C  C132  1  0.80595873  0.05054449  0.66269355  1  0.041197  -0.003352  -0.0561  -0.039214  -0.003922  3.901206  -0.002
C  C133  1  0.69404238  0.55054470  0.83730729  1  0.041064  -0.003352  -0.056135  -0.039246  -0.003922  3.901172  -0.002
C  C134  1  0.29567926  0.89214042  0.34701715  1  0.052215  0.005856  -0.063247  -0.086015  0.004045  3.918745  0.005
C  C135  1  0.20432765  0.39214104  0.15298023  1  0.052044  0.005856  -0.063121  -0.085918  0.004045  3.918805  0.005
C  C136  1  0.70432659  0.10785379  0.65298055  1  0.05201  0.005855  -0.0632  -0.086042  0.004044  3.919033  0.005
C  C137  1  0.79567365  0.60785698  0.84701990  1  0.052068  0.005855  -0.063115  -0.085953  0.004044  3.918813  0.005
C  C138  1  0.28632240  0.78626940  0.34772086  1  0.440178  -0.000742  0.057812  0.110446  -0.001258  3.940754  0.0
C  C139  1  0.21368536  0.28627004  0.15227721  1  0.440875  -0.000739  0.057745  0.110433  -0.001258  3.940808  0.0
C  C140  1  0.71368703  0.21372328  0.65227593  1  0.441022  -0.00074  0.057712  0.110412  -0.001258  3.940953  0.0
C  C141  1  0.78631584  0.71372493  0.84772450  1  0.441451  -0.000742  0.057695  0.110424  -0.001257  3.940754  0.0
C  C142  1  0.82841537  0.14749212  0.49671567  1  1.608705  -0.001245  0.210456  0.548086  -0.000915  4.217815  -0.001
C  C143  1  0.67158054  0.64748600  0.00328788  1  1.608378  -0.001246  0.210431  0.548138  -0.000915  4.217868  -0.001
C  C144  1  0.17157631  0.85251582  0.50328352  1  1.608402  -0.001246  0.210421  0.548249  -0.000915  4.217948  -0.001
C  C145  1  0.32841543  0.35251202  0.99671308  1  1.608524  -0.001246  0.210425  0.548053  -0.000916  4.217946  -0.001
C  C146  1  0.94301906  0.20490211  0.49430564  1  0.529013  -0.0002  0.109844  0.061001  -0.0011  3.943714  0.0
C  C147  1  0.55698119  0.70489971  0.00569880  1  0.529141  -0.0002  0.109833  0.061002  -0.0011  3.943808  0.0
C  C148  1  0.05697610  0.79510354  0.50569423  1  0.529338  -0.0002  0.1098  0.060985  -0.001099  3.943863  0.0
C  C149  1  0.44301368  0.29510212  0.99430581  1  0.529245  -0.0002  0.109839  0.061139  -0.0011  3.943618  0.0
C  C150  1  0.95173056  0.31076705  0.48889942  1  -0.078751  0.002475  0.004891  -0.057196  0.001737  3.909979  0.001
C  C151  1  0.54827256  0.81076458  0.01110079  1  -0.079028  0.002474  0.004862  -0.057194  0.001736  3.9101  0.001
C  C152  1  0.04826992  0.68923783  0.51109962  1  -0.07896  0.002475  0.004844  -0.057446  0.001736  3.910204  0.001
C  C153  1  0.45172776  0.18923573  0.98890088  1  -0.079001  0.002475  0.004851  -0.057247  0.001736  3.910048  0.001
C  C154  1  0.84560300  0.37876115  0.47930975  1  1.611959  0.001542  0.229455  0.632269  0.00111  4.182309  0.001
C  C155  1  0.65440606  0.87875480  0.02069399  1  1.611985  0.001543  0.229602  0.632357  0.00111  4.182404  0.001
C  C156  1  0.15440679  0.62125060  0.52069550  1  1.612118  0.001543  0.229607  0.632458  0.00111  4.182538  0.001
C  C157  1  0.34559508  0.12124475  0.97930878  1  1.611947  0.001543  0.229553  0.632212  0.00111  4.18263  0.001
C  C158  1  0.06436249  0.35390110  0.49019653  1  0.054246  -0.003126  -0.066429  -0.057674  -0.003652  3.907061  -0.002
C  C159  1  0.43564162  0.85390191  0.00980360  1  0.054283  -0.003125  -0.066418  -0.057655  -0.003651  3.907261  -0.002
C  C160  1  0.93563898  0.64610226  0.50980097  1  0.054344  -0.003125  -0.066373  -0.057466  -0.003651  3.906979  -0.002
C  C161  1  0.56435783  0.14610145  0.99019804  1  0.054618  -0.003125  -0.066415  -0.057677  -0.003652  3.907198  -0.002
C  C162  1  0.16251149  0.29115752  0.49605670  1  -0.030791  0.005855  -0.072624  -0.095928  0.003846  3.953014  0.005
C  C163  1  0.33748997  0.79116140  0.00394371  1  -0.030783  0.005855  -0.072602  -0.095889  0.003846  3.952986  0.005
C  C164  1  0.83748737  0.70883974  0.50394016  1  -0.030716  0.005855  -0.072604  -0.095939  0.003846  3.952875  0.005
C  C165  1  0.66250847  0.20884349  0.99606000  1  -0.031087  0.005855  -0.07261  -0.095869  0.003846  3.952854  0.005
C  C166  1  0.14735063  0.18579749  0.50022340  1  0.546771  -0.001484  0.064339  0.117276  -0.0018  3.885049  -0.001
C  C167  1  0.35264866  0.68580024  0.99977984  1  0.546723  -0.001485  0.0644  0.117372  -0.001801  3.885249  -0.001
C  C168  1  0.85264460  0.81420205  0.49977542  1  0.54662  -0.001485  0.064331  0.117242  -0.0018  3.885166  -0.001
C  C169  1  0.64734872  0.31420388  0.00022699  1  0.545894  -0.00148  0.064303  0.11721  -0.0018  3.885118  -0.001
N  N170  1  0.36967717  0.94485393  0.18138420  1  -1.225339  0.080403  -0.348072  -0.260369  0.052662  3.66394  0.069
N  N171  1  0.13032331  0.44485464  0.31861733  1  -1.225207  0.080398  -0.348056  -0.26031  0.052658  3.663911  0.069
N  N172  1  0.63032335  0.05514562  0.81861432  1  -1.225335  0.080398  -0.348045  -0.260369  0.052659  3.663885  0.069
N  N173  1  0.86967389  0.55514338  0.68137788  1  -1.224597  0.080397  -0.347986  -0.260359  0.052659  3.663777  0.069
N  N174  1  0.18207800  0.74018420  0.34080562  1  -1.234899  0.08584  -0.351081  -0.248954  0.056309  3.676392  0.073
N  N175  1  0.31792797  0.24018251  0.15919319  1  -1.234388  0.08583  -0.351115  -0.249055  0.056305  3.676575  0.073
N  N176  1  0.81793055  0.25981383  0.65919113  1  -1.234346  0.085829  -0.351037  -0.249043  0.056304  3.676669  0.073
N  N177  1  0.68206966  0.75981474  0.84080943  1  -1.234732  0.085837  -0.351056  -0.249038  0.056307  3.676631  0.073
N  N178  1  0.03965436  0.14533113  0.49950496  1  -1.221986  0.079086  -0.34835  -0.236525  0.052147  3.659586  0.068
N  N179  1  0.46034248  0.64533283  0.00049932  1  -1.22169  0.079089  -0.34838  -0.236583  0.052149  3.65971  0.068
N  N180  1  0.96033992  0.85467147  0.50049487  1  -1.221894  0.079092  -0.348334  -0.236457  0.052149  3.659624  0.068
N  N181  1  0.53965229  0.35466976  0.99950687  1  -1.221043  0.079088  -0.348337  -0.236569  0.052151  3.659576  0.068
O  O182  1  0.06515274  0.91098213  0.14542148  1  -1.185383  0.014057  -0.375103  -0.621929  0.008801  2.385657  0.012
O  O183  1  0.43484881  0.41098559  0.35459139  1  -1.185323  0.014059  -0.375184  -0.622158  0.008803  2.38569  0.012
O  O184  1  0.93484749  0.08901436  0.85458178  1  -1.185428  0.014058  -0.375158  -0.622009  0.008802  2.385639  0.012
O  O185  1  0.56514635  0.58901472  0.64542273  1  -1.185473  0.014056  -0.375229  -0.622072  0.008801  2.385631  0.012
O  O186  1  0.17621145  0.04935927  0.16534735  1  -1.098589  0.082819  -0.306543  -0.528816  0.052739  2.358381  0.076
O  O187  1  0.32378860  0.54936034  0.33464816  1  -1.098438  0.082824  -0.306565  -0.528831  0.052742  2.358396  0.076
O  O188  1  0.82379086  0.95063875  0.83465072  1  -1.098523  0.082824  -0.306556  -0.528812  0.052742  2.358271  0.076
O  O189  1  0.67620353  0.45063463  0.66534366  1  -1.098606  0.082822  -0.306527  -0.528825  0.052742  2.358125  0.076
O  O190  1  0.12348597  0.71923722  0.09150778  1  -1.174191  0.002345  -0.332773  -0.566893  0.001461  2.147301  0.002
O  O191  1  0.37651593  0.21923994  0.40849996  1  -1.174008  0.002345  -0.332904  -0.567062  0.001461  2.14732  0.002
O  O192  1  0.87651189  0.28076614  0.90849115  1  -1.174114  0.002346  -0.332823  -0.566954  0.001461  2.147231  0.002
O  O193  1  0.62347946  0.78076495  0.59151048  1  -1.174271  0.002346  -0.332779  -0.566875  0.001461  2.147079  0.002
O  O194  1  0.14322945  0.64808330  0.20030132  1  -1.182089  0.003847  -0.337088  -0.599511  0.001938  2.185857  0.004
O  O195  1  0.35677501  0.14808667  0.29970802  1  -1.181705  0.003849  -0.337139  -0.599571  0.001939  2.185749  0.004
O  O196  1  0.85677104  0.35191854  0.79969773  1  -1.181663  0.003851  -0.337039  -0.599436  0.00194  2.185742  0.004
O  O197  1  0.64323085  0.85191517  0.70030392  1  -1.181804  0.00385  -0.33705  -0.599458  0.00194  2.185623  0.004
O  O198  1  0.98728977  0.63388711  0.33187636  1  -1.093933  0.094531  -0.312779  -0.534891  0.059727  2.361328  0.087
O  O199  1  0.51271429  0.13388362  0.16812341  1  -1.094072  0.094535  -0.312801  -0.535029  0.05973  2.361346  0.087
O  O200  1  0.01271524  0.36611091  0.66812077  1  -1.093882  0.094527  -0.312718  -0.534922  0.059726  2.361373  0.087
O  O201  1  0.48728594  0.86611059  0.83187985  1  -1.093912  0.094525  -0.312717  -0.534862  0.059724  2.361311  0.087
O  O202  1  0.87331833  0.77264992  0.33736579  1  -1.153018  0.0238  -0.291712  -0.498272  0.014871  2.186906  0.02
O  O203  1  0.62668551  0.27264427  0.16263734  1  -1.153157  0.0238  -0.291692  -0.498247  0.014871  2.187027  0.02
O  O204  1  0.12668638  0.22735115  0.66263608  1  -1.153297  0.023796  -0.29171  -0.498278  0.014869  2.18712  0.02
O  O205  1  0.37331563  0.72735070  0.83736543  1  -1.153141  0.023798  -0.291707  -0.498301  0.01487  2.187034  0.02
O  O206  1  0.91956904  0.95939693  0.25862915  1  -1.208767  0.001747  -0.445021  -0.714355  0.001129  2.353861  0.001
O  O207  1  0.58042778  0.45939328  0.24137304  1  -1.208844  0.001747  -0.445007  -0.714406  0.001129  2.353829  0.001
O  O208  1  0.08043204  0.04060262  0.74137467  1  -1.208663  0.001747  -0.444945  -0.714339  0.001129  2.353763  0.001
O  O209  1  0.41956829  0.54060169  0.75862634  1  -1.208594  0.001746  -0.44496  -0.714315  0.001129  2.353786  0.001
O  O210  1  0.95551220  0.03216517  0.36478835  1  -1.157542  0.001481  -0.310472  -0.550356  0.000462  2.146601  0.002
O  O211  1  0.54449789  0.53216717  0.13521389  1  -1.157872  0.001483  -0.310512  -0.550359  0.000463  2.146496  0.002
O  O212  1  0.04449778  0.96782904  0.63521374  1  -1.157697  0.001483  -0.310482  -0.550336  0.000463  2.146444  0.002
O  O213  1  0.45550435  0.46782932  0.86478523  1  -1.157897  0.001482  -0.310483  -0.550323  0.000463  2.146452  0.002
O  O214  1  0.83651712  0.05014818  0.50195236  1  -1.091153  0.106144  -0.31465  -0.508091  0.067049  2.32608  0.096
O  O215  1  0.66347613  0.55014169  0.99804762  1  -1.091239  0.106147  -0.3147  -0.508195  0.067052  2.326181  0.096
O  O216  1  0.16347492  0.94985976  0.49804104  1  -1.091398  0.106149  -0.31466  -0.50818  0.067054  2.326208  0.096
O  O217  1  0.33651565  0.44985633  0.00194999  1  -1.091243  0.106147  -0.314682  -0.508166  0.067051  2.326177  0.096
O  O218  1  0.73409077  0.19673951  0.49682109  1  -1.173375  0.017159  -0.301593  -0.517032  0.010525  2.210979  0.014
O  O219  1  0.76591025  0.69673192  0.00318502  1  -1.173025  0.017158  -0.301492  -0.517027  0.010524  2.211037  0.014
O  O220  1  0.26590591  0.80326842  0.50318254  1  -1.172977  0.017159  -0.301483  -0.517096  0.010525  2.21102  0.014
O  O221  1  0.23408747  0.30326610  0.99681602  1  -1.173222  0.017159  -0.301559  -0.517034  0.010524  2.210995  0.014
O  O222  1  0.80712824  0.39124483  0.41614075  1  -1.179353  0.001376  -0.400811  -0.647153  0.000843  2.27127  0.001
O  O223  1  0.69287728  0.89123462  0.08386329  1  -1.179616  0.001375  -0.400892  -0.647281  0.000843  2.271452  0.001
O  O224  1  0.19287358  0.60876921  0.58386521  1  -1.179644  0.001375  -0.400929  -0.647462  0.000843  2.271562  0.001
O  O225  1  0.30712392  0.10876264  0.91613842  1  -1.179512  0.001375  -0.400879  -0.647234  0.000843  2.271496  0.001
O  O226  1  0.80723289  0.42469195  0.53279874  1  -1.174543  0.001031  -0.305304  -0.572603  0.000165  2.245746  0.002
O  O227  1  0.69279070  0.92468512  0.96720761  1  -1.17453  0.00103  -0.305374  -0.572533  0.000164  2.245944  0.002
O  O228  1  0.19279950  0.57532285  0.46721118  1  -1.174659  0.00103  -0.305376  -0.572453  0.000163  2.245954  0.002
O  O229  1  0.30721131  0.07531748  0.03279519  1  -1.174609  0.00103  -0.305314  -0.572452  0.000164  2.245952  0.002
O  O230  1  0.77083701  0.80004573  0.21165366  1  -1.274617  -5.2e-05  -0.623137  -0.82024  -8e-05  2.041163  0.0
O  O231  1  0.72917197  0.30005146  0.28835163  1  -1.275016  -5.2e-05  -0.623197  -0.820285  -8e-05  2.04122  0.0
O  O232  1  0.22916849  0.19994924  0.78834983  1  -1.275011  -5.2e-05  -0.623235  -0.820239  -8e-05  2.041119  0.0
O  O233  1  0.27083428  0.69995113  0.71165400  1  -1.274675  -5.2e-05  -0.623137  -0.820231  -8e-05  2.041128  0.0
O  O234  1  0.90474467  0.77344546  0.09979363  1  -1.301464  0.000497  -0.656165  -0.903286  0.000312  2.061338  0.0
O  O235  1  0.59526106  0.27345424  0.40020745  1  -1.301588  0.000497  -0.656105  -0.903334  0.000312  2.061544  0.0
O  O236  1  0.09525576  0.22655180  0.90020646  1  -1.301482  0.000497  -0.656129  -0.903208  0.000312  2.061492  0.0
O  O237  1  0.40473846  0.72655675  0.59979313  1  -1.301443  0.000498  -0.656156  -0.903241  0.000312  2.061306  0.0
O  O238  1  0.88158257  0.99461275  0.02750120  1  -1.266942  0.000149  -0.64071  -0.901892  7.5e-05  2.076465  0.0
O  O239  1  0.61851964  0.49471974  0.47246149  1  -1.26931  0.000149  -0.64102  -0.902062  7.5e-05  2.076436  0.0
O  O240  1  0.11844555  0.00536163  0.97249217  1  -1.266711  0.000149  -0.640849  -0.902077  7.5e-05  2.076353  0.0
O  O241  1  0.38165154  0.50547048  0.52746677  1  -1.265716  0.000149  -0.640605  -0.901373  7.5e-05  2.077064  0.0
O  O242  1  0.72104282  0.04210511  0.19205606  1  -1.260226  0.001723  -0.643467  -0.860918  0.001015  2.090395  0.002
O  O243  1  0.77896649  0.54210651  0.30793026  1  -1.260339  0.001723  -0.643436  -0.861018  0.001015  2.090148  0.002
O  O244  1  0.27896202  0.95789291  0.80794370  1  -1.260099  0.001723  -0.643459  -0.860882  0.001015  2.090397  0.002
O  O245  1  0.22104287  0.45789151  0.69205334  1  -1.260143  0.001723  -0.643462  -0.860909  0.001015  2.090437  0.002
O  O246  1  0.95070667  0.10892568  0.15326733  1  -1.224912  0.001269  -0.616328  -0.838002  0.000753  2.051918  0.001
O  O247  1  0.54929803  0.60894857  0.34670782  1  -1.22468  0.001269  -0.616277  -0.837739  0.000753  2.05189  0.001
O  O248  1  0.04929664  0.89106319  0.84672867  1  -1.225302  0.001269  -0.616285  -0.837819  0.000753  2.052086  0.001
O  O249  1  0.45068931  0.39108454  0.65324738  1  -1.225172  0.001268  -0.616267  -0.837823  0.000753  2.052361  0.001
