# generated using pymatgen
data_AlH6C9BrO5
_symmetry_space_group_name_H-M   'P 1'
_cell_length_a   6.63783984
_cell_length_b   8.84989835
_cell_length_c   11.05609671
_cell_angle_alpha   79.23225642
_cell_angle_beta   73.90624192
_cell_angle_gamma   74.96552783
_symmetry_Int_Tables_number   1
_chemical_formula_structural   AlH6C9BrO5
_chemical_formula_sum   'Al2 H12 C18 Br2 O10'
_cell_volume   598.02779794
_cell_formula_units_Z   2
loop_
 _symmetry_equiv_pos_site_id
 _symmetry_equiv_pos_as_xyz
  1  'x, y, z'
loop_
 _atom_site_type_symbol
 _atom_site_label
 _atom_site_symmetry_multiplicity
 _atom_site_fract_x
 _atom_site_fract_y
 _atom_site_fract_z
 _atom_site_occupancy
 _atom_site_pbe_bader_charge
 _atom_site_pbe_bader_spin_density
 _atom_site_pbe_cm5_charge
 _atom_site_pbe_ddec_charge
 _atom_site_pbe_ddec_spin_density
 _atom_site_pbe_ddec_sum_bond_order
 _atom_site_pbe_magmom
Al  Al0  1  0.49164665  0.50594385  0.49890339  1  2.503411  0  0.390976  1.636061  0  2.576237  0
Al  Al1  1  0.99289856  0.50707056  0.49478446  1  2.50352  0  0.394194  1.635443  0  2.57753  0
H  H2  1  0.76700199  0.62026850  0.34614353  1  0.615763  0  0.335742  0.411183  0  0.897543  0
H  H3  1  0.19647520  0.41287601  0.65221627  1  0.617264  0  0.348954  0.425264  0  0.865091  0
H  H4  1  0.21554738  0.27223487  0.24884678  1  0.122234  0  0.106974  0.116511  0  1.026733  0
H  H5  1  0.14902023  0.07228426  0.14642872  1  0.097333  0  0.099218  0.097392  0  1.008394  0
H  H6  1  0.47926447  0.26465924  0.78081534  1  0.058313  0  0.106542  0.112175  0  1.02239  0
H  H7  1  0.28374410  0.06719888  0.91212627  1  0.049005  0  0.099425  0.097528  0  1.005772  0
H  H8  1  0.65916330  0.93899111  0.47466424  1  0.05993  0  0.102734  0.153362  0  1.000938  0
H  H9  1  0.86738166  0.93094653  0.33647798  1  0.028335  0  0.092501  0.130842  0  1.001897  0
H  H10  1  0.67469216  0.11229097  0.36404182  1  0.046428  0  0.092898  0.131878  0  1.005414  0
H  H11  1  0.29767238  0.90155486  0.63858127  1  0.047242  0  0.090023  0.127034  0  1.017291  0
H  H12  1  0.11700492  0.09027285  0.65300733  1  0.027076  0  0.093539  0.134351  0  0.9959  0
H  H13  1  0.33404836  0.06397375  0.51991053  1  0.067161  0  0.102551  0.151627  0  1.000887  0
C  C14  1  0.35935082  0.50239524  0.27136892  1  1.623317  0  0.271559  0.658933  0  4.107318  0
C  C15  1  0.13649812  0.78757350  0.49900617  1  1.550055  0  0.262973  0.631464  0  4.092068  0
C  C16  1  0.63045906  0.51081740  0.72309055  1  1.631665  0  0.26897  0.654898  0  4.109444  0
C  C17  1  0.84968261  0.22495614  0.49501525  1  1.557019  0  0.266876  0.63281  0  4.081381  0
C  C18  1  0.90786825  0.05470224  0.47636086  1  -0.038286  0  -0.003508  -0.00709  0  3.855904  0
C  C19  1  0.07602294  0.95742241  0.51897979  1  0.038649  0  -0.006316  -0.008926  0  3.86337  0
C  C20  1  0.42938073  0.50522043  0.12984991  1  -0.030039  0  -0.010265  -0.114774  0  3.93407  0
C  C21  1  0.38467773  0.38909782  0.07317792  1  0.019747  0  0.000643  0.069227  0  3.957753  0
C  C22  1  0.53734778  0.61802414  0.05587516  1  -0.041546  0  -0.018752  0.031914  0  3.960596  0
C  C23  1  0.27309877  0.27241340  0.14650235  1  -0.071065  0  -0.08827  -0.124617  0  3.942067  0
C  C24  1  0.23511913  0.16073448  0.08890555  1  -0.10372  0  -0.092149  -0.076918  0  4.034783  0
C  C25  1  0.56553699  0.50787417  0.86466977  1  0.027119  0  -0.011584  -0.115184  0  3.935734  0
C  C26  1  0.60250314  0.62130451  0.92189214  1  -0.014647  0  -0.018969  0.030995  0  3.971673  0
C  C27  1  0.45745824  0.38868800  0.93839500  1  0.026206  0  0.000123  0.070715  0  3.958663  0
C  C28  1  0.41983040  0.26923640  0.88266763  1  0.001196  0  -0.092897  -0.136402  0  3.966288  0
C  C29  1  0.31023688  0.15833886  0.95636269  1  -0.007357  0  -0.092184  -0.081052  0  4.046576  0
C  C30  1  0.76962937  0.00734481  0.40882929  1  -0.009581  0  -0.241172  -0.397159  0  3.972527  0
C  C31  1  0.21304830  0.00553502  0.58684527  1  -0.026216  0  -0.242339  -0.39902  0  3.97901  0
Br  Br32  1  0.72701965  0.78677850  0.81901262  1  -0.016254  0  0.068167  -0.00501  0  1.545773  0
Br  Br33  1  0.58752719  0.77551455  0.13296674  1  -0.026208  0  0.073677  -0.011516  0  1.557398  0
O  O34  1  0.50711668  0.47153037  0.33021913  1  -1.262188  0  -0.230227  -0.586909  0  2.364767  0
O  O35  1  0.98524122  0.71942551  0.50750740  1  -1.259145  0  -0.23299  -0.597498  0  2.426939  0
O  O36  1  0.82957820  0.48254592  0.66964054  1  -1.260545  0  -0.228922  -0.589112  0  2.357664  0
O  O37  1  0.64983923  0.28952667  0.52585011  1  -1.264948  0  -0.238707  -0.590337  0  2.328372  0
O  O38  1  0.47782252  0.53651893  0.66837878  1  -1.260483  0  -0.226556  -0.579661  0  2.348601  0
O  O39  1  0.00315746  0.29444132  0.47746208  1  -1.265861  0  -0.229531  -0.58328  0  2.383314  0
O  O40  1  0.15873100  0.52946061  0.32117969  1  -1.253026  0  -0.22612  -0.579126  0  2.338181  0
O  O41  1  0.33637333  0.72236594  0.47573757  1  -1.258372  0  -0.24094  -0.599782  0  2.358585  0
O  O42  1  0.74507349  0.57651240  0.43496443  1  -1.426394  0  -0.448995  -0.980855  0  2.214054  0
O  O43  1  0.23686120  0.43561533  0.56044055  1  -1.422107  0  -0.447863  -0.977377  0  2.178866  0
