# generated using pymatgen
data_ErH19C30N5O7
_symmetry_space_group_name_H-M   'P 1'
_cell_length_a   10.40826166
_cell_length_b   11.19693843
_cell_length_c   13.36738663
_cell_angle_alpha   109.84294865
_cell_angle_beta   101.37845828
_cell_angle_gamma   108.15806884
_symmetry_Int_Tables_number   1
_chemical_formula_structural   ErH19C30N5O7
_chemical_formula_sum   'Er2 H38 C60 N10 O14'
_cell_volume   1309.88321392
_cell_formula_units_Z   2
loop_
 _symmetry_equiv_pos_site_id
 _symmetry_equiv_pos_as_xyz
  1  'x, y, z'
loop_
 _atom_site_type_symbol
 _atom_site_label
 _atom_site_symmetry_multiplicity
 _atom_site_fract_x
 _atom_site_fract_y
 _atom_site_fract_z
 _atom_site_occupancy
 _atom_site_hle17_bader_spin_density
 _atom_site_hle17_ddec_charge
 _atom_site_hle17_ddec_spin_density
 _atom_site_hle17_ddec_sum_bond_order
 _atom_site_hle17_magmom
 _atom_site_hse06_10hf_bader_spin_density
 _atom_site_hse06_10hf_ddec_charge
 _atom_site_hse06_10hf_ddec_spin_density
 _atom_site_hse06_10hf_ddec_sum_bond_order
 _atom_site_hse06_10hf_magmom
 _atom_site_hse06_bader_spin_density
 _atom_site_hse06_ddec_charge
 _atom_site_hse06_ddec_spin_density
 _atom_site_hse06_ddec_sum_bond_order
 _atom_site_hse06_magmom
 _atom_site_pbe_bader_spin_density
 _atom_site_pbe_cm5_charge
 _atom_site_pbe_ddec_charge
 _atom_site_pbe_ddec_spin_density
 _atom_site_pbe_ddec_sum_bond_order
 _atom_site_pbe_magmom
Er  Er0  1  0.50068047  0.08549410  0.37607748  1  0  2.213563  0  1.69011  0  0  2.048945  0  2.189294  0  0  2.191741  0  1.975007  0  0  1.515698  2.009416  0  2.222962  0
Er  Er1  1  0.49931686  0.91450687  0.62391841  1  0  2.213674  0  1.690059  0  0  2.049122  0  2.189121  0  0  2.191876  0  1.97491  0  0  1.515731  2.009579  0  2.222804  0
H  H2  1  0.41359872  0.56127134  0.98723060  1  0  0.09517  0  0.97499  0  0  0.103888  0  1.038389  0  0  0.106285  0  1.039619  0  0  0.100457  0.102131  0  1.03781  0
H  H3  1  0.58640058  0.43873899  0.01277276  1  0  0.095224  0  0.974938  0  0  0.103933  0  1.03834  0  0  0.106333  0  1.039564  0  0  0.10045  0.102176  0  1.037762  0
H  H4  1  0.26990734  0.31947759  0.95923902  1  0  0.055399  0  0.959855  0  0  0.06382  0  1.026887  0  0  0.065813  0  1.025956  0  0  0.103399  0.062364  0  1.027644  0
H  H5  1  0.73010384  0.68053070  0.04076484  1  0  0.055382  0  0.959852  0  0  0.063811  0  1.026876  0  0  0.065803  0  1.025943  0  0  0.103391  0.06235  0  1.027646  0
H  H6  1  0.96106790  0.45231250  0.38687639  1  0  0.068105  0  0.951503  0  0  0.075491  0  1.020005  0  0  0.078417  0  1.017289  0  0  0.106543  0.073397  0  1.021904  0
H  H7  1  0.03892690  0.54768014  0.61311973  1  0  0.068114  0  0.951513  0  0  0.07545  0  1.020058  0  0  0.078392  0  1.01733  0  0  0.106499  0.07336  0  1.021952  0
H  H8  1  0.02950303  0.30865665  0.47769545  1  0  0.09998  0  0.962915  0  0  0.109408  0  1.025161  0  0  0.111785  0  1.026126  0  0  0.103479  0.107418  0  1.025223  0
H  H9  1  0.97049451  0.69134016  0.52230377  1  0  0.099985  0  0.962934  0  0  0.109392  0  1.025193  0  0  0.111777  0  1.026149  0  0  0.10347  0.107406  0  1.025255  0
H  H10  1  0.23849564  0.24849518  0.44915007  1  0  0.120767  0  0.936844  0  0  0.127524  0  1.000216  0  0  0.131096  0  0.997455  0  0  0.117206  0.124919  0  1.002168  0
H  H11  1  0.76150757  0.75150581  0.55085197  1  0  0.12067  0  0.936896  0  0  0.127458  0  1.000254  0  0  0.131028  0  0.997487  0  0  0.117174  0.12485  0  1.002202  0
H  H12  1  0.92687702  0.31033112  0.70748689  1  0  0.108046  0  0.939791  0  0  0.114236  0  1.00529  0  0  0.118549  0  1.001664  0  0  0.10705  0.110753  0  1.008433  0
H  H13  1  0.07312663  0.68967092  0.29250954  1  0  0.108015  0  0.939815  0  0  0.114204  0  1.005301  0  0  0.118514  0  1.00168  0  0  0.10708  0.110726  0  1.008438  0
H  H14  1  0.19508762  0.43993559  0.78865223  1  0  0.098313  0  0.957069  0  0  0.110187  0  1.013952  0  0  0.113459  0  1.013191  0  0  0.103767  0.107799  0  1.01461  0
H  H15  1  0.80491722  0.56006230  0.21134020  1  0  0.098246  0  0.957096  0  0  0.110133  0  1.013969  0  0  0.113397  0  1.01322  0  0  0.103756  0.107749  0  1.014623  0
H  H16  1  0.34450750  0.32474689  0.70546892  1  0  0.073955  0  0.961475  0  0  0.08271  0  1.024036  0  0  0.085285  0  1.02214  0  0  0.108746  0.080751  0  1.025685  0
H  H17  1  0.65549167  0.67524683  0.29451995  1  0  0.073979  0  0.961518  0  0  0.082726  0  1.024073  0  0  0.085302  0  1.022175  0  0  0.108745  0.080767  0  1.02572  0
H  H18  1  0.14999071  0.94230451  0.22974941  1  0  0.084975  0  0.947762  0  0  0.090382  0  1.014642  0  0  0.093478  0  1.011826  0  0  0.120115  0.0881  0  1.016908  0
H  H19  1  0.85000803  0.05769750  0.77025149  1  0  0.084928  0  0.947815  0  0  0.090363  0  1.014667  0  0  0.093465  0  1.01184  0  0  0.120104  0.08808  0  1.016933  0
H  H20  1  0.96375171  0.78312302  0.03505108  1  0  0.100311  0  0.989662  0  0  0.1064  0  1.057056  0  0  0.109449  0  1.056292  0  0  0.10256  0.104441  0  1.057178  0
H  H21  1  0.03624770  0.21688524  0.96494721  1  0  0.100323  0  0.98966  0  0  0.106462  0  1.057018  0  0  0.109515  0  1.056247  0  0  0.102559  0.104505  0  1.057139  0
H  H22  1  0.04421468  0.68597356  0.87436064  1  0  0.105322  0  0.963351  0  0  0.111659  0  1.030039  0  0  0.114505  0  1.028382  0  0  0.10632  0.109537  0  1.031299  0
H  H23  1  0.95578548  0.31402949  0.12563928  1  0  0.105414  0  0.963283  0  0  0.111741  0  1.029971  0  0  0.114591  0  1.028315  0  0  0.10634  0.10962  0  1.031236  0
H  H24  1  0.25198756  0.68052253  0.80367279  1  0  0.105679  0  0.943509  0  0  0.118431  0  1.00232  0  0  0.121158  0  1.001173  0  0  0.108743  0.116544  0  1.00292  0
H  H25  1  0.74801696  0.31948158  0.19633109  1  0  0.105706  0  0.94354  0  0  0.118439  0  1.002356  0  0  0.121161  0  1.001211  0  0  0.108758  0.116552  0  1.002948  0
H  H26  1  0.51236306  0.74894301  0.84418962  1  0  0.117634  0  0.962249  0  0  0.125185  0  1.025823  0  0  0.128422  0  1.024723  0  0  0.110661  0.122914  0  1.02662  0
H  H27  1  0.48764082  0.25106421  0.15581580  1  0  0.117577  0  0.962335  0  0  0.125154  0  1.025891  0  0  0.12839  0  1.024792  0  0  0.110626  0.122882  0  1.026687  0
H  H28  1  0.76399237  0.88248591  0.98417255  1  0  0.108688  0  0.932986  0  0  0.117284  0  0.99594  0  0  0.120924  0  0.992796  0  0  0.112693  0.114659  0  0.998194  0
H  H29  1  0.23601281  0.11752443  0.01583397  1  0  0.108669  0  0.933064  0  0  0.117269  0  0.996015  0  0  0.120904  0  0.992872  0  0  0.112686  0.114643  0  0.998263  0
H  H30  1  0.92655915  0.03896626  0.18691133  1  0  0.108084  0  0.937056  0  0  0.122818  0  0.986421  0  0  0.125399  0  0.98708  0  0  0.111168  0.121037  0  0.985865  0
H  H31  1  0.07344047  0.96103782  0.81309553  1  0  0.108042  0  0.937081  0  0  0.122779  0  0.986447  0  0  0.125357  0  0.987113  0  0  0.111148  0.120995  0  0.985893  0
H  H32  1  0.81481767  0.11028927  0.33414737  1  0  0.086204  0  0.954607  0  0  0.091193  0  1.023433  0  0  0.094115  0  1.020687  0  0  0.120386  0.088875  0  1.025891  0
H  H33  1  0.18517844  0.88970648  0.66585732  1  0  0.086148  0  0.954527  0  0  0.091133  0  1.023407  0  0  0.093985  0  1.02074  0  0  0.120361  0.088816  0  1.025864  0
H  H34  1  0.49114304  0.75729897  0.18073072  1  0  0.09549  0  0.99341  0  0  0.104377  0  1.056593  0  0  0.106915  0  1.055493  0  0  0.10975  0.102737  0  1.057015  0
H  H35  1  0.50885800  0.24270616  0.81927442  1  0  0.095551  0  0.993315  0  0  0.104429  0  1.056514  0  0  0.106972  0  1.055402  0  0  0.109766  0.102787  0  1.056941  0
H  H36  1  0.74104555  0.34675142  0.47053927  1  0  0.422587  0  0.846502  0  0  0.399395  0  0.912072  0  0  0.407185  0  0.904899  0  0  0.309819  0.393812  0  0.918177  0
H  H37  1  0.25895428  0.65324851  0.52946419  1  0  0.422627  0  0.84652  0  0  0.399432  0  0.912089  0  0  0.407229  0  0.904851  0  0  0.309833  0.393858  0  0.918183  0
H  H38  1  0.63658238  0.35291344  0.37099898  1  0  0.418568  0  0.890901  0  0  0.386688  0  0.956958  0  0  0.398711  0  0.939952  0  0  0.288467  0.378249  0  0.969033  0
H  H39  1  0.36342138  0.64708650  0.62900285  1  0  0.41864  0  0.890839  0  0  0.38677  0  0.956875  0  0  0.3988  0  0.939859  0  0  0.288505  0.378335  0  0.968945  0
C  C40  1  0.42674045  0.74755024  0.35892155  1  0  0.734598  0  3.845346  0  0  0.687283  0  4.134079  0  0  0.724192  0  4.128034  0  0  0.232392  0.662496  0  4.141872  0
C  C41  1  0.57325382  0.25245280  0.64107521  1  0  0.734806  0  3.845011  0  0  0.687508  0  4.133741  0  0  0.724395  0  4.127728  0  0  0.232514  0.662688  0  4.141579  0
C  C42  1  0.38011135  0.62512198  0.24697639  1  0  -0.125421  0  3.657985  0  0  -0.107499  0  3.889848  0  0  -0.11762  0  3.906469  0  0  -0.0029  -0.101318  0  3.87864  0
C  C43  1  0.61988554  0.37487794  0.75302438  1  0  -0.12556  0  3.657852  0  0  -0.107695  0  3.889819  0  0  -0.117827  0  3.906453  0  0  -0.002976  -0.101514  0  3.878622  0
C  C44  1  0.38275907  0.54263615  0.05556048  1  0  -0.140097  0  3.779462  0  0  -0.15005  0  4.027905  0  0  -0.157482  0  4.049245  0  0  -0.095702  -0.145449  0  4.013438  0
C  C45  1  0.61723990  0.45737105  0.94444268  1  0  -0.140258  0  3.779202  0  0  -0.150208  0  4.027657  0  0  -0.15764  0  4.048998  0  0  -0.095722  -0.145601  0  4.013188  0
C  C46  1  0.30263311  0.40859569  0.04039796  1  0  0.121875  0  3.768988  0  0  0.097731  0  4.025956  0  0  0.104748  0  4.042272  0  0  0.040009  0.0935  0  4.014635  0
C  C47  1  0.69737317  0.59141259  0.95960513  1  0  0.121995  0  3.768791  0  0  0.097843  0  4.025773  0  0  0.104847  0  4.04209  0  0  0.040067  0.093603  0  4.014455  0
C  C48  1  0.29783889  0.48621583  0.22283298  1  0  0.201746  0  3.715415  0  0  0.191187  0  3.966119  0  0  0.200174  0  3.981629  0  0  0.138461  0.185583  0  3.955045  0
C  C49  1  0.70216246  0.51378307  0.77716818  1  0  0.201737  0  3.715369  0  0  0.191222  0  3.966032  0  0  0.20022  0  3.981531  0  0  0.138474  0.185628  0  3.954948  0
C  C50  1  0.23522877  0.44421310  0.30331419  1  0  0.182674  0  3.743002  0  0  0.171475  0  3.997624  0  0  0.180122  0  4.01241  0  0  0.129873  0.166146  0  3.986665  0
C  C51  1  0.76477181  0.55578163  0.69668641  1  0  0.18286  0  3.742978  0  0  0.171646  0  3.997573  0  0  0.180291  0  4.012359  0  0  0.129904  0.166318  0  3.986616  0
C  C52  1  0.05262687  0.42658459  0.37849258  1  0  0.099818  0  3.770175  0  0  0.07633  0  4.03116  0  0  0.082752  0  4.046915  0  0  0.032905  0.072381  0  4.020156  0
C  C53  1  0.94737034  0.57340910  0.62150496  1  0  0.099854  0  3.77017  0  0  0.076402  0  4.031133  0  0  0.082821  0  4.04689  0  0  0.032972  0.072455  0  4.020132  0
C  C54  1  0.09008412  0.34553349  0.42839147  1  0  -0.136147  0  3.759825  0  0  -0.147341  0  4.011417  0  0  -0.154702  0  4.033357  0  0  -0.091063  -0.142724  0  3.99685  0
C  C55  1  0.90991571  0.65446645  0.57160676  1  0  -0.136091  0  3.759719  0  0  -0.147251  0  4.011276  0  0  -0.154637  0  4.033239  0  0  -0.091027  -0.14265  0  3.996722  0
C  C56  1  0.20568624  0.31297202  0.41339569  1  0  0.002216  0  3.661554  0  0  -0.025445  0  3.906947  0  0  -0.019945  0  3.922085  0  0  -0.057529  -0.028756  0  3.896571  0
C  C57  1  0.79431457  0.68702792  0.58660568  1  0  0.002265  0  3.661516  0  0  -0.025437  0  3.906904  0  0  -0.019928  0  3.922052  0  0  -0.05753  -0.028742  0  3.896532  0
C  C58  1  0.28121969  0.36390943  0.35045565  1  0  -0.115557  0  3.666679  0  0  -0.098954  0  3.900913  0  0  -0.108155  0  3.918043  0  0  -0.002005  -0.093195  0  3.889287  0
C  C59  1  0.71877981  0.63608738  0.64954463  1  0  -0.115618  0  3.666739  0  0  -0.099004  0  3.900964  0  0  -0.10821  0  3.918106  0  0  -0.002061  -0.093252  0  3.889346  0
C  C60  1  0.40663656  0.32960395  0.33514602  1  0  0.703474  0  3.873148  0  0  0.652244  0  4.171509  0  0  0.688063  0  4.162794  0  0  0.221871  0.627826  0  4.178885  0
C  C61  1  0.59336031  0.67038661  0.66485357  1  0  0.703485  0  3.873327  0  0  0.652297  0  4.171632  0  0  0.688112  0  4.162926  0  0  0.221931  0.627882  0  4.179009  0
C  C62  1  0.77223636  0.06050641  0.54230088  1  0  0.746498  0  3.875173  0  0  0.690539  0  4.183428  0  0  0.729747  0  4.171164  0  0  0.237679  0.664423  0  4.193915  0
C  C63  1  0.22776097  0.93949457  0.45769127  1  0  0.746582  0  3.875121  0  0  0.690594  0  4.183372  0  0  0.729816  0  4.171125  0  0  0.237732  0.664474  0  4.193849  0
C  C64  1  0.93423138  0.12725563  0.58815147  1  0  -0.113947  0  3.670894  0  0  -0.095441  0  3.906003  0  0  -0.102564  0  3.922444  0  0  -0.001398  -0.090802  0  3.893912  0
C  C65  1  0.06576507  0.87274327  0.41183996  1  0  -0.114119  0  3.671376  0  0  -0.095464  0  3.906325  0  0  -0.102686  0  3.922905  0  0  -0.001404  -0.090793  0  3.894196  0
C  C66  1  0.99590365  0.26154727  0.67672219  1  0  -0.045351  0  3.729982  0  0  -0.071116  0  3.97902  0  0  -0.068962  0  3.996055  0  0  -0.073136  -0.071952  0  3.967145  0
C  C67  1  0.00409848  0.73845581  0.32327130  1  0  -0.04538  0  3.730304  0  0  -0.071191  0  3.979338  0  0  -0.069007  0  3.996396  0  0  -0.073227  -0.072039  0  3.967454  0
C  C68  1  0.14458557  0.33435428  0.72129148  1  0  -0.124341  0  3.763541  0  0  -0.134303  0  4.011814  0  0  -0.139623  0  4.031701  0  0  -0.089589  -0.130788  0  3.998112  0
C  C69  1  0.85541482  0.66564464  0.27869682  1  0  -0.124141  0  3.763695  0  0  -0.134102  0  4.011957  0  0  -0.139411  0  4.031842  0  0  -0.089499  -0.130592  0  3.998254  0
C  C70  1  0.22784636  0.26965211  0.67551091  1  0  0.120847  0  3.739244  0  0  0.093206  0  4.000574  0  0  0.100008  0  4.015544  0  0  0.043709  0.088785  0  3.990236  0
C  C71  1  0.77215315  0.73034472  0.32447891  1  0  0.120823  0  3.739598  0  0  0.093199  0  4.000916  0  0  0.099999  0  4.015883  0  0  0.043706  0.08878  0  3.990574  0
C  C72  1  0.02709382  0.07000775  0.54759124  1  0  0.149818  0  3.749845  0  0  0.141266  0  3.997496  0  0  0.147078  0  4.016578  0  0  0.119265  0.137549  0  3.984018  0
C  C73  1  0.97290155  0.92999323  0.45239613  1  0  0.149892  0  3.749891  0  0  0.141242  0  3.997561  0  0  0.14707  0  4.016673  0  0  0.119246  0.137514  0  3.984079  0
C  C74  1  0.18033915  0.89835560  0.15660200  1  0  0.161668  0  3.687008  0  0  0.133548  0  3.940408  0  0  0.141394  0  3.959042  0  0  0.060544  0.128061  0  3.930426  0
C  C75  1  0.81965970  0.10164433  0.84339832  1  0  0.16171  0  3.686996  0  0  0.133572  0  3.940411  0  0  0.141418  0  3.959049  0  0  0.060585  0.128091  0  3.930429  0
C  C76  1  0.07750027  0.80983369  0.04844530  1  0  -0.125487  0  3.739507  0  0  -0.135401  0  3.984966  0  0  -0.142195  0  4.005695  0  0  -0.086876  -0.13076  0  3.970014  0
C  C77  1  0.92249989  0.19016937  0.95155387  1  0  -0.125506  0  3.739436  0  0  -0.135483  0  3.984919  0  0  -0.14228  0  4.005655  0  0  -0.086877  -0.130844  0  3.969968  0
C  C78  1  0.12203220  0.75645457  0.95893987  1  0  -0.042509  0  3.675808  0  0  -0.064655  0  3.917742  0  0  -0.062577  0  3.935943  0  0  -0.063761  -0.065291  0  3.904724  0
C  C79  1  0.87796850  0.24354744  0.04106283  1  0  -0.042529  0  3.675617  0  0  -0.064663  0  3.917593  0  0  -0.062592  0  3.935803  0  0  -0.063786  -0.065298  0  3.904577  0
C  C80  1  0.27046452  0.79438655  0.97786735  1  0  0.021915  0  3.798968  0  0  0.038693  0  4.028361  0  0  0.036112  0  4.053387  0  0  -0.003169  0.040362  0  4.010952  0
C  C81  1  0.72953311  0.20560817  0.02213578  1  0  0.021836  0  3.798949  0  0  0.038588  0  4.028395  0  0  0.036  0  4.053427  0  0  -0.003077  0.040256  0  4.010986  0
C  C82  1  0.36656951  0.88481794  0.09005647  1  0  0.134045  0  3.765754  0  0  0.130016  0  4.004402  0  0  0.133504  0  4.029021  0  0  0.122376  0.127204  0  3.990709  0
C  C83  1  0.63342954  0.11517782  0.90994867  1  0  0.134038  0  3.765715  0  0  0.129988  0  4.004471  0  0  0.133472  0  4.029084  0  0  0.122301  0.127176  0  3.990777  0
C  C84  1  0.32667508  0.74682960  0.88985812  1  0  -0.096562  0  3.727246  0  0  -0.119867  0  3.983015  0  0  -0.122935  0  4.004889  0  0  -0.081668  -0.117326  0  3.967499  0
C  C85  1  0.67332769  0.25317034  0.11014730  1  0  -0.096492  0  3.72739  0  0  -0.119756  0  3.983164  0  0  -0.122816  0  4.005034  0  0  -0.081671  -0.117207  0  3.967644  0
C  C86  1  0.47125569  0.78595631  0.91210422  1  0  -0.091372  0  3.705622  0  0  -0.116143  0  3.966381  0  0  -0.118305  0  3.987334  0  0  -0.081232  -0.114584  0  3.951693  0
C  C87  1  0.52874654  0.21404467  0.08790141  1  0  -0.091416  0  3.705809  0  0  -0.116222  0  3.966563  0  0  -0.118378  0  3.987527  0  0  -0.081236  -0.114661  0  3.951872  0
C  C88  1  0.57099304  0.87606921  0.02438174  1  0  0.021674  0  3.773095  0  0  0.035903  0  4.007754  0  0  0.0331  0  4.031383  0  0  -0.002585  0.038047  0  3.990997  0
C  C89  1  0.42900777  0.12393072  0.97562337  1  0  0.021723  0  3.773097  0  0  0.035958  0  4.007791  0  0  0.033126  0  4.03146  0  0  -0.002578  0.038105  0  3.99103  0
C  C90  1  0.51918302  0.92613654  0.11379454  1  0  0.127978  0  3.778357  0  0  0.126504  0  4.014893  0  0  0.130943  0  4.039347  0  0  0.119488  0.123524  0  4.001056  0
C  C91  1  0.48081734  0.07386234  0.88621170  1  0  0.12794  0  3.77822  0  0  0.126437  0  4.014872  0  0  0.130896  0  4.039307  0  0  0.119469  0.123456  0  4.001026  0
C  C92  1  0.72127531  0.91846473  0.05150364  1  0  -0.045473  0  3.689653  0  0  -0.070175  0  3.942235  0  0  -0.067206  0  3.959395  0  0  -0.06206  -0.071695  0  3.929814  0
C  C93  1  0.27872637  0.08153729  0.94850145  1  0  -0.045566  0  3.689842  0  0  -0.070277  0  3.942425  0  0  -0.067297  0  3.959599  0  0  -0.062075  -0.071788  0  3.930002  0
C  C94  1  0.81006091  0.00313192  0.16244728  1  0  -0.127458  0  3.73109  0  0  -0.139588  0  3.982032  0  0  -0.147062  0  4.003238  0  0  -0.083638  -0.134771  0  3.967011  0
C  C95  1  0.18994034  0.99686905  0.83755744  1  0  -0.127346  0  3.731327  0  0  -0.139443  0  3.982251  0  0  -0.146922  0  4.003452  0  0  -0.083624  -0.134628  0  3.967233  0
C  C96  1  0.74877270  0.04525653  0.24565975  1  0  0.175388  0  3.680014  0  0  0.143884  0  3.940968  0  0  0.152636  0  3.959965  0  0  0.065625  0.138137  0  3.930878  0
C  C97  1  0.25122625  0.95474131  0.75434672  1  0  0.175485  0  3.679996  0  0  0.143911  0  3.941056  0  0  0.152715  0  3.960073  0  0  0.065695  0.138165  0  3.930965  0
C  C98  1  0.42359919  0.65098123  0.16126758  1  0  -0.012627  0  3.721816  0  0  -0.042284  0  3.969921  0  0  -0.036933  0  3.986042  0  0  -0.067889  -0.045127  0  3.958227  0
C  C99  1  0.57640043  0.34902285  0.83873629  1  0  -0.012538  0  3.721561  0  0  -0.042173  0  3.969685  0  0  -0.036807  0  3.985797  0  0  -0.067896  -0.045017  0  3.957994  0
N  N100  1  0.26172248  0.37990464  0.12166285  1  0  -0.35269  0  3.064698  0  0  -0.321292  0  3.335969  0  0  -0.333829  0  3.349793  0  0  -0.317163  -0.313049  0  3.326338  0
N  N101  1  0.73828378  0.62009428  0.87833757  1  0  -0.352741  0  3.064721  0  0  -0.321366  0  3.336001  0  0  -0.333895  0  3.349815  0  0  -0.317176  -0.313119  0  3.326369  0
N  N102  1  0.12280992  0.47516695  0.31664780  1  0  -0.360508  0  3.073957  0  0  -0.3289  0  3.345499  0  0  -0.340419  0  3.357441  0  0  -0.32176  -0.321068  0  3.336897  0
N  N103  1  0.87718914  0.52482883  0.68335062  1  0  -0.360621  0  3.074069  0  0  -0.329001  0  3.345594  0  0  -0.340519  0  3.357545  0  0  -0.32177  -0.321167  0  3.336993  0
N  N104  1  0.17097215  0.14111836  0.59222158  1  0  -0.308269  0  3.090579  0  0  -0.271911  0  3.356887  0  0  -0.283454  0  3.37223  0  0  -0.301906  -0.263611  0  3.345841  0
N  N105  1  0.82902332  0.85888054  0.40776522  1  0  -0.308346  0  3.090674  0  0  -0.271999  0  3.357053  0  0  -0.283537  0  3.372388  0  0  -0.301927  -0.263691  0  3.345989  0
N  N106  1  0.32078296  0.93354350  0.17750750  1  0  -0.411916  0  3.247642  0  0  -0.363292  0  3.514583  0  0  -0.387462  0  3.534572  0  0  -0.370678  -0.353559  0  3.503401  0
N  N107  1  0.67921500  0.06645434  0.82249508  1  0  -0.411901  0  3.247544  0  0  -0.36325  0  3.514501  0  0  -0.387419  0  3.5345  0  0  -0.370679  -0.353523  0  3.503329  0
N  N108  1  0.60777716  0.00881513  0.22267567  1  0  -0.427675  0  3.228875  0  0  -0.378949  0  3.49901  0  0  -0.405111  0  3.518968  0  0  -0.369455  -0.36877  0  3.487493  0
N  N109  1  0.39222037  0.99118167  0.77732729  1  0  -0.427776  0  3.228713  0  0  -0.378988  0  3.498869  0  0  -0.405146  0  3.518793  0  0  -0.369485  -0.368805  0  3.487342  0
O  O110  1  0.45657987  0.86568863  0.35721274  1  0  -0.774471  0  2.150369  0  0  -0.721199  0  2.417097  0  0  -0.76496  0  2.407593  0  0  -0.396795  -0.701734  0  2.423327  0
O  O111  1  0.54341275  0.13430816  0.64278723  1  0  -0.774612  0  2.150083  0  0  -0.721314  0  2.416743  0  0  -0.765055  0  2.407232  0  0  -0.396871  -0.701825  0  2.422973  0
O  O112  1  0.43558099  0.72818018  0.44768657  1  0  -0.7016  0  2.023039  0  0  -0.650102  0  2.268606  0  0  -0.687304  0  2.256726  0  0  -0.373829  -0.631314  0  2.273943  0
O  O113  1  0.56441502  0.27181766  0.55231421  1  0  -0.701714  0  2.023267  0  0  -0.6502  0  2.268805  0  0  -0.6874  0  2.256947  0  0  -0.373851  -0.631413  0  2.274175  0
O  O114  1  0.51914029  0.42017741  0.33975195  1  0  -0.606  0  1.890455  0  0  -0.556335  0  2.099918  0  0  -0.580873  0  2.091317  0  0  -0.310096  -0.538787  0  2.105003  0
O  O115  1  0.48086378  0.57981630  0.66025039  1  0  -0.605975  0  1.890634  0  0  -0.556353  0  2.10005  0  0  -0.580911  0  2.091511  0  0  -0.310077  -0.538799  0  2.105132  0
O  O116  1  0.38825153  0.20496971  0.31868527  1  0  -0.770495  0  2.09258  0  0  -0.714687  0  2.356948  0  0  -0.755472  0  2.342835  0  0  -0.426175  -0.694617  0  2.363412  0
O  O117  1  0.61174469  0.79502398  0.68131137  1  0  -0.770592  0  2.092569  0  0  -0.71481  0  2.356924  0  0  -0.755594  0  2.342841  0  0  -0.426228  -0.694736  0  2.3634  0
O  O118  1  0.71629502  0.10170864  0.47466525  1  0  -0.7315  0  2.090285  0  0  -0.680063  0  2.359035  0  0  -0.719601  0  2.34447  0  0  -0.393492  -0.660556  0  2.366253  0
O  O119  1  0.28370294  0.89827987  0.52532494  1  0  -0.731607  0  2.0899  0  0  -0.680186  0  2.358703  0  0  -0.719688  0  2.344048  0  0  -0.393574  -0.660686  0  2.365909  0
O  O120  1  0.70794445  0.98536489  0.58472898  1  0  -0.722022  0  2.093906  0  0  -0.677463  0  2.367338  0  0  -0.716334  0  2.351795  0  0  -0.384971  -0.658895  0  2.375382  0
O  O121  1  0.29205233  0.01463711  0.41527012  1  0  -0.721927  0  2.094104  0  0  -0.677428  0  2.367644  0  0  -0.716289  0  2.352106  0  0  -0.384926  -0.658853  0  2.375691  0
O  O122  1  0.68924225  0.29659622  0.38930512  1  0  -0.883512  0  1.875561  0  0  -0.837308  0  2.071684  0  0  -0.866084  0  2.04175  0  0  -0.618711  -0.823327  0  2.089693  0
O  O123  1  0.31075910  0.70340268  0.61069604  1  0  -0.883636  0  1.875596  0  0  -0.837411  0  2.071685  0  0  -0.866196  0  2.041705  0  0  -0.618751  -0.823434  0  2.089685  0
