# generated using pymatgen
data_CuH4C6NO2
_symmetry_space_group_name_H-M   'P 1'
_cell_length_a   7.18243589
_cell_length_b   7.18371370
_cell_length_c   13.86858032
_cell_angle_alpha   82.55571691
_cell_angle_beta   74.98509328
_cell_angle_gamma   60.02028691
_symmetry_Int_Tables_number   1
_chemical_formula_structural   CuH4C6NO2
_chemical_formula_sum   'Cu4 H16 C24 N4 O8'
_cell_volume   598.66744063
_cell_formula_units_Z   4
loop_
 _symmetry_equiv_pos_site_id
 _symmetry_equiv_pos_as_xyz
  1  'x, y, z'
loop_
 _atom_site_type_symbol
 _atom_site_label
 _atom_site_symmetry_multiplicity
 _atom_site_fract_x
 _atom_site_fract_y
 _atom_site_fract_z
 _atom_site_occupancy
 _atom_site_hle17_bader_spin_density
 _atom_site_hle17_ddec_charge
 _atom_site_hle17_ddec_spin_density
 _atom_site_hle17_ddec_sum_bond_order
 _atom_site_hle17_magmom
 _atom_site_hse06_10hf_bader_spin_density
 _atom_site_hse06_10hf_ddec_charge
 _atom_site_hse06_10hf_ddec_spin_density
 _atom_site_hse06_10hf_ddec_sum_bond_order
 _atom_site_hse06_10hf_magmom
 _atom_site_hse06_bader_spin_density
 _atom_site_hse06_ddec_charge
 _atom_site_hse06_ddec_spin_density
 _atom_site_hse06_ddec_sum_bond_order
 _atom_site_hse06_magmom
 _atom_site_pbe_bader_spin_density
 _atom_site_pbe_cm5_charge
 _atom_site_pbe_ddec_charge
 _atom_site_pbe_ddec_spin_density
 _atom_site_pbe_ddec_sum_bond_order
 _atom_site_pbe_magmom
Cu  Cu0  1  0.93910517  0.70797779  0.51579997  1  0  0.490928  0  1.664566  0  0  0.370539  0  2.120663  0  0  0.38805  0  2.062328  0  0  0.475004  0.361559  0  2.158855  0
Cu  Cu1  1  0.16180725  0.29289931  0.48422125  1  0  0.49095  0  1.66358  0  0  0.370065  0  2.12013  0  0  0.387858  0  2.06161  0  0  0.475162  0.361726  0  2.157833  0
Cu  Cu2  1  0.20444191  0.20756767  0.98412867  1  0  0.491334  0  1.664005  0  0  0.370665  0  2.12048  0  0  0.388371  0  2.061982  0  0  0.475315  0.362314  0  2.158326  0
Cu  Cu3  1  0.39642299  0.79251540  0.01592990  1  0  0.491024  0  1.663282  0  0  0.370404  0  2.119422  0  0  0.387971  0  2.061074  0  0  0.47484  0.3614  0  2.157579  0
H  H4  1  0.78582409  0.61108862  0.72086982  1  0  0.087159  0  0.935062  0  0  0.097484  0  0.996957  0  0  0.100321  0  0.994227  0  0  0.119089  0.095287  0  0.999193  0
H  H5  1  0.11724618  0.38887556  0.27911433  1  0  0.086647  0  0.935639  0  0  0.096989  0  0.997417  0  0  0.099709  0  0.994813  0  0  0.118988  0.094829  0  0.999618  0
H  H6  1  0.25627869  0.11107622  0.77903505  1  0  0.086972  0  0.93519  0  0  0.097022  0  0.997399  0  0  0.099759  0  0.994791  0  0  0.118889  0.094862  0  0.999576  0
H  H7  1  0.14671673  0.88967377  0.22103888  1  0  0.087503  0  0.934795  0  0  0.097488  0  0.99709  0  0  0.100338  0  0.994347  0  0  0.118881  0.095262  0  0.999366  0
H  H8  1  0.28938661  0.73589664  0.56046562  1  0  0.096562  0  0.967619  0  0  0.105985  0  1.029615  0  0  0.109219  0  1.026444  0  0  0.116471  0.103477  0  1.032213  0
H  H9  1  0.58459104  0.26531710  0.43954640  1  0  0.096974  0  0.966621  0  0  0.105945  0  1.029229  0  0  0.109159  0  1.026038  0  0  0.116432  0.103463  0  1.031826  0
H  H10  1  0.59963599  0.23500307  0.93961099  1  0  0.096647  0  0.967021  0  0  0.105976  0  1.029228  0  0  0.109203  0  1.026037  0  0  0.116416  0.103481  0  1.031825  0
H  H11  1  0.77522563  0.76381459  0.06041880  1  0  0.096312  0  0.967805  0  0  0.105901  0  1.029606  0  0  0.109122  0  1.02645  0  0  0.116415  0.1034  0  1.032186  0
H  H12  1  0.39819298  0.74105533  0.71480898  1  0  0.115705  0  0.942511  0  0  0.1272  0  1.00161  0  0  0.13037  0  1.000389  0  0  0.11319  0.124856  0  1.002691  0
H  H13  1  0.85324399  0.25952921  0.28515200  1  0  0.115525  0  0.941694  0  0  0.127169  0  1.000731  0  0  0.130354  0  0.999529  0  0  0.113082  0.124817  0  1.001788  0
H  H14  1  0.86293910  0.24043890  0.78528984  1  0  0.115309  0  0.942195  0  0  0.127159  0  1.000971  0  0  0.130354  0  0.999702  0  0  0.112976  0.12479  0  1.002087  0
H  H15  1  0.88958643  0.75850334  0.21466612  1  0  0.116111  0  0.942203  0  0  0.127325  0  1.001663  0  0  0.13051  0  1.000431  0  0  0.11325  0.124979  0  1.002735  0
H  H16  1  0.87918766  0.60993339  0.88258375  1  0  0.116755  0  0.954817  0  0  0.121522  0  1.028413  0  0  0.127226  0  1.02277  0  0  0.108052  0.117136  0  1.032931  0
H  H17  1  0.37139616  0.38952601  0.11736296  1  0  0.117303  0  0.954822  0  0  0.122213  0  1.028238  0  0  0.12788  0  1.022622  0  0  0.108154  0.11782  0  1.032748  0
H  H18  1  0.51146831  0.11009714  0.61734673  1  0  0.117499  0  0.954771  0  0  0.122259  0  1.028259  0  0  0.127919  0  1.022637  0  0  0.108191  0.117872  0  1.032789  0
H  H19  1  0.23946307  0.89034902  0.38266778  1  0  0.11666  0  0.955257  0  0  0.121464  0  1.028746  0  0  0.127177  0  1.023076  0  0  0.108105  0.117075  0  1.033296  0
C  C20  1  0.91986298  0.63951215  0.72308888  1  0  0.125927  0  3.674924  0  0  0.09463  0  3.921269  0  0  0.10158  0  3.939257  0  0  0.041967  0.089948  0  3.909551  0
C  C21  1  0.28191653  0.36044997  0.27688864  1  0  0.127494  0  3.677458  0  0  0.096505  0  3.923394  0  0  0.103535  0  3.941447  0  0  0.042838  0.091784  0  3.911645  0
C  C22  1  0.39256470  0.13949549  0.77684579  1  0  0.126715  0  3.67715  0  0  0.095904  0  3.923022  0  0  0.102931  0  3.94104  0  0  0.042643  0.091204  0  3.911274  0
C  C23  1  0.30939112  0.86079603  0.22320011  1  0  0.126  0  3.675553  0  0  0.094928  0  3.921694  0  0  0.101877  0  3.939683  0  0  0.042524  0.090261  0  3.909943  0
C  C24  1  0.20233909  0.70696904  0.63262655  1  0  0.116828  0  3.666834  0  0  0.088044  0  3.908698  0  0  0.094864  0  3.925393  0  0  0.039013  0.083205  0  3.898271  0
C  C25  1  0.54094604  0.29377500  0.36739469  1  0  0.116536  0  3.666789  0  0  0.087941  0  3.908991  0  0  0.09477  0  3.925747  0  0  0.039214  0.082884  0  3.898869  0
C  C26  1  0.58475598  0.20635258  0.86742785  1  0  0.116905  0  3.666184  0  0  0.088002  0  3.908476  0  0  0.094803  0  3.925247  0  0  0.039352  0.083001  0  3.898298  0
C  C27  1  0.65929720  0.79295484  0.13258245  1  0  0.116752  0  3.666933  0  0  0.087801  0  3.908847  0  0  0.094631  0  3.925559  0  0  0.038927  0.082912  0  3.898498  0
C  C28  1  0.26183599  0.71140160  0.71936979  1  0  -0.105171  0  3.690922  0  0  -0.128649  0  3.938589  0  0  -0.134171  0  3.959752  0  0  -0.076615  -0.125205  0  3.924794  0
C  C29  1  0.69177173  0.28904850  0.28063138  1  0  -0.105833  0  3.689247  0  0  -0.129622  0  3.9365  0  0  -0.135235  0  3.957663  0  0  -0.076773  -0.126107  0  3.922751  0
C  C30  1  0.73097515  0.21099203  0.78070698  1  0  -0.105293  0  3.689801  0  0  -0.128914  0  3.937259  0  0  -0.134428  0  3.95842  0  0  -0.076607  -0.125456  0  3.923507  0
C  C31  1  0.72343072  0.78846504  0.21927533  1  0  -0.105834  0  3.69032  0  0  -0.129114  0  3.938125  0  0  -0.134638  0  3.959267  0  0  -0.077001  -0.125662  0  3.924314  0
C  C32  1  0.14472051  0.67995667  0.81161620  1  0  -0.008027  0  3.730637  0  0  0.010412  0  3.958769  0  0  0.009533  0  3.979646  0  0  -0.000217  0.01076  0  3.944928  0
C  C33  1  0.63567700  0.31998089  0.18835821  1  0  -0.00567  0  3.730509  0  0  0.013606  0  3.957344  0  0  0.012905  0  3.978046  0  0  0.000308  0.013823  0  3.94367  0
C  C34  1  0.70598194  0.17995787  0.68841643  1  0  -0.005961  0  3.730399  0  0  0.012398  0  3.958464  0  0  0.011531  0  3.979363  0  0  0.000365  0.01274  0  3.944661  0
C  C35  1  0.57499325  0.81996538  0.31158310  1  0  -0.007844  0  3.730368  0  0  0.010537  0  3.958399  0  0  0.009657  0  3.979292  0  0  -7.9e-05  0.010893  0  3.944527  0
C  C36  1  0.97196982  0.64031454  0.81257745  1  0  -0.125176  0  3.701068  0  0  -0.14563  0  3.950306  0  0  -0.151832  0  3.970058  0  0  -0.078475  -0.141804  0  3.937641  0
C  C37  1  0.42439494  0.35938682  0.18737510  1  0  -0.127528  0  3.703497  0  0  -0.148574  0  3.952679  0  0  -0.154802  0  3.972383  0  0  -0.079157  -0.144681  0  3.940041  0
C  C38  1  0.53422741  0.14035441  0.68737007  1  0  -0.127348  0  3.70238  0  0  -0.147874  0  3.951676  0  0  -0.154044  0  3.971422  0  0  -0.079014  -0.144041  0  3.939025  0
C  C39  1  0.36252342  0.85985479  0.31264203  1  0  -0.125243  0  3.702528  0  0  -0.145676  0  3.951702  0  0  -0.151844  0  3.971391  0  0  -0.078701  -0.141877  0  3.939047  0
C  C40  1  0.20270529  0.68685712  0.90710071  1  0  0.616052  0  3.930292  0  0  0.570271  0  4.211013  0  0  0.603714  0  4.204847  0  0  0.195254  0.547451  0  4.214815  0
C  C41  1  0.79632389  0.31281336  0.09288005  1  0  0.614411  0  3.931179  0  0  0.568396  0  4.212011  0  0  0.601722  0  4.205963  0  0  0.194468  0.545516  0  4.215966  0
C  C42  1  0.85954430  0.18697906  0.59294992  1  0  0.614711  0  3.930736  0  0  0.569001  0  4.211476  0  0  0.602377  0  4.205441  0  0  0.194276  0.546068  0  4.215453  0
C  C43  1  0.64017828  0.81282339  0.40702893  1  0  0.61579  0  3.930253  0  0  0.570131  0  4.210869  0  0  0.603568  0  4.204678  0  0  0.194959  0.547321  0  4.21468  0
N  N44  1  0.03122460  0.67480671  0.63401291  1  0  -0.310992  0  3.493082  0  0  -0.22274  0  3.782929  0  0  -0.238151  0  3.79204  0  0  -0.384897  -0.213334  0  3.777073  0
N  N45  1  0.33920198  0.32567840  0.36599970  1  0  -0.31092  0  3.495825  0  0  -0.222684  0  3.785558  0  0  -0.238131  0  3.79462  0  0  -0.385136  -0.213339  0  3.779658  0
N  N46  1  0.41490648  0.17446542  0.86597012  1  0  -0.311239  0  3.495177  0  0  -0.22302  0  3.784928  0  0  -0.238453  0  3.794005  0  0  -0.385333  -0.213679  0  3.779047  0
N  N47  1  0.45588738  0.82539625  0.13406164  1  0  -0.310686  0  3.492945  0  0  -0.222346  0  3.782786  0  0  -0.23777  0  3.79191  0  0  -0.384711  -0.212919  0  3.776848  0
O  O48  1  0.11801735  0.62837675  0.98739455  1  0  -0.610893  0  1.961112  0  0  -0.560703  0  2.202586  0  0  -0.582582  0  2.189697  0  0  -0.316841  -0.545632  0  2.211019  0
O  O49  1  0.73373344  0.37112068  0.01253436  1  0  -0.610415  0  1.960496  0  0  -0.560349  0  2.202283  0  0  -0.582282  0  2.189539  0  0  -0.316964  -0.545292  0  2.210693  0
O  O50  1  0.85505741  0.12877303  0.51262457  1  0  -0.610381  0  1.960614  0  0  -0.560173  0  2.20219  0  0  -0.582134  0  2.189482  0  0  -0.316662  -0.545113  0  2.210626  0
O  O51  1  0.49734168  0.87058795  0.48741443  1  0  -0.611278  0  1.96108  0  0  -0.561238  0  2.202367  0  0  -0.583097  0  2.18948  0  0  -0.317112  -0.546195  0  2.21081  0
O  O52  1  0.34264379  0.75595482  0.89709386  1  0  -0.605646  0  2.189709  0  0  -0.528047  0  2.477735  0  0  -0.557884  0  2.462566  0  0  -0.351011  -0.507542  0  2.487168  0
O  O53  1  0.99521355  0.24401166  0.10295912  1  0  -0.605635  0  2.190309  0  0  -0.528058  0  2.478616  0  0  -0.557853  0  2.463391  0  0  -0.350462  -0.507512  0  2.488087  0
O  O54  1  0.98954625  0.25590385  0.60305805  1  0  -0.605618  0  2.189738  0  0  -0.528075  0  2.478069  0  0  -0.557905  0  2.462859  0  0  -0.350607  -0.507512  0  2.48752  0
O  O55  1  0.84912511  0.74432480  0.39688038  1  0  -0.605369  0  2.189033  0  0  -0.527794  0  2.476884  0  0  -0.557634  0  2.461738  0  0  -0.350633  -0.507272  0  2.486294  0
