# generated using pymatgen
data_V2CuH8C7(N2O3)2
_symmetry_space_group_name_H-M   'P 1'
_cell_length_a   8.56927295
_cell_length_b   10.42628276
_cell_length_c   14.74310472
_cell_angle_alpha   89.99379521
_cell_angle_beta   90.00288471
_cell_angle_gamma   114.86987281
_symmetry_Int_Tables_number   1
_chemical_formula_structural   V2CuH8C7(N2O3)2
_chemical_formula_sum   'V8 Cu4 H32 C28 N16 O24'
_cell_volume   1195.07926891
_cell_formula_units_Z   4
loop_
 _symmetry_equiv_pos_site_id
 _symmetry_equiv_pos_as_xyz
  1  'x, y, z'
loop_
 _atom_site_type_symbol
 _atom_site_label
 _atom_site_symmetry_multiplicity
 _atom_site_fract_x
 _atom_site_fract_y
 _atom_site_fract_z
 _atom_site_occupancy
 _atom_site_pbe_bader_charge
 _atom_site_pbe_bader_spin_density
 _atom_site_pbe_cm5_charge
 _atom_site_pbe_ddec_charge
 _atom_site_pbe_ddec_spin_density
 _atom_site_pbe_ddec_sum_bond_order
 _atom_site_pbe_magmom
V  V0  1  0.29470023  0.45934969  0.85202842  1  2.115093  0.018199  1.447094  1.987411  0.014091  3.457319  0.022
V  V1  1  0.70528878  0.04066218  0.35204723  1  2.11541  -0.018194  1.44743  1.988017  -0.014088  3.457143  -0.022
V  V2  1  0.70532352  0.54066171  0.14795302  1  2.115116  -0.018217  1.447222  1.987816  -0.014102  3.456666  -0.023
V  V3  1  0.29472220  0.95934705  0.64795863  1  2.11506  0.018197  1.447435  1.987832  0.014091  3.457534  0.022
V  V4  1  0.18129176  0.23240529  0.68591847  1  2.109506  0.033749  1.43205  1.959406  0.025622  3.516436  0.04
V  V5  1  0.81872008  0.26760835  0.18594425  1  2.109688  -0.033809  1.431766  1.958805  -0.025668  3.516928  -0.041
V  V6  1  0.81869700  0.76760383  0.31407178  1  2.109442  -0.033764  1.432139  1.959723  -0.025631  3.516339  -0.04
V  V7  1  0.18125821  0.73238701  0.81406026  1  2.109495  0.033756  1.431768  1.958885  0.02563  3.516881  0.04
Cu  Cu8  1  0.74156275  0.57558229  0.88170743  1  1.122704  0.579197  0.767693  0.979036  0.750147  2.286173  0.577
Cu  Cu9  1  0.25842309  0.92442072  0.38171294  1  1.122704  -0.579206  0.767716  0.979087  -0.750139  2.285764  -0.577
Cu  Cu10  1  0.25840850  0.42440144  0.11830996  1  1.122689  -0.579153  0.767735  0.979083  -0.750108  2.286252  -0.577
Cu  Cu11  1  0.74155761  0.07556094  0.61828546  1  1.122711  0.57921  0.767678  0.979113  0.750144  2.285834  0.577
H  H12  1  0.61515278  0.95721304  0.04595791  1  0.193709  0.000843  0.124321  0.150177  0.000435  1.035126  0.001
H  H13  1  0.38486003  0.54278024  0.54596618  1  0.193462  -0.000843  0.124401  0.150341  -0.000435  1.034968  -0.001
H  H14  1  0.38485560  0.04281410  0.95404727  1  0.19398  -0.000842  0.124364  0.150246  -0.000435  1.035132  -0.001
H  H15  1  0.61515172  0.45723743  0.45402815  1  0.193441  0.000844  0.124388  0.150374  0.000436  1.034933  0.001
H  H16  1  0.51643069  0.67111419  0.00513952  1  0.150877  0.000878  0.1232  0.110688  0.000405  1.052283  0.001
H  H17  1  0.48355319  0.82888190  0.50513623  1  0.151037  -0.000878  0.123225  0.110727  -0.000405  1.052287  -0.001
H  H18  1  0.48354096  0.32889801  0.99486702  1  0.150589  -0.000879  0.12322  0.110686  -0.000405  1.052357  -0.001
H  H19  1  0.51641982  0.17112609  0.49486013  1  0.150808  0.000877  0.123281  0.110799  0.000404  1.052456  0.001
H  H20  1  0.94127104  0.91982744  0.84114397  1  0.131839  0.000429  0.148195  0.116976  0.000104  0.98637  0.0
H  H21  1  0.05873471  0.58018490  0.34113948  1  0.131696  -0.000428  0.148203  0.117046  -0.000104  0.986283  0.0
H  H22  1  0.05872517  0.08018488  0.15886053  1  0.131546  -0.000428  0.148158  0.116944  -0.000104  0.986525  0.0
H  H23  1  0.94125733  0.41981685  0.65885959  1  0.131778  0.000428  0.148161  0.116958  0.000103  0.98617  0.0
H  H24  1  0.01618961  0.15829735  0.90198533  1  0.172961  -3.4e-05  0.130606  0.114743  -4.4e-05  1.009618  0.0
H  H25  1  0.98382929  0.34171668  0.40198991  1  0.173051  3.4e-05  0.1306  0.114784  4.4e-05  1.009555  0.0
H  H26  1  0.98382431  0.84169924  0.09801850  1  0.173119  3.4e-05  0.130613  0.114794  4.4e-05  1.009626  0.0
H  H27  1  0.01618133  0.65827567  0.59800985  1  0.173507  -3.4e-05  0.130601  0.114757  -4.4e-05  1.009535  0.0
H  H28  1  0.93234585  0.17178155  0.01154534  1  0.156273  0.000195  0.130885  0.108469  9.2e-05  1.022093  0.0
H  H29  1  0.06766929  0.32820126  0.51155095  1  0.156264  -0.000194  0.130937  0.108583  -9.2e-05  1.022119  0.0
H  H30  1  0.06767633  0.82823828  0.98845238  1  0.15616  -0.000195  0.130892  0.1085  -9.3e-05  1.021995  0.0
H  H31  1  0.93234647  0.67180588  0.48845016  1  0.15638  0.000195  0.13094  0.108536  9.2e-05  1.022077  0.0
H  H32  1  0.54594999  0.27858882  0.76973546  1  0.153511  0.000822  0.124586  0.123912  0.000389  1.016764  0.001
H  H33  1  0.45403753  0.22142481  0.26974121  1  0.153183  -0.000823  0.124588  0.123863  -0.000389  1.01665  -0.001
H  H34  1  0.45404518  0.72139607  0.23026769  1  0.153649  -0.000823  0.124557  0.123868  -0.000389  1.016704  -0.001
H  H35  1  0.54596467  0.77856012  0.73025583  1  0.153299  0.000822  0.124582  0.12395  0.000388  1.016614  0.001
H  H36  1  0.62123161  0.05250907  0.81112728  1  0.188664  0.000776  0.12562  0.136711  0.000308  1.03604  0.001
H  H37  1  0.37878306  0.44751432  0.31113318  1  0.188849  -0.000776  0.125577  0.13662  -0.000307  1.036073  -0.001
H  H38  1  0.37877506  0.94748010  0.18887044  1  0.18879  -0.000775  0.125659  0.136693  -0.000307  1.036152  -0.001
H  H39  1  0.62122351  0.55247696  0.68886793  1  0.18849  0.000778  0.125661  0.136721  0.000308  1.035791  0.001
H  H40  1  0.93412386  0.40432038  0.97092258  1  0.168471  0.000679  0.140919  0.117076  0.000278  1.025733  0.0
H  H41  1  0.06586632  0.09566210  0.47092592  1  0.174543  -0.000679  0.140999  0.117147  -0.000278  1.025852  0.0
H  H42  1  0.06588448  0.59565825  0.02908667  1  0.168235  -0.000678  0.140884  0.11711  -0.000278  1.025833  0.0
H  H43  1  0.93414811  0.90432394  0.52906705  1  0.174372  0.000679  0.140955  0.117086  0.000278  1.025632  0.0
C  C44  1  0.66285967  0.90412691  0.99733284  1  0.324684  0.004312  0.010878  -0.072939  0.00295  3.827995  0.003
C  C45  1  0.33715066  0.59587262  0.49733394  1  0.324651  -0.004312  0.010745  -0.073309  -0.002951  3.828282  -0.003
C  C46  1  0.33714142  0.09588122  0.00266963  1  0.324892  -0.004313  0.010823  -0.073094  -0.002951  3.828134  -0.003
C  C47  1  0.66285361  0.40413025  0.50266378  1  0.324683  0.004309  0.010734  -0.073279  0.002949  3.828187  0.003
C  C48  1  0.61831613  0.76493286  0.97707042  1  0.374438  0.001267  0.00806  -0.023259  0.001409  3.971238  0.001
C  C49  1  0.38168079  0.73506437  0.47706894  1  0.374348  -0.001268  0.008107  -0.023046  -0.001409  3.971281  -0.001
C  C50  1  0.38165889  0.23506987  0.02293951  1  0.374605  -0.001267  0.008145  -0.023101  -0.001409  3.971111  -0.001
C  C51  1  0.61828942  0.26492885  0.52292607  1  0.374297  0.001268  0.007894  -0.023528  0.001409  3.971625  0.001
C  C52  1  0.83718562  0.88823767  0.89005127  1  1.007009  -0.000799  0.148715  0.093368  0.00039  3.897366  0.001
C  C53  1  0.16281764  0.61176839  0.39004537  1  1.006983  0.0008  0.148746  0.093488  -0.00039  3.897184  -0.001
C  C54  1  0.16280748  0.11176620  0.10996544  1  1.006292  0.000802  0.148783  0.093501  -0.000389  3.896999  0.0
C  C55  1  0.83716737  0.38823333  0.60994489  1  1.007473  -0.000798  0.148712  0.09319  0.000393  3.897422  0.001
C  C56  1  0.89874788  0.13253816  0.94193722  1  0.603252  0.001688  0.061318  0.008274  0.001351  3.807742  0.002
C  C57  1  0.10127172  0.36746357  0.44194520  1  0.602604  -0.001688  0.061226  0.008195  -0.001351  3.807908  -0.002
C  C58  1  0.10126340  0.86746475  0.05806389  1  0.603569  -0.001687  0.061277  0.008199  -0.00135  3.80813  -0.002
C  C59  1  0.89873412  0.63253087  0.55805387  1  0.602114  0.00169  0.061311  0.008309  0.001352  3.807226  0.002
C  C60  1  0.64055090  0.27319802  0.81633985  1  0.37607  0.001252  0.004997  -0.01376  0.001519  3.956642  0.002
C  C61  1  0.35944263  0.22681500  0.31634446  1  0.376152  -0.00125  0.005074  -0.013514  -0.001517  3.956226  -0.002
C  C62  1  0.35943364  0.72678894  0.18366058  1  0.375677  -0.001252  0.005057  -0.013782  -0.001517  3.956673  -0.002
C  C63  1  0.64055127  0.77317200  0.68365665  1  0.376274  0.001252  0.005071  -0.013561  0.001517  3.95615  0.002
C  C64  1  0.67794299  0.16023982  0.83585147  1  0.311487  0.003759  0.006192  -0.105376  0.002469  3.891997  0.003
C  C65  1  0.32206161  0.33977560  0.33585583  1  0.311635  -0.003756  0.006124  -0.105463  -0.002468  3.892011  -0.003
C  C66  1  0.32207000  0.83976414  0.16414896  1  0.311268  -0.003759  0.006062  -0.105421  -0.002469  3.892174  -0.003
C  C67  1  0.67794797  0.66022624  0.66413850  1  0.311176  0.003756  0.00604  -0.105664  0.002467  3.891647  0.003
C  C68  1  0.83952755  0.34349897  0.92111922  1  0.978451  -0.001318  0.152823  0.110459  -5.3e-05  3.876889  0.0
C  C69  1  0.16046841  0.15649416  0.42112271  1  0.972843  0.001318  0.152695  0.110411  5.4e-05  3.877202  0.0
C  C70  1  0.16046495  0.65648064  0.07888732  1  0.978761  0.001321  0.152936  0.110635  5.6e-05  3.87627  0.0
C  C71  1  0.83953482  0.84348128  0.57887365  1  0.972782  -0.001313  0.152699  0.110257  -5e-05  3.877275  0.0
N  N72  1  0.72860014  0.75673498  0.91102723  1  -1.202745  0.083342  -0.368933  -0.288373  0.056044  3.626118  0.071
N  N73  1  0.27139037  0.74326999  0.41102122  1  -1.202746  -0.083346  -0.369093  -0.288643  -0.056046  3.62626  -0.071
N  N74  1  0.27138498  0.24326463  0.08898609  1  -1.202835  -0.083337  -0.369074  -0.288431  -0.05604  3.626367  -0.071
N  N75  1  0.72858120  0.25671901  0.58897853  1  -1.202388  0.083342  -0.368834  -0.288118  0.056043  3.6252  0.071
N  N76  1  0.80120278  0.98094525  0.94169032  1  -1.268004  0.00321  -0.239993  0.023569  0.001953  3.775248  0.002
N  N77  1  0.19881441  0.51905420  0.44168918  1  -1.26713  -0.003211  -0.239952  0.023487  -0.001954  3.775379  -0.002
N  N78  1  0.19880794  0.01904499  0.05831418  1  -1.26727  -0.003214  -0.240021  0.023384  -0.001955  3.77499  -0.002
N  N79  1  0.80119246  0.48093075  0.55830718  1  -1.267953  0.003206  -0.240026  0.023606  0.00195  3.775772  0.002
N  N80  1  0.80284670  0.20663402  0.90255932  1  -1.23155  0.002659  -0.235136  0.037787  0.001591  3.733559  0.002
N  N81  1  0.19716729  0.29337252  0.40256357  1  -1.232136  -0.002661  -0.23508  0.037673  -0.001591  3.733823  -0.002
N  N82  1  0.19717003  0.79337734  0.09744179  1  -1.231517  -0.002661  -0.235017  0.037731  -0.001592  3.733108  -0.002
N  N83  1  0.80284827  0.70663884  0.59743143  1  -1.231882  0.002655  -0.235092  0.038016  0.001587  3.733855  0.002
N  N84  1  0.74305946  0.38673830  0.86954289  1  -1.199134  0.085854  -0.37361  -0.299179  0.057693  3.609664  0.073
N  N85  1  0.25692356  0.11326564  0.36954709  1  -1.199275  -0.085825  -0.373514  -0.299104  -0.057676  3.609796  -0.073
N  N86  1  0.25692402  0.61324654  0.13046907  1  -1.199286  -0.085824  -0.373736  -0.299237  -0.057676  3.610034  -0.073
N  N87  1  0.74307590  0.88672771  0.63044859  1  -1.198636  0.085844  -0.373455  -0.29906  0.057688  3.609147  0.073
O  O88  1  0.32551048  0.36139110  0.62829888  1  -0.856731  -0.000263  -0.603355  -0.783671  -0.000253  1.562692  -0.001
O  O89  1  0.67460864  0.13863906  0.12825095  1  -0.856674  0.000267  -0.603192  -0.783371  0.000257  1.562458  0.001
O  O90  1  0.67453720  0.63862146  0.37172868  1  -0.856773  0.000264  -0.603332  -0.783739  0.000254  1.562743  0.001
O  O91  1  0.32544683  0.86138198  0.87171963  1  -0.856607  -0.000261  -0.603189  -0.783589  -0.000253  1.562261  -0.001
O  O92  1  0.25224191  0.09454923  0.70196212  1  -1.035665  0.002478  -0.698552  -0.977029  0.001461  1.882301  0.002
O  O93  1  0.74778741  0.40545472  0.20196101  1  -1.035414  -0.002472  -0.698607  -0.976865  -0.001458  1.882936  -0.002
O  O94  1  0.74776322  0.90545997  0.29804442  1  -1.035924  -0.002476  -0.698574  -0.9771  -0.00146  1.882597  -0.002
O  O95  1  0.25223297  0.59456616  0.79801568  1  -1.035654  0.002472  -0.698533  -0.976845  0.001457  1.882731  0.002
O  O96  1  0.24236258  0.44955454  0.95982418  1  -0.884556  0.01988  -0.606946  -0.829028  0.012283  1.728054  0.015
O  O97  1  0.75763855  0.05046762  0.45984038  1  -0.884954  -0.019867  -0.607065  -0.829299  -0.012274  1.72814  -0.015
O  O98  1  0.75762280  0.55046406  0.04014640  1  -0.885175  -0.019857  -0.606943  -0.829221  -0.012268  1.728024  -0.015
O  O99  1  0.24236287  0.94954578  0.54018650  1  -0.88461  0.019849  -0.607078  -0.829106  0.012262  1.728668  0.015
O  O100  1  0.99156192  0.17334439  0.62973818  1  -0.977485  0.058048  -0.643734  -0.923879  0.039498  1.975479  0.054
O  O101  1  0.00846300  0.32668617  0.12972691  1  -0.977614  -0.058105  -0.643646  -0.923766  -0.039537  1.975555  -0.054
O  O102  1  0.00843911  0.82667745  0.37025004  1  -0.977202  -0.058077  -0.643734  -0.923984  -0.039522  1.975518  -0.054
O  O103  1  0.99155517  0.67330728  0.87027081  1  -0.977582  0.05806  -0.643705  -0.923671  0.039506  1.975634  0.054
O  O104  1  0.16024420  0.29392969  0.79762227  1  -1.049201  0.002797  -0.690882  -0.976934  0.001681  1.902902  0.002
O  O105  1  0.83979254  0.20608423  0.29764591  1  -1.049311  -0.002808  -0.690889  -0.976931  -0.001688  1.903495  -0.002
O  O106  1  0.83972287  0.70608038  0.20236799  1  -1.048972  -0.002799  -0.691029  -0.977169  -0.001683  1.903106  -0.002
O  O107  1  0.16017102  0.79392583  0.70236199  1  -1.049286  0.002808  -0.690763  -0.976779  0.001687  1.903168  0.002
O  O108  1  0.50425048  0.49397777  0.84139332  1  -0.933687  0.084433  -0.627089  -0.884722  0.056483  1.968984  0.077
O  O109  1  0.49576119  0.00603686  0.34140119  1  -0.933625  -0.084406  -0.627148  -0.884934  -0.056466  1.969195  -0.077
O  O110  1  0.49574854  0.50601242  0.15859626  1  -0.933671  -0.084423  -0.626955  -0.884747  -0.056478  1.968683  -0.077
O  O111  1  0.50424605  0.99392806  0.65860942  1  -0.933763  0.084448  -0.627239  -0.885017  0.056489  1.969317  0.077
