# generated using pymatgen
data_CdH20C22(NO2)2
_symmetry_space_group_name_H-M   'P 1'
_cell_length_a   10.07428037
_cell_length_b   10.83112872
_cell_length_c   11.28619941
_cell_angle_alpha   112.90464427
_cell_angle_beta   98.87323690
_cell_angle_gamma   106.59390514
_symmetry_Int_Tables_number   1
_chemical_formula_structural   CdH20C22(NO2)2
_chemical_formula_sum   'Cd2 H40 C44 N4 O8'
_cell_volume   1036.86600826
_cell_formula_units_Z   2
loop_
 _symmetry_equiv_pos_site_id
 _symmetry_equiv_pos_as_xyz
  1  'x, y, z'
loop_
 _atom_site_type_symbol
 _atom_site_label
 _atom_site_symmetry_multiplicity
 _atom_site_fract_x
 _atom_site_fract_y
 _atom_site_fract_z
 _atom_site_occupancy
 _atom_site_hle17_bader_spin_density
 _atom_site_hle17_ddec_charge
 _atom_site_hle17_ddec_spin_density
 _atom_site_hle17_ddec_sum_bond_order
 _atom_site_hle17_magmom
 _atom_site_hse06_10hf_bader_spin_density
 _atom_site_hse06_10hf_ddec_charge
 _atom_site_hse06_10hf_ddec_spin_density
 _atom_site_hse06_10hf_ddec_sum_bond_order
 _atom_site_hse06_10hf_magmom
 _atom_site_hse06_bader_spin_density
 _atom_site_hse06_ddec_charge
 _atom_site_hse06_ddec_spin_density
 _atom_site_hse06_ddec_sum_bond_order
 _atom_site_hse06_magmom
 _atom_site_pbe_bader_spin_density
 _atom_site_pbe_cm5_charge
 _atom_site_pbe_ddec_charge
 _atom_site_pbe_ddec_spin_density
 _atom_site_pbe_ddec_sum_bond_order
 _atom_site_pbe_magmom
Cd  Cd0  1  0.93571493  0.11198356  0.14584129  1  0  1.105713  0  1.692671  0  0  0.909227  0  2.139956  0  0  0.97002  0  2.08768  0  0  0.764892  0.866049  0  2.174868  0
Cd  Cd1  1  0.06428713  0.88801751  0.85416297  1  0  1.10572  0  1.692671  0  0  0.909257  0  2.139956  0  0  0.970048  0  2.087681  0  0  0.764898  0.86608  0  2.17487  0
H  H2  1  0.27040151  0.16423810  0.24039844  1  0  0.070663  0  0.980653  0  0  0.07604  0  1.052791  0  0  0.077596  0  1.052419  0  0  0.109803  0.074963  0  1.052922  0
H  H3  1  0.72960053  0.83575756  0.75960462  1  0  0.070627  0  0.980606  0  0  0.076  0  1.052739  0  0  0.077556  0  1.052367  0  0  0.109784  0.074923  0  1.052869  0
H  H4  1  0.46034075  0.20720706  0.43791639  1  0  0.107046  0  0.944135  0  0  0.120975  0  0.999212  0  0  0.123572  0  0.999541  0  0  0.108389  0.118914  0  0.999477  0
H  H5  1  0.53965841  0.79279176  0.56208921  1  0  0.10703  0  0.944115  0  0  0.120969  0  0.999183  0  0  0.123565  0  0.999515  0  0  0.108375  0.118916  0  0.99944  0
H  H6  1  0.12937304  0.15767457  0.63587030  1  0  0.118861  0  0.942583  0  0  0.129639  0  0.998953  0  0  0.132862  0  0.998647  0  0  0.11104  0.12716  0  0.999572  0
H  H7  1  0.87062879  0.84232864  0.36413562  1  0  0.118884  0  0.942523  0  0  0.129643  0  0.998909  0  0  0.132866  0  0.998603  0  0  0.111056  0.127163  0  0.999528  0
H  H8  1  0.95261836  0.12137998  0.42945392  1  0  0.081611  0  0.941669  0  0  0.089684  0  1.007138  0  0  0.092285  0  1.004532  0  0  0.117828  0.08784  0  1.008909  0
H  H9  1  0.04738347  0.87862323  0.57055201  1  0  0.081668  0  0.941642  0  0  0.089736  0  1.007105  0  0  0.092336  0  1.004499  0  0  0.117828  0.087885  0  1.008877  0
H  H10  1  0.52590526  0.27783856  0.68244680  1  0  0.072088  0  0.947947  0  0  0.089173  0  1.009012  0  0  0.090044  0  1.00901  0  0  0.091702  0.088556  0  1.009064  0
H  H11  1  0.47409542  0.72216145  0.31755594  1  0  0.07212  0  0.947946  0  0  0.089191  0  1.009029  0  0  0.09006  0  1.009033  0  0  0.091715  0.088573  0  1.009082  0
H  H12  1  0.39022008  0.25721179  0.76502035  1  0  0.09506  0  0.945711  0  0  0.109543  0  1.010387  0  0  0.111077  0  1.009927  0  0  0.098344  0.108353  0  1.010917  0
H  H13  1  0.60978216  0.74278711  0.23498399  1  0  0.095101  0  0.94577  0  0  0.10958  0  1.010442  0  0  0.111116  0  1.009983  0  0  0.098363  0.108389  0  1.010972  0
H  H14  1  0.43647754  0.99987348  0.56088782  1  0  0.071555  0  0.946254  0  0  0.091332  0  1.005419  0  0  0.092084  0  1.005429  0  0  0.092933  0.09069  0  1.005671  0
H  H15  1  0.56352714  0.00012885  0.43911112  1  0  0.071519  0  0.946269  0  0  0.091287  0  1.005448  0  0  0.092039  0  1.005459  0  0  0.092928  0.090646  0  1.005701  0
H  H16  1  0.31787573  0.99278080  0.65975854  1  0  0.106025  0  0.926554  0  0  0.123532  0  0.984847  0  0  0.125343  0  0.983695  0  0  0.104327  0.122234  0  0.985659  0
H  H17  1  0.68212910  0.00721933  0.34024136  1  0  0.106007  0  0.926477  0  0  0.123528  0  0.984747  0  0  0.125339  0  0.983594  0  0  0.104325  0.122232  0  0.985559  0
H  H18  1  0.71319068  0.25569897  0.77732647  1  0  0.107038  0  0.942514  0  0  0.122357  0  0.992257  0  0  0.125456  0  0.991635  0  0  0.108892  0.119928  0  0.993291  0
H  H19  1  0.28681222  0.74429889  0.22267581  1  0  0.106994  0  0.942487  0  0  0.122318  0  0.992228  0  0  0.125415  0  0.991608  0  0  0.108887  0.119889  0  0.99326  0
H  H20  1  0.89695987  0.26475610  0.95860297  1  0  0.080748  0  0.925888  0  0  0.093376  0  0.981813  0  0  0.095489  0  0.979932  0  0  0.11865  0.091925  0  0.982991  0
H  H21  1  0.10304311  0.73524183  0.04139668  1  0  0.080741  0  0.925939  0  0  0.093348  0  0.981875  0  0  0.095461  0  0.979993  0  0  0.118658  0.091898  0  0.983052  0
H  H22  1  0.60469375  0.91409488  0.96742176  1  0  0.075729  0  0.956031  0  0  0.083985  0  1.021416  0  0  0.085275  0  1.02168  0  0  0.114049  0.082872  0  1.021687  0
H  H23  1  0.39530612  0.08590835  0.03258210  1  0  0.07574  0  0.956042  0  0  0.084003  0  1.021427  0  0  0.085291  0  1.021693  0  0  0.114043  0.082895  0  1.021683  0
H  H24  1  0.40502876  0.89173495  0.78796833  1  0  0.128784  0  0.97649  0  0  0.134713  0  1.041445  0  0  0.138565  0  1.040324  0  0  0.107268  0.131857  0  1.042633  0
H  H25  1  0.59497462  0.10826946  0.21203387  1  0  0.128746  0  0.976512  0  0  0.134714  0  1.041419  0  0  0.138563  0  1.040299  0  0  0.107252  0.131859  0  1.042606  0
H  H26  1  0.19633006  0.40426199  0.11543680  1  0  0.117455  0  0.928575  0  0  0.131506  0  0.986993  0  0  0.134642  0  0.984136  0  0  0.099472  0.129329  0  0.988975  0
H  H27  1  0.80366932  0.59573700  0.88456181  1  0  0.11744  0  0.928623  0  0  0.131521  0  0.987016  0  0  0.134654  0  0.984162  0  0  0.099481  0.129346  0  0.988997  0
H  H28  1  0.26926727  0.41034762  0.98121235  1  0  0.108524  0  0.944543  0  0  0.122362  0  1.006548  0  0  0.124477  0  1.00566  0  0  0.099012  0.121059  0  1.006985  0
H  H29  1  0.73072934  0.58965462  0.01878531  1  0  0.108516  0  0.944551  0  0  0.12238  0  1.00654  0  0  0.124503  0  1.005643  0  0  0.099007  0.121058  0  1.006998  0
H  H30  1  0.50674718  0.36854253  0.97487229  1  0  0.0885  0  0.974705  0  0  0.09949  0  1.039845  0  0  0.101817  0  1.039548  0  0  0.097554  0.097884  0  1.039935  0
H  H31  1  0.49325251  0.63145979  0.02512410  1  0  0.088397  0  0.974714  0  0  0.099398  0  1.039856  0  0  0.101722  0  1.039562  0  0  0.097531  0.097794  0  1.039944  0
H  H32  1  0.74917754  0.41623576  0.11265996  1  0  0.090284  0  0.966133  0  0  0.101785  0  1.026396  0  0  0.10446  0  1.025606  0  0  0.097125  0.099795  0  1.027027  0
H  H33  1  0.25082198  0.58376334  0.88733429  1  0  0.090297  0  0.966077  0  0  0.101791  0  1.026358  0  0  0.104465  0  1.025568  0  0  0.097122  0.099802  0  1.026989  0
H  H34  1  0.59148431  0.47544623  0.45520676  1  0  0.081356  0  0.977909  0  0  0.093304  0  1.042432  0  0  0.095686  0  1.041611  0  0  0.095342  0.091557  0  1.043211  0
H  H35  1  0.40851354  0.52454850  0.54478732  1  0  0.081502  0  0.978  0  0  0.093378  0  1.042586  0  0  0.095775  0  1.041746  0  0  0.095362  0.091627  0  1.043369  0
H  H36  1  0.34963437  0.43308275  0.31831434  1  0  0.087496  0  0.958221  0  0  0.099736  0  1.018859  0  0  0.102706  0  1.017076  0  0  0.09801  0.097736  0  1.01994  0
H  H37  1  0.65036064  0.56690977  0.68167934  1  0  0.087508  0  0.958259  0  0  0.099749  0  1.018884  0  0  0.102722  0  1.017098  0  0  0.098003  0.097744  0  1.019971  0
H  H38  1  0.83353068  0.48687145  0.47658898  1  0  0.114543  0  0.922316  0  0  0.130082  0  0.977982  0  0  0.132768  0  0.976348  0  0  0.099957  0.127949  0  0.979644  0
H  H39  1  0.16646605  0.51313089  0.52340519  1  0  0.114552  0  0.922305  0  0  0.130042  0  0.978046  0  0  0.132728  0  0.976412  0  0  0.099943  0.12791  0  0.979703  0
H  H40  1  0.91647773  0.57960178  0.39099945  1  0  0.107441  0  0.930906  0  0  0.121931  0  0.989341  0  0  0.124085  0  0.988373  0  0  0.097172  0.120481  0  0.990003  0
H  H41  1  0.08351891  0.42040049  0.60899734  1  0  0.10737  0  0.930956  0  0  0.121862  0  0.989389  0  0  0.12402  0  0.988418  0  0  0.097148  0.120412  0  0.99005  0
C  C42  1  0.24375994  0.16271924  0.32976520  1  0  0.129696  0  3.738829  0  0  0.097964  0  3.993043  0  0  0.105834  0  4.012921  0  0  0.040654  0.092781  0  3.979194  0
C  C43  1  0.75624337  0.83727971  0.67023755  1  0  0.129735  0  3.738742  0  0  0.09805  0  3.992944  0  0  0.105917  0  4.012824  0  0  0.040694  0.092865  0  3.979102  0
C  C44  1  0.34841831  0.18578602  0.44008808  1  0  -0.182489  0  3.721741  0  0  -0.202416  0  3.972361  0  0  -0.21174  0  3.9957  0  0  -0.088754  -0.196085  0  3.95638  0
C  C45  1  0.65158295  0.81421289  0.55991522  1  0  -0.182537  0  3.721776  0  0  -0.202487  0  3.972397  0  0  -0.211812  0  3.995734  0  0  -0.088737  -0.196164  0  3.956413  0
C  C46  1  0.30952506  0.18414630  0.55337650  1  0  0.165682  0  3.719962  0  0  0.182645  0  3.955758  0  0  0.18805  0  3.978516  0  0  0.016354  0.179217  0  3.940038  0
C  C47  1  0.69047614  0.81585256  0.44662855  1  0  0.165766  0  3.719869  0  0  0.182757  0  3.955652  0  0  0.188165  0  3.978404  0  0  0.016388  0.179335  0  3.93992  0
C  C48  1  0.16422437  0.15905844  0.54942562  1  0  -0.177913  0  3.696888  0  0  -0.193298  0  3.940846  0  0  -0.202457  0  3.962874  0  0  -0.082973  -0.187396  0  3.926219  0
C  C49  1  0.83577703  0.84094367  0.45058070  1  0  -0.177913  0  3.696924  0  0  -0.193283  0  3.940859  0  0  -0.202444  0  3.96289  0  0  -0.082979  -0.18738  0  3.926228  0
C  C50  1  0.06594076  0.13804674  0.43563600  1  0  0.133515  0  3.728384  0  0  0.101193  0  3.98259  0  0  0.109336  0  4.001221  0  0  0.047567  0.095881  0  3.969931  0
C  C51  1  0.93406067  0.86195538  0.56436945  1  0  0.133371  0  3.728419  0  0  0.101083  0  3.982613  0  0  0.109226  0  4.001246  0  0  0.047542  0.095782  0  3.969952  0
C  C52  1  0.41883636  0.20553227  0.67312601  1  0  -0.158093  0  3.696106  0  0  -0.203957  0  3.948981  0  0  -0.205534  0  3.960539  0  0  -0.158226  -0.202648  0  3.940809  0
C  C53  1  0.58116634  0.79446775  0.32687706  1  0  -0.158209  0  3.696182  0  0  -0.204113  0  3.949119  0  0  -0.205694  0  3.960681  0  0  -0.15829  -0.202803  0  3.940948  0
C  C54  1  0.42272456  0.05978824  0.65972226  1  0  -0.151363  0  3.671139  0  0  -0.194846  0  3.920627  0  0  -0.196035  0  3.930977  0  0  -0.152612  -0.19372  0  3.913235  0
C  C55  1  0.57727928  0.94021190  0.34027660  1  0  -0.151335  0  3.671004  0  0  -0.194782  0  3.920487  0  0  -0.19597  0  3.930836  0  0  -0.15259  -0.193662  0  3.913104  0
C  C56  1  0.54129522  0.07310361  0.76836246  1  0  0.163518  0  3.701921  0  0  0.17954  0  3.939752  0  0  0.185078  0  3.961924  0  0  0.016283  0.175949  0  3.924509  0
C  C57  1  0.45870758  0.92689650  0.23163711  1  0  0.163794  0  3.701799  0  0  0.179778  0  3.939658  0  0  0.185319  0  3.961822  0  0  0.016354  0.176187  0  3.924417  0
C  C58  1  0.68269967  0.17766640  0.81651570  1  0  -0.183593  0  3.716796  0  0  -0.200099  0  3.961196  0  0  -0.209105  0  3.983834  0  0  -0.087269  -0.194441  0  3.94623  0
C  C59  1  0.31730550  0.82233477  0.18348642  1  0  -0.183669  0  3.716847  0  0  -0.20017  0  3.961267  0  0  -0.209175  0  3.983901  0  0  -0.087291  -0.194513  0  3.946301  0
C  C60  1  0.78667328  0.18330660  0.91721655  1  0  0.131768  0  3.738606  0  0  0.099645  0  3.995585  0  0  0.107118  0  4.015195  0  0  0.045572  0.0949  0  3.982177  0
C  C61  1  0.21332924  0.81669020  0.08278437  1  0  0.131754  0  3.738605  0  0  0.099675  0  3.995572  0  0  0.107148  0  4.01518  0  0  0.045526  0.094927  0  3.982166  0
C  C62  1  0.62360751  0.98815508  0.92282183  1  0  0.130009  0  3.726789  0  0  0.101036  0  3.978602  0  0  0.108784  0  3.997367  0  0  0.046277  0.095979  0  3.966059  0
C  C63  1  0.37639300  0.01184710  0.07718083  1  0  0.130028  0  3.72676  0  0  0.101051  0  3.978591  0  0  0.1088  0  3.997354  0  0  0.046298  0.095994  0  3.966052  0
C  C64  1  0.51319473  0.97597226  0.82320754  1  0  -0.177219  0  3.677744  0  0  -0.19371  0  3.922508  0  0  -0.202354  0  3.942724  0  0  -0.08367  -0.187968  0  3.909346  0
C  C65  1  0.48680734  0.02402881  0.17679672  1  0  -0.17729  0  3.677803  0  0  -0.193797  0  3.922586  0  0  -0.202438  0  3.942798  0  0  -0.083636  -0.188055  0  3.909423  0
C  C66  1  0.18739481  0.19881049  0.96949254  1  0  0.696753  0  3.866164  0  0  0.65178  0  4.161909  0  0  0.685376  0  4.155497  0  0  0.199493  0.629059  0  4.165073  0
C  C67  1  0.81259967  0.80118856  0.03050090  1  0  0.696692  0  3.866272  0  0  0.651677  0  4.162101  0  0  0.685268  0  4.155696  0  0  0.199442  0.62896  0  4.165256  0
C  C68  1  0.26136382  0.36354017  0.05167242  1  0  -0.311043  0  3.692754  0  0  -0.354332  0  3.933306  0  0  -0.35932  0  3.939126  0  0  -0.163368  -0.350983  0  3.929062  0
C  C69  1  0.73863401  0.63645993  0.94832461  1  0  -0.311062  0  3.692726  0  0  -0.354391  0  3.933346  0  0  -0.359381  0  3.939163  0  0  -0.163368  -0.351032  0  3.929124  0
C  C70  1  0.41110720  0.39895313  0.13726509  1  0  0.104658  0  3.760016  0  0  0.125684  0  3.996207  0  0  0.125364  0  4.021108  0  0  -0.014562  0.125796  0  3.979556  0
C  C71  1  0.58888846  0.60104375  0.86272859  1  0  0.104698  0  3.759908  0  0  0.125645  0  3.996238  0  0  0.125324  0  4.021141  0  0  -0.014626  0.125762  0  3.979582  0
C  C72  1  0.52548525  0.39413710  0.08093692  1  0  -0.121304  0  3.757537  0  0  -0.14219  0  4.009489  0  0  -0.144152  0  4.031031  0  0  -0.096576  -0.140937  0  3.994874  0
C  C73  1  0.47451104  0.60585874  0.91905557  1  0  -0.121126  0  3.757489  0  0  -0.141986  0  4.00945  0  0  -0.143943  0  4.030986  0  0  -0.096478  -0.140734  0  3.994834  0
C  C74  1  0.66166313  0.42048248  0.15836879  1  0  -0.125363  0  3.743504  0  0  -0.142924  0  3.987985  0  0  -0.145788  0  4.009432  0  0  -0.097642  -0.140957  0  3.973229  0
C  C75  1  0.33833458  0.57951445  0.84162435  1  0  -0.125498  0  3.743557  0  0  -0.143077  0  3.988037  0  0  -0.145946  0  4.009494  0  0  -0.097712  -0.141111  0  3.973282  0
C  C76  1  0.68827018  0.45011185  0.29433965  1  0  0.122027  0  3.742505  0  0  0.142071  0  3.977339  0  0  0.143157  0  4.001578  0  0  -0.009425  0.141619  0  3.960706  0
C  C77  1  0.31172750  0.54988505  0.70565435  1  0  0.122143  0  3.742496  0  0  0.142241  0  3.977229  0  0  0.143326  0  4.001471  0  0  -0.009351  0.14179  0  3.960594  0
C  C78  1  0.57361430  0.45303477  0.34984753  1  0  -0.125033  0  3.765688  0  0  -0.145719  0  4.01505  0  0  -0.148345  0  4.037379  0  0  -0.097749  -0.143976  0  4.000093  0
C  C79  1  0.42638341  0.54696216  0.65014560  1  0  -0.125234  0  3.765889  0  0  -0.14589  0  4.01526  0  0  -0.148529  0  4.037594  0  0  -0.097787  -0.144144  0  4.000302  0
C  C80  1  0.43762814  0.42929794  0.27301381  1  0  -0.132598  0  3.773115  0  0  -0.151159  0  4.023265  0  0  -0.153532  0  4.04465  0  0  -0.097868  -0.14948  0  4.008547  0
C  C81  1  0.56236732  0.57069571  0.72697860  1  0  -0.132647  0  3.773141  0  0  -0.151175  0  4.023305  0  0  -0.15355  0  4.044696  0  0  -0.097864  -0.14949  0  4.008581  0
C  C82  1  0.83664338  0.47765288  0.37671959  1  0  -0.298933  0  3.681067  0  0  -0.341041  0  3.920853  0  0  -0.346838  0  3.928383  0  0  -0.163344  -0.337308  0  3.916012  0
C  C83  1  0.16335308  0.52235157  0.62327712  1  0  -0.298869  0  3.681102  0  0  -0.340956  0  3.920893  0  0  -0.346758  0  3.928428  0  0  -0.163306  -0.337222  0  3.916044  0
C  C84  1  0.88577254  0.35449227  0.30515120  1  0  0.687409  0  3.884898  0  0  0.645019  0  4.183715  0  0  0.677531  0  4.17951  0  0  0.18829  0.622947  0  4.185717  0
C  C85  1  0.11423047  0.64551108  0.69484965  1  0  0.687488  0  3.884901  0  0  0.645094  0  4.18373  0  0  0.677608  0  4.179517  0  0  0.188302  0.623023  0  4.185734  0
N  N86  1  0.10479836  0.13940387  0.32714076  1  0  -0.335856  0  3.269633  0  0  -0.255651  0  3.533066  0  0  -0.277166  0  3.551806  0  0  -0.334368  -0.240848  0  3.519951  0
N  N87  1  0.89520428  0.86059611  0.67286405  1  0  -0.335774  0  3.269499  0  0  -0.255633  0  3.532957  0  0  -0.277146  0  3.551698  0  0  -0.334391  -0.240832  0  3.519844  0
N  N88  1  0.75790989  0.09093327  0.97063886  1  0  -0.338112  0  3.270935  0  0  -0.263011  0  3.537157  0  0  -0.284093  0  3.557092  0  0  -0.333551  -0.248652  0  3.523295  0
N  N89  1  0.24209085  0.90906678  0.02936214  1  0  -0.338135  0  3.270821  0  0  -0.263053  0  3.537053  0  0  -0.284138  0  3.556997  0  0  -0.333573  -0.248696  0  3.523192  0
O  O90  1  0.10037136  0.13003063  0.01524019  1  0  -0.689432  0  2.068014  0  0  -0.609865  0  2.338364  0  0  -0.64294  0  2.327163  0  0  -0.34169  -0.586279  0  2.344505  0
O  O91  1  0.89962796  0.86996832  0.98476018  1  0  -0.689434  0  2.068177  0  0  -0.609831  0  2.338495  0  0  -0.642901  0  2.327293  0  0  -0.341684  -0.586248  0  2.344636  0
O  O92  1  0.21904413  0.13398127  0.86473834  1  0  -0.632516  0  1.894503  0  0  -0.576105  0  2.124557  0  0  -0.601859  0  2.116184  0  0  -0.326076  -0.5579  0  2.129733  0
O  O93  1  0.78094179  0.86601886  0.13525065  1  0  -0.632469  0  1.894448  0  0  -0.576013  0  2.124472  0  0  -0.601774  0  2.116118  0  0  -0.32604  -0.557807  0  2.129644  0
O  O94  1  0.82563273  0.23406867  0.30664459  1  0  -0.668613  0  1.937434  0  0  -0.609545  0  2.177563  0  0  -0.637548  0  2.168313  0  0  -0.344552  -0.589965  0  2.183225  0
O  O95  1  0.17437342  0.76593789  0.69336063  1  0  -0.668673  0  1.937374  0  0  -0.60956  0  2.17745  0  0  -0.637568  0  2.168198  0  0  -0.344533  -0.589982  0  2.183111  0
O  O96  1  0.97882054  0.37410524  0.24301753  1  0  -0.672055  0  1.882344  0  0  -0.62048  0  2.112197  0  0  -0.647126  0  2.102074  0  0  -0.357976  -0.60172  0  2.118019  0
O  O97  1  0.02118287  0.62589919  0.75698380  1  0  -0.672103  0  1.882355  0  0  -0.620547  0  2.112236  0  0  -0.647186  0  2.102099  0  0  -0.358011  -0.601785  0  2.118057  0
