# generated using pymatgen
data_CuH6(C4O3)2
_symmetry_space_group_name_H-M   'P 1'
_cell_length_a   7.42180550
_cell_length_b   10.45855302
_cell_length_c   11.24007296
_cell_angle_alpha   85.53679855
_cell_angle_beta   78.60193301
_cell_angle_gamma   82.25159602
_symmetry_Int_Tables_number   1
_chemical_formula_structural   CuH6(C4O3)2
_chemical_formula_sum   'Cu4 H24 C32 O24'
_cell_volume   846.27680644
_cell_formula_units_Z   4
loop_
 _symmetry_equiv_pos_site_id
 _symmetry_equiv_pos_as_xyz
  1  'x, y, z'
loop_
 _atom_site_type_symbol
 _atom_site_label
 _atom_site_symmetry_multiplicity
 _atom_site_fract_x
 _atom_site_fract_y
 _atom_site_fract_z
 _atom_site_occupancy
 _atom_site_hle17_ddec_charge
 _atom_site_hle17_ddec_spin_density
 _atom_site_hle17_ddec_sum_bond_order
 _atom_site_hle17_magmom
 _atom_site_hse06_10hf_ddec_charge
 _atom_site_hse06_10hf_ddec_spin_density
 _atom_site_hse06_10hf_ddec_sum_bond_order
 _atom_site_hse06_10hf_magmom
 _atom_site_hse06_ddec_charge
 _atom_site_hse06_ddec_spin_density
 _atom_site_hse06_ddec_sum_bond_order
 _atom_site_hse06_magmom
 _atom_site_pbe_cm5_charge
 _atom_site_pbe_ddec_charge
 _atom_site_pbe_ddec_spin_density
 _atom_site_pbe_ddec_sum_bond_order
 _atom_site_pbe_magmom
Cu  Cu0  1  0.92273124  0.76968946  0.65672907  1  1.036278  -0.718918  1.585289  -0.522  1.052806  -0.828708  1.958532  -0.667  1.137297  -0.904386  1.904162  -0.758  0.70728  0.992169  -0.768612  2.008793  -0.604
Cu  Cu1  1  0.07725365  0.23031472  0.34327687  1  1.036296  -0.718831  1.585058  -0.522  1.052856  -0.828656  1.958316  -0.667  1.137362  -0.90436  1.903947  -0.758  0.707281  0.9922  -0.768548  2.008589  -0.604
Cu  Cu2  1  0.41253765  0.78977173  0.45960514  1  1.009414  0.705792  1.574105  0.506  1.012964  0.803013  1.94654  0.633  1.100217  0.877451  1.886407  0.72  0.720304  0.948914  0.744827  2.002536  0.574
Cu  Cu3  1  0.58744283  0.21023445  0.54040125  1  1.009133  0.705705  1.574215  0.506  1.012844  0.80295  1.946344  0.632  1.099944  0.877401  1.886402  0.72  0.720249  0.948769  0.744763  2.00238  0.573
H  H4  1  0.30514995  0.21976088  0.03361052  1  0.121037  -1.9e-05  0.971744  0.0  0.126823  -7e-06  1.039464  0.0  0.13098  1.5e-05  1.036397  0.0  0.107077  0.124026  -4.7e-05  1.04143  0.0
H  H5  1  0.69484921  0.78024022  0.96639725  1  0.120965  -2.5e-05  0.971656  0.0  0.126716  -8e-06  1.039414  0.0  0.130874  1.5e-05  1.036346  0.0  0.107067  0.123925  -4.7e-05  1.041371  0.0
H  H6  1  0.00513248  0.17474341  0.99505492  1  0.09325  0.000407  0.961314  0.001  0.103647  0.000108  1.021292  0.0  0.105748  7.2e-05  1.021934  0.0  0.101566  0.102186  0.00013  1.020856  0.0
H  H7  1  0.99485716  0.82526651  0.00495437  1  0.093203  0.000412  0.961384  0.001  0.103613  0.000108  1.021344  0.0  0.105712  7.2e-05  1.02199  0.0  0.101536  0.102156  0.000129  1.020908  0.0
H  H8  1  0.99360480  0.03967436  0.82222819  1  0.118023  9.2e-05  0.944426  0.0  0.12203  -5.8e-05  1.013369  0.0  0.12606  -3.1e-05  1.010663  0.0  0.10535  0.119074  -7.1e-05  1.015479  0.0
H  H9  1  0.00637085  0.96032807  0.17778627  1  0.11795  8.7e-05  0.944589  0.0  0.122002  -5.8e-05  1.013463  0.0  0.126015  -3.2e-05  1.010797  0.0  0.105363  0.119047  -7.1e-05  1.01557  0.0
H  H10  1  0.78801119  0.57271175  0.04066333  1  0.104465  -6.3e-05  0.950909  0.0  0.114529  -0.000154  1.012743  0.0  0.117147  -0.000106  1.011967  0.0  0.107271  0.112777  -0.000177  1.013189  0.0
H  H11  1  0.21199610  0.42728055  0.95934311  1  0.104457  -6.5e-05  0.950867  0.0  0.114526  -0.000154  1.012688  0.0  0.117144  -0.000106  1.011914  0.0  0.107274  0.112766  -0.000177  1.013152  0.0
H  H12  1  0.69345768  0.39681230  0.19314331  1  0.10246  -0.000164  0.928397  0.0  0.112665  2.8e-05  0.982818  0.0  0.114949  2.6e-05  0.981806  0.0  0.106091  0.111  3e-05  0.983724  0.0
H  H13  1  0.30655265  0.60317803  0.80686287  1  0.102544  -0.000161  0.928411  0.0  0.112733  2.7e-05  0.982826  0.0  0.115054  2.6e-05  0.981763  0.0  0.106143  0.111071  3e-05  0.983728  0.0
H  H14  1  0.60704497  0.19526508  0.12556307  1  0.119496  0.000139  0.968216  0.0  0.127593  5.5e-05  1.031367  0.0  0.130453  4e-05  1.030745  0.0  0.107054  0.125661  5.6e-05  1.031735  0.0
H  H15  1  0.39296307  0.80473105  0.87443853  1  0.119532  0.000137  0.968193  0.0  0.127613  5.5e-05  1.031338  0.0  0.130466  4e-05  1.030729  0.0  0.107081  0.125681  5.6e-05  1.031711  0.0
H  H16  1  0.88484474  0.92714632  0.47313811  1  0.443864  0.000524  0.830287  0.001  0.421536  0.000128  0.894065  0.0  0.432814  0.000136  0.879035  0.0  0.308059  0.41349  0.000115  0.902821  0.0
H  H17  1  0.11514129  0.07285778  0.52685255  1  0.443867  0.000525  0.830245  0.001  0.421542  0.000128  0.894042  0.0  0.432821  0.000137  0.879021  0.0  0.308049  0.413496  0.000116  0.9028  0.0
H  H18  1  0.96622267  0.78937342  0.42274699  1  0.427499  -0.000196  0.870643  0.0  0.403065  -0.000585  0.924952  0.0  0.413945  -0.000418  0.909366  0.0  0.30041  0.395392  -0.000695  0.935876  -0.001
H  H19  1  0.03373667  0.21062630  0.57725747  1  0.427658  -0.000196  0.8704  0.0  0.403248  -0.000585  0.924697  0.0  0.41413  -0.000418  0.909107  0.0  0.30051  0.395577  -0.000695  0.935615  -0.001
H  H20  1  0.06146736  0.53835395  0.61075560  1  0.438937  0.000321  0.807037  0.001  0.423635  -0.000213  0.858157  0.0  0.434831  -0.0001  0.845867  0.0  0.321494  0.415409  -0.000311  0.867148  0.0
H  H21  1  0.93853070  0.46166554  0.38926246  1  0.43889  0.000321  0.807034  0.001  0.423578  -0.000212  0.85817  0.0  0.434779  -9.9e-05  0.845871  0.0  0.321427  0.415349  -0.000311  0.86717  0.0
H  H22  1  0.11730613  0.62746673  0.48826636  1  0.413942  0.000142  0.902882  0.001  0.379544  -0.000179  0.973904  0.0  0.392001  -9.2e-05  0.956059  0.0  0.288275  0.37075  -0.00024  0.98647  0.0
H  H23  1  0.88267052  0.37253758  0.51174159  1  0.413963  0.000143  0.902839  0.001  0.379531  -0.000178  0.973937  0.0  0.391989  -9.1e-05  0.956091  0.0  0.288265  0.370746  -0.000239  0.986496  0.0
H  H24  1  0.58652243  0.62746422  0.60284805  1  0.462473  3.7e-05  0.827277  0.0  0.435142  0.000435  0.884924  0.001  0.447394  0.000306  0.867317  0.0  0.306808  0.426427  0.000523  0.897399  0.001
H  H25  1  0.41353853  0.37258317  0.39713606  1  0.462738  3.5e-05  0.826872  0.0  0.435382  0.000434  0.884558  0.001  0.447633  0.000306  0.866952  0.0  0.306989  0.426668  0.000522  0.897029  0.001
H  H26  1  0.41952529  0.57338574  0.56144485  1  0.430533  -0.000549  0.825541  -0.001  0.409772  -1.8e-05  0.888506  0.0  0.420744  -9.6e-05  0.875876  0.0  0.312156  0.401753  5e-05  0.897661  0.0
H  H27  1  0.58080879  0.42647867  0.43837967  1  0.430091  -0.00055  0.827242  -0.001  0.409399  -2e-05  0.889902  0.0  0.420353  -9.7e-05  0.87733  0.0  0.311912  0.401374  4.9e-05  0.899055  0.0
C  C28  1  0.28918378  0.01382227  0.76306885  1  -0.074766  0.008489  3.76163  0.01  -0.063268  0.002907  4.005062  0.004  -0.072504  0.001742  4.029589  0.003  -0.019508  -0.057375  0.003659  3.988536  0.005
C  C29  1  0.71079069  0.98617823  0.23694059  1  -0.074869  0.008401  3.761794  0.01  -0.063397  0.002907  4.005168  0.004  -0.072641  0.001743  4.029692  0.003  -0.019503  -0.057501  0.003658  3.988631  0.005
C  C30  1  0.46085024  0.04206064  0.78289693  1  -0.170556  -0.015711  3.721231  -0.015  -0.178388  -0.004642  3.981323  -0.005  -0.184819  -0.002447  3.99755  -0.003  -0.019757  -0.173573  -0.006335  3.969607  -0.007
C  C31  1  0.53912465  0.95793695  0.21711267  1  -0.170528  -0.015637  3.721371  -0.015  -0.178263  -0.004643  3.981187  -0.005  -0.18467  -0.002445  3.997386  -0.003  -0.019825  -0.173457  -0.006339  3.969492  -0.007
C  C32  1  0.46405388  0.11831207  0.87942353  1  0.279224  -0.009735  3.751074  -0.008  0.255188  -0.002417  4.025226  -0.002  0.264645  -0.001559  4.039942  -0.002  0.0898  0.24889  -0.003192  4.015214  -0.003
C  C33  1  0.53592668  0.88168448  0.12058626  1  0.279244  -0.009847  3.751534  -0.008  0.25533  -0.00242  4.025438  -0.002  0.264767  -0.001561  4.040161  -0.002  0.089847  0.249028  -0.003196  4.015431  -0.003
C  C34  1  0.30087135  0.16546549  0.95578791  1  -0.153827  0.002812  3.702122  0.003  -0.178723  0.000501  3.965288  0.001  -0.179128  0.000576  3.97941  0.001  -0.091851  -0.178619  0.000509  3.955715  0.001
C  C35  1  0.69910857  0.83454455  0.04421825  1  -0.153694  0.002943  3.702115  0.003  -0.17858  0.000502  3.96525  0.001  -0.178981  0.000577  3.979373  0.001  -0.09187  -0.17848  0.00051  3.955689  0.001
C  C36  1  0.13177781  0.13819656  0.93442367  1  -0.020055  -0.008046  3.727535  -0.007  -0.03899  -0.002294  3.990055  -0.002  -0.040578  -0.001546  4.010159  -0.001  -0.082357  -0.037641  -0.002831  3.976063  -0.002
C  C37  1  0.86820669  0.86181053  0.06558387  1  -0.020087  -0.00818  3.727326  -0.007  -0.039048  -0.002297  3.989839  -0.002  -0.04064  -0.001547  4.009947  -0.001  -0.082307  -0.0377  -0.002836  3.975857  -0.002
C  C38  1  0.12482897  0.06329604  0.83859838  1  -0.069613  -0.005863  3.691819  -0.005  -0.104783  3.8e-05  3.959233  0.0  -0.105909  0.000472  3.980797  0.001  -0.08895  -0.103871  -6.3e-05  3.94473  0.0
C  C39  1  0.87514684  0.93670543  0.16141703  1  -0.069481  -0.005762  3.692036  -0.004  -0.104676  3.7e-05  3.959408  0.0  -0.105815  0.000472  3.980996  0.001  -0.088932  -0.103757  -6.5e-05  3.944891  0.0
C  C40  1  0.27680775  0.93134345  0.66265031  1  0.641668  -0.0032  3.900821  -0.007  0.606153  0.000301  4.191466  -0.002  0.645646  -0.000225  4.181565  -0.002  0.207714  0.57906  0.000806  4.196477  -0.002
C  C41  1  0.72318587  0.06865773  0.33735644  1  0.641569  -0.003197  3.900777  -0.007  0.606025  0.000301  4.191456  -0.002  0.645521  -0.000225  4.181528  -0.002  0.207619  0.578931  0.000806  4.196458  -0.002
C  C42  1  0.64196378  0.99104363  0.70628090  1  0.707359  -0.00056  3.826223  -0.001  0.666911  -0.00061  4.126583  -0.001  0.712568  -0.000398  4.111802  -0.001  0.230248  0.635347  -0.000764  4.135477  -0.001
C  C43  1  0.35801166  0.00895010  0.29372803  1  0.707322  -0.000555  3.826292  -0.001  0.66694  -0.000609  4.126509  -0.001  0.71259  -0.000399  4.111745  -0.001  0.23045  0.635374  -0.000764  4.135396  -0.001
C  C44  1  0.65858552  0.25825427  0.93685201  1  0.247983  0.003344  3.761723  0.003  0.235406  0.001557  4.024048  0.002  0.244006  0.001153  4.041283  0.001  0.089479  0.229446  0.001949  4.012713  0.002
C  C45  1  0.34140489  0.74174019  0.06315214  1  0.248073  0.003299  3.76152  0.003  0.235347  0.001557  4.02397  0.002  0.243925  0.001153  4.041218  0.001  0.089421  0.22939  0.001949  4.012641  0.002
C  C46  1  0.70934421  0.35652222  0.84992575  1  -0.150637  0.006244  3.696036  0.006  -0.150804  0.002857  3.937137  0.003  -0.15957  0.001851  3.957474  0.002  -0.012144  -0.145197  0.0038  3.923845  0.004
C  C47  1  0.29065531  0.64347597  0.15007864  1  -0.150844  0.006288  3.696257  0.006  -0.150755  0.002856  3.937137  0.003  -0.159512  0.001851  3.957461  0.002  -0.012139  -0.145147  0.0038  3.923843  0.004
C  C48  1  0.75308939  0.47135430  0.88889564  1  -0.048247  -0.00629  3.741334  -0.007  -0.032772  -0.003099  3.972124  -0.004  -0.039192  -0.001891  3.994713  -0.002  -0.008852  -0.028417  -0.003885  3.956959  -0.005
C  C49  1  0.24690507  0.52864108  0.11111144  1  -0.048203  -0.006332  3.741442  -0.007  -0.03285  -0.003097  3.972206  -0.004  -0.039266  -0.001889  3.994785  -0.002  -0.008861  -0.028488  -0.003882  3.957035  -0.005
C  C50  1  0.75091946  0.48440174  0.01190677  1  -0.070791  -0.001061  3.710367  -0.001  -0.099488  -0.000406  3.967903  0.0  -0.099376  -0.000376  3.987416  0.0  -0.079451  -0.099515  -0.000688  3.954644  0.0
C  C51  1  0.24908726  0.51559442  0.98809856  1  -0.070781  -0.001019  3.710275  -0.001  -0.099469  -0.000408  3.96782  0.0  -0.099361  -0.000376  3.987347  0.0  -0.079436  -0.099498  -0.00069  3.954557  0.0
C  C52  1  0.69744230  0.38585857  0.09716896  1  -0.010384  0.005522  3.717008  0.005  -0.029619  0.001948  3.983193  0.002  -0.029865  0.00132  4.002126  0.001  -0.076701  -0.029594  0.002495  3.970538  0.002
C  C53  1  0.30255459  0.61413869  0.90283497  1  -0.010492  0.005467  3.716978  0.005  -0.029715  0.001948  3.983135  0.002  -0.029988  0.00132  4.002073  0.001  -0.076764  -0.029689  0.002495  3.970491  0.002
C  C54  1  0.64940992  0.27292823  0.06022162  1  -0.151661  -0.002638  3.700873  -0.003  -0.177867  -0.000425  3.961069  -0.001  -0.181221  -0.000344  3.979694  0.0  -0.088479  -0.175832  -0.000883  3.948828  -0.001
C  C55  1  0.35058651  0.72707192  0.93978037  1  -0.151576  -0.002587  3.700721  -0.003  -0.177717  -0.000426  3.960931  -0.001  -0.181074  -0.000345  3.979587  0.0  -0.08839  -0.175687  -0.000884  3.948708  -0.001
C  C56  1  0.72809140  0.33361151  0.71765704  1  0.708739  -0.003385  3.836144  -0.006  0.659028  0.000689  4.138998  -0.001  0.700763  0.000265  4.12393  -0.001  0.22511  0.630403  0.001234  4.148068  -0.001
C  C57  1  0.27189788  0.66639068  0.28234667  1  0.709084  -0.003389  3.836076  -0.006  0.659278  0.000689  4.138964  -0.001  0.701019  0.000265  4.123893  -0.001  0.22521  0.630655  0.001234  4.148031  -0.001
C  C58  1  0.79028507  0.57974988  0.79620357  1  0.62814  0.005073  3.914765  0.009  0.585779  0.000938  4.21486  0.004  0.623362  0.001133  4.207831  0.003  0.203176  0.560221  0.000683  4.218709  0.004
C  C59  1  0.20969796  0.42024857  0.20380573  1  0.627986  0.005079  3.914923  0.009  0.585744  0.000937  4.214841  0.004  0.623323  0.001133  4.207807  0.003  0.203151  0.560184  0.000683  4.21868  0.004
O  O60  1  0.11939451  0.91786794  0.64210621  1  -0.676697  0.001557  2.103285  0.001  -0.648829  0.00032  2.375479  0.0  -0.675107  -3.5e-05  2.357486  -0.001  -0.333055  -0.629054  0.000678  2.387039  0.0
O  O61  1  0.88059112  0.08212178  0.35790075  1  -0.676573  0.001553  2.103397  0.001  -0.648732  0.00032  2.375603  0.0  -0.674997  -3.5e-05  2.357594  -0.001  -0.332982  -0.628968  0.000677  2.387181  0.0
O  O62  1  0.43125886  0.88023482  0.60048464  1  -0.581077  0.096593  2.080429  0.127  -0.555901  0.060078  2.365597  0.087  -0.598119  0.046168  2.356585  0.071  -0.314316  -0.525978  0.06804  2.370716  0.095
O  O63  1  0.56872902  0.11977703  0.39951851  1  -0.581079  0.096605  2.080407  0.127  -0.555896  0.06009  2.365477  0.087  -0.598086  0.046178  2.356499  0.071  -0.314312  -0.525965  0.068054  2.370589  0.095
O  O64  1  0.71442169  0.05574785  0.61213378  1  -0.586906  0.091847  2.104224  0.121  -0.567935  0.059405  2.39598  0.086  -0.614018  0.045854  2.386087  0.07  -0.307864  -0.536178  0.066591  2.402562  0.092
O  O65  1  0.28554306  0.94425276  0.38787253  1  -0.586872  0.091803  2.104014  0.12  -0.568018  0.059374  2.395908  0.086  -0.61414  0.045829  2.386007  0.07  -0.308068  -0.536266  0.06656  2.402494  0.092
O  O66  1  0.71862330  0.88466016  0.74557162  1  -0.552922  -0.07966  2.066124  -0.106  -0.534491  -0.048289  2.347438  -0.071  -0.579938  -0.036759  2.337936  -0.057  -0.294628  -0.502537  -0.053843  2.353399  -0.076
O  O67  1  0.28136511  0.11533917  0.25443777  1  -0.552849  -0.079702  2.066036  -0.106  -0.534483  -0.048316  2.347362  -0.071  -0.579924  -0.036775  2.337864  -0.057  -0.294662  -0.502538  -0.053874  2.353357  -0.076
O  O68  1  0.58381113  0.30572093  0.68481475  1  -0.595652  0.076802  2.074593  0.101  -0.567254  0.049383  2.351876  0.071  -0.607619  0.038447  2.339517  0.059  -0.314033  -0.538561  0.055026  2.360005  0.076
O  O69  1  0.41617692  0.69428032  0.31518920  1  -0.595893  0.07682  2.074721  0.101  -0.567437  0.049392  2.352077  0.071  -0.60785  0.038451  2.339708  0.059  -0.314081  -0.538746  0.055038  2.360206  0.076
O  O70  1  0.88629723  0.33840511  0.64879884  1  -0.647946  -0.000505  2.002804  0.0  -0.589655  9.6e-05  2.217834  0.0  -0.617799  -3.3e-05  2.20381  0.0  -0.317914  -0.570042  0.000195  2.227015  0.0
O  O71  1  0.11369715  0.66159025  0.35120380  1  -0.647998  -0.000504  2.002787  0.0  -0.589693  9.6e-05  2.21785  0.0  -0.617836  -3.4e-05  2.203825  0.0  -0.317917  -0.570079  0.000194  2.227031  0.0
O  O72  1  0.70858385  0.59121084  0.70683581  1  -0.649948  0.000555  2.054049  -0.001  -0.613725  0.001394  2.297733  0.0  -0.64288  0.00196  2.286654  0.001  -0.318409  -0.593002  0.000625  2.304672  -0.001
O  O73  1  0.29138348  0.40877340  0.29318298  1  -0.649981  0.000549  2.054018  -0.001  -0.613741  0.001392  2.297584  0.0  -0.642913  0.001958  2.286556  0.001  -0.318479  -0.593016  0.000623  2.304519  -0.001
O  O74  1  0.90753036  0.65537189  0.80945219  1  -0.566798  -0.110676  1.976468  -0.145  -0.543425  -0.066389  2.242125  -0.097  -0.588194  -0.047724  2.237962  -0.074  -0.305713  -0.513369  -0.07703  2.245066  -0.107
O  O75  1  0.09244610  0.34463338  0.19055304  1  -0.566821  -0.110671  1.976473  -0.145  -0.543513  -0.066391  2.24208  -0.097  -0.588314  -0.047724  2.237985  -0.074  -0.305727  -0.513454  -0.077031  2.245009  -0.107
O  O76  1  0.63721538  0.13938983  0.89643758  1  -0.301979  -0.005723  2.348635  -0.007  -0.233645  -0.001221  2.57555  -0.002  -0.252407  -0.000499  2.580718  -0.001  -0.154457  -0.220577  -0.001216  2.572088  -0.002
O  O77  1  0.36277111  0.86061238  0.10356384  1  -0.301997  -0.005733  2.348587  -0.007  -0.233786  -0.001222  2.575608  -0.002  -0.252522  -0.000499  2.580765  -0.001  -0.154499  -0.220716  -0.001218  2.572149  -0.002
O  O78  1  0.87681180  0.83385778  0.48869239  1  -0.809675  -0.042027  1.935477  -0.054  -0.77675  -0.032871  2.149186  -0.046  -0.803738  -0.025974  2.112218  -0.038  -0.576371  -0.75618  -0.037408  2.172839  -0.05
O  O79  1  0.12316452  0.16614846  0.51131279  1  -0.809881  -0.042023  1.935254  -0.054  -0.776971  -0.032873  2.149  -0.046  -0.803949  -0.025977  2.112045  -0.038  -0.576475  -0.756398  -0.037409  2.172656  -0.05
O  O80  1  0.11279167  0.61867010  0.58031193  1  -0.837919  -0.042522  1.935633  -0.054  -0.802407  -0.036424  2.1523  -0.05  -0.829614  -0.029313  2.114778  -0.042  -0.566637  -0.782335  -0.040522  2.178926  -0.053
O  O81  1  0.88717455  0.38135845  0.41969380  1  -0.837872  -0.042484  1.9357  -0.054  -0.802349  -0.036405  2.152322  -0.05  -0.829543  -0.0293  2.114787  -0.042  -0.566462  -0.78228  -0.040499  2.178925  -0.053
O  O82  1  0.52282799  0.62433996  0.53254124  1  -0.806628  0.051251  1.92422  0.066  -0.765495  0.042854  2.133695  0.06  -0.79388  0.035386  2.09729  0.052  -0.573253  -0.744924  0.046811  2.159726  0.062
O  O83  1  0.47731659  0.37571472  0.46739875  1  -0.806292  0.051243  1.925195  0.066  -0.765158  0.042854  2.134666  0.06  -0.79349  0.035387  2.098288  0.052  -0.573171  -0.744582  0.046811  2.160701  0.062
