# generated using pymatgen
data_H14PbC18(IN2)2
_symmetry_space_group_name_H-M   'P 1'
_cell_length_a   4.41589077
_cell_length_b   14.05752672
_cell_length_c   16.61871274
_cell_angle_alpha   105.69542847
_cell_angle_beta   90.04050741
_cell_angle_gamma   90.00002053
_symmetry_Int_Tables_number   1
_chemical_formula_structural   H14PbC18(IN2)2
_chemical_formula_sum   'H28 Pb2 C36 I4 N8'
_cell_volume   993.16519437
_cell_formula_units_Z   2
loop_
 _symmetry_equiv_pos_site_id
 _symmetry_equiv_pos_as_xyz
  1  'x, y, z'
loop_
 _atom_site_type_symbol
 _atom_site_label
 _atom_site_symmetry_multiplicity
 _atom_site_fract_x
 _atom_site_fract_y
 _atom_site_fract_z
 _atom_site_occupancy
 _atom_site_hle17_bader_spin_density
 _atom_site_hle17_ddec_charge
 _atom_site_hle17_ddec_spin_density
 _atom_site_hle17_ddec_sum_bond_order
 _atom_site_hle17_magmom
 _atom_site_hse06_10hf_bader_spin_density
 _atom_site_hse06_10hf_ddec_charge
 _atom_site_hse06_10hf_ddec_spin_density
 _atom_site_hse06_10hf_ddec_sum_bond_order
 _atom_site_hse06_10hf_magmom
 _atom_site_hse06_bader_spin_density
 _atom_site_hse06_ddec_charge
 _atom_site_hse06_ddec_spin_density
 _atom_site_hse06_ddec_sum_bond_order
 _atom_site_hse06_magmom
 _atom_site_pbe_bader_spin_density
 _atom_site_pbe_cm5_charge
 _atom_site_pbe_ddec_charge
 _atom_site_pbe_ddec_spin_density
 _atom_site_pbe_ddec_sum_bond_order
 _atom_site_pbe_magmom
H  H0  1  0.21091299  0.52993032  0.80432710  1  0  0.069673  0  0.965622  0  0  0.074523  0  1.038952  0  0  0.077174  0  1.037196  0  0  0.101363  0.072545  0  1.040281  0
H  H1  1  0.21067707  0.97006318  0.69556906  1  0  0.069899  0  0.965159  0  0  0.074622  0  1.038707  0  0  0.077229  0  1.037018  0  0  0.101405  0.072695  0  1.039964  0
H  H2  1  0.78908939  0.47006129  0.19567268  1  0  0.069713  0  0.965498  0  0  0.074543  0  1.038864  0  0  0.077168  0  1.037133  0  0  0.10137  0.072568  0  1.04018  0
H  H3  1  0.78925510  0.02993213  0.30443156  1  0  0.069994  0  0.96506  0  0  0.074642  0  1.038654  0  0  0.077241  0  1.03699  0  0  0.101431  0.072706  0  1.039914  0
H  H4  1  0.12926568  0.34846400  0.73965396  1  0  0.116144  0  0.951289  0  0  0.119552  0  1.02232  0  0  0.124197  0  1.018895  0  0  0.107937  0.116241  0  1.024834  0
H  H5  1  0.12898751  0.15150335  0.76025188  1  0  0.116008  0  0.951629  0  0  0.119426  0  1.02267  0  0  0.124081  0  1.019228  0  0  0.107728  0.116112  0  1.025187  0
H  H6  1  0.87070948  0.65153201  0.26033298  1  0  0.116058  0  0.95135  0  0  0.119518  0  1.022377  0  0  0.124151  0  1.018949  0  0  0.107907  0.116203  0  1.024894  0
H  H7  1  0.87098090  0.84850230  0.23974928  1  0  0.115999  0  0.951553  0  0  0.119364  0  1.022656  0  0  0.124004  0  1.019214  0  0  0.107714  0.11605  0  1.025173  0
H  H8  1  0.67463552  0.37673281  0.53136163  1  0  0.10061  0  0.998781  0  0  0.106574  0  1.069226  0  0  0.110634  0  1.067207  0  0  0.086691  0.103648  0  1.070815  0
H  H9  1  0.67478187  0.12331020  0.96870540  1  0  0.10047  0  0.998924  0  0  0.106498  0  1.069289  0  0  0.110561  0  1.06727  0  0  0.086548  0.10357  0  1.070881  0
H  H10  1  0.32531701  0.62327428  0.46862903  1  0  0.100661  0  0.998554  0  0  0.106603  0  1.069044  0  0  0.110663  0  1.067026  0  0  0.086707  0.103675  0  1.070636  0
H  H11  1  0.32518427  0.87668805  0.03129228  1  0  0.100555  0  0.999037  0  0  0.106642  0  1.069324  0  0  0.110703  0  1.067305  0  0  0.086617  0.103714  0  1.070919  0
H  H12  1  0.73674466  0.55578963  0.60472641  1  0  0.063935  0  0.975419  0  0  0.06986  0  1.046035  0  0  0.072777  0  1.043419  0  0  0.095521  0.067711  0  1.047945  0
H  H13  1  0.73684874  0.94429507  0.89532842  1  0  0.063957  0  0.975123  0  0  0.069776  0  1.045886  0  0  0.072682  0  1.043273  0  0  0.095491  0.067633  0  1.047775  0
H  H14  1  0.26321241  0.44421599  0.39526813  1  0  0.063957  0  0.975382  0  0  0.069832  0  1.046074  0  0  0.072744  0  1.043462  0  0  0.095526  0.067686  0  1.047988  0
H  H15  1  0.26321924  0.05571125  0.10465063  1  0  0.06401  0  0.975126  0  0  0.069863  0  1.045845  0  0  0.072763  0  1.043262  0  0  0.09553  0.06772  0  1.047736  0
H  H16  1  0.49711185  0.21969662  0.52729483  1  0  0.057459  0  0.963213  0  0  0.064228  0  1.037631  0  0  0.068128  0  1.032831  0  0  0.096305  0.061396  0  1.041157  0
H  H17  1  0.49720612  0.28034957  0.97275521  1  0  0.057624  0  0.963124  0  0  0.06422  0  1.037725  0  0  0.068132  0  1.032904  0  0  0.09642  0.061393  0  1.041247  0
H  H18  1  0.50291316  0.78030311  0.47270258  1  0  0.057445  0  0.963295  0  0  0.064279  0  1.037646  0  0  0.068128  0  1.032894  0  0  0.096355  0.061444  0  1.041172  0
H  H19  1  0.50284149  0.71965823  0.02722418  1  0  0.05762  0  0.963102  0  0  0.0642  0  1.037688  0  0  0.068111  0  1.032866  0  0  0.096352  0.061369  0  1.041209  0
H  H20  1  0.76710963  0.07132303  0.63904135  1  0  0.100262  0  0.944519  0  0  0.111512  0  1.004434  0  0  0.114063  0  1.004158  0  0  0.103137  0.109661  0  1.004725  0
H  H21  1  0.76687260  0.42866549  0.86087384  1  0  0.100248  0  0.944648  0  0  0.111414  0  1.004709  0  0  0.113976  0  1.00443  0  0  0.103015  0.109561  0  1.005001  0
H  H22  1  0.23289499  0.92867669  0.36095245  1  0  0.10029  0  0.94446  0  0  0.111549  0  1.004381  0  0  0.114105  0  1.004102  0  0  0.103154  0.109699  0  1.004675  0
H  H23  1  0.23310486  0.57133129  0.13912711  1  0  0.100292  0  0.944627  0  0  0.111473  0  1.004678  0  0  0.114031  0  1.004406  0  0  0.103087  0.109626  0  1.00497  0
H  H24  1  0.37648580  0.09664271  0.44308258  1  0  0.09613  0  0.969356  0  0  0.104576  0  1.035158  0  0  0.107466  0  1.033315  0  0  0.093951  0.102462  0  1.036599  0
H  H25  1  0.37650766  0.40340010  0.05702444  1  0  0.09609  0  0.969405  0  0  0.104739  0  1.035037  0  0  0.107549  0  1.033294  0  0  0.094  0.102643  0  1.036435  0
H  H26  1  0.62355281  0.90335261  0.55691925  1  0  0.096117  0  0.96922  0  0  0.104485  0  1.035117  0  0  0.107372  0  1.033278  0  0  0.093942  0.102373  0  1.036557  0
H  H27  1  0.62342001  0.59658637  0.94298380  1  0  0.096175  0  0.969373  0  0  0.104747  0  1.035098  0  0  0.107599  0  1.03331  0  0  0.094008  0.102651  0  1.036496  0
Pb  Pb28  1  0.52569980  0.74999615  0.74995299  1  0  0.860671  0  1.907809  0  0  0.676803  0  2.367807  0  0  0.732861  0  2.33589  0  0  0.341384  0.638554  0  2.387914  0
Pb  Pb29  1  0.47460159  0.25002141  0.25008156  1  0  0.860635  0  1.907857  0  0  0.676704  0  2.367926  0  0  0.732824  0  2.335932  0  0  0.341379  0.638485  0  2.388009  0
C  C30  1  0.31065065  0.49262020  0.74386692  1  0  0.11902  0  3.721189  0  0  0.090931  0  3.973869  0  0  0.09724  0  3.992659  0  0  0.039861  0.086878  0  3.961108  0
C  C31  1  0.31048975  0.00739124  0.75606243  1  0  0.118782  0  3.720031  0  0  0.09071  0  3.972781  0  0  0.097033  0  3.991582  0  0  0.039584  0.086634  0  3.960005  0
C  C32  1  0.68934492  0.50737879  0.25613033  1  0  0.11908  0  3.720864  0  0  0.091009  0  3.973543  0  0  0.097337  0  3.992342  0  0  0.039872  0.08696  0  3.960783  0
C  C33  1  0.68947411  0.99260922  0.24393153  1  0  0.118682  0  3.720192  0  0  0.090689  0  3.972909  0  0  0.097007  0  3.991701  0  0  0.039583  0.086624  0  3.960141  0
C  C34  1  0.26328552  0.39218679  0.70760282  1  0  -0.135845  0  3.66228  0  0  -0.153438  0  3.904024  0  0  -0.159649  0  3.923938  0  0  -0.075108  -0.149406  0  3.89065  0
C  C35  1  0.26309715  0.10781148  0.79234574  1  0  -0.136264  0  3.662189  0  0  -0.153778  0  3.903863  0  0  -0.160016  0  3.923763  0  0  -0.074975  -0.149718  0  3.89052  0
C  C36  1  0.73669645  0.60781219  0.29238901  1  0  -0.135772  0  3.662386  0  0  -0.153451  0  3.904145  0  0  -0.15964  0  3.924034  0  0  -0.075094  -0.149419  0  3.890774  0
C  C37  1  0.73686445  0.89218751  0.20765150  1  0  -0.136204  0  3.662091  0  0  -0.153671  0  3.903781  0  0  -0.159882  0  3.923662  0  0  -0.074983  -0.149611  0  3.890436  0
C  C38  1  0.39218764  0.34817392  0.62897293  1  0  0.093603  0  3.773878  0  0  0.110297  0  4.002358  0  0  0.112678  0  4.024173  0  0  0.008897  0.108868  0  3.987472  0
C  C39  1  0.39205934  0.15185088  0.87102697  1  0  0.094632  0  3.772643  0  0  0.111157  0  4.001106  0  0  0.1136  0  4.022848  0  0  0.009204  0.109642  0  3.986332  0
C  C40  1  0.60779660  0.65182506  0.37102010  1  0  0.093473  0  3.773891  0  0  0.110172  0  4.002385  0  0  0.112554  0  4.024191  0  0  0.008823  0.108742  0  3.987495  0
C  C41  1  0.60791132  0.84814516  0.12897021  1  0  0.094396  0  3.772501  0  0  0.110868  0  4.001006  0  0  0.113302  0  4.022753  0  0  0.009133  0.109357  0  3.986229  0
C  C42  1  0.56842852  0.40800319  0.59202723  1  0  -0.14619  0  3.697618  0  0  -0.162419  0  3.936054  0  0  -0.169987  0  3.957714  0  0  -0.083261  -0.157489  0  3.921523  0
C  C43  1  0.56843823  0.09204285  0.90800603  1  0  -0.146632  0  3.69787  0  0  -0.162817  0  3.93623  0  0  -0.170408  0  3.957861  0  0  -0.083308  -0.157857  0  3.921724  0
C  C44  1  0.43153987  0.59200318  0.40796567  1  0  -0.146184  0  3.697427  0  0  -0.162383  0  3.935844  0  0  -0.169951  0  3.957505  0  0  -0.083151  -0.157451  0  3.921313  0
C  C45  1  0.43154375  0.90795613  0.09198881  1  0  -0.146622  0  3.697876  0  0  -0.162853  0  3.936222  0  0  -0.170445  0  3.957863  0  0  -0.083375  -0.157894  0  3.921716  0
C  C46  1  0.60255961  0.50757242  0.63256430  1  0  0.118788  0  3.747626  0  0  0.093912  0  3.992183  0  0  0.100034  0  4.011922  0  0  0.036832  0.089966  0  3.978792  0
C  C47  1  0.60256917  0.99248579  0.86745183  1  0  0.119112  0  3.748207  0  0  0.094233  0  3.992841  0  0  0.100369  0  4.012571  0  0  0.036962  0.090289  0  3.979445  0
C  C48  1  0.39741558  0.49243247  0.36743248  1  0  0.118823  0  3.7475  0  0  0.093964  0  3.992087  0  0  0.100089  0  4.01183  0  0  0.036756  0.09001  0  3.978703  0
C  C49  1  0.39744676  0.00751686  0.13253541  1  0  0.119156  0  3.748145  0  0  0.094253  0  3.99277  0  0  0.100379  0  4.012499  0  0  0.036949  0.090307  0  3.979379  0
C  C50  1  0.34679748  0.24522841  0.58171678  1  0  0.126423  0  3.681423  0  0  0.093916  0  3.943013  0  0  0.102622  0  3.952465  0  0  0.07097  0.088073  0  3.936514  0
C  C51  1  0.34670455  0.25479135  0.91830297  1  0  0.125781  0  3.680934  0  0  0.093513  0  3.942514  0  0  0.102197  0  3.951957  0  0  0.070602  0.08769  0  3.936027  0
C  C52  1  0.65321168  0.75477279  0.41827916  1  0  0.126416  0  3.681352  0  0  0.093869  0  3.942914  0  0  0.102612  0  3.952389  0  0  0.070877  0.088032  0  3.936409  0
C  C53  1  0.65326837  0.74520468  0.08169420  1  0  0.125777  0  3.680673  0  0  0.093629  0  3.942114  0  0  0.102315  0  3.951562  0  0  0.070635  0.087811  0  3.935624  0
C  C54  1  0.08273393  0.09577087  0.54851156  1  0  0.196882  0  3.823795  0  0  0.202166  0  4.069513  0  0  0.204395  0  4.095204  0  0  0.085365  0.200676  0  4.052066  0
C  C55  1  0.08261643  0.40422418  0.95150099  1  0  0.196507  0  3.824361  0  0  0.202254  0  4.069405  0  0  0.204493  0  4.095094  0  0  0.085533  0.200765  0  4.051958  0
C  C56  1  0.91729788  0.90422592  0.45149000  1  0  0.196592  0  3.824007  0  0  0.202181  0  4.069323  0  0  0.204408  0  4.095013  0  0  0.085326  0.20069  0  4.05188  0
C  C57  1  0.91730671  0.59576156  0.04850889  1  0  0.196724  0  3.823571  0  0  0.202376  0  4.068767  0  0  0.204617  0  4.094465  0  0  0.085542  0.200886  0  4.051325  0
C  C58  1  0.86940037  0.03871519  0.57805781  1  0  -0.120907  0  3.725779  0  0  -0.13883  0  3.97181  0  0  -0.143256  0  3.994976  0  0  -0.08589  -0.135745  0  3.956031  0
C  C59  1  0.86923604  0.46126665  0.92189994  1  0  -0.120726  0  3.726205  0  0  -0.138863  0  3.972316  0  0  -0.143291  0  3.995481  0  0  -0.085893  -0.135786  0  3.956543  0
C  C60  1  0.13062464  0.96128233  0.42194090  1  0  -0.120814  0  3.725801  0  0  -0.138847  0  3.971739  0  0  -0.143279  0  3.994915  0  0  -0.085904  -0.135765  0  3.955964  0
C  C61  1  0.13069615  0.53872351  0.07810794  1  0  -0.121012  0  3.725887  0  0  -0.139174  0  3.972146  0  0  -0.143602  0  3.99529  0  0  -0.086142  -0.136109  0  3.95639  0
C  C62  1  0.21192081  0.05519890  0.46879710  1  0  -0.136103  0  3.748218  0  0  -0.152785  0  3.991578  0  0  -0.156172  0  4.014833  0  0  -0.094685  -0.150477  0  3.975881  0
C  C63  1  0.21189543  0.44481594  0.03125519  1  0  -0.135942  0  3.748108  0  0  -0.152899  0  3.991356  0  0  -0.156239  0  4.014645  0  0  -0.094734  -0.150585  0  3.975664  0
C  C64  1  0.78811779  0.94479492  0.53120078  1  0  -0.135926  0  3.748284  0  0  -0.152647  0  3.991572  0  0  -0.156029  0  4.014818  0  0  -0.094698  -0.150341  0  3.975875  0
C  C65  1  0.78802770  0.55517052  0.96875245  1  0  -0.136227  0  3.748304  0  0  -0.153099  0  3.991555  0  0  -0.156486  0  4.01484  0  0  -0.094814  -0.150781  0  3.975854  0
I  I66  1  0.04183221  0.74500522  0.61014951  1  0  -0.476722  0  1.135183  0  0  -0.406437  0  1.463779  0  0  -0.431392  0  1.445974  0  0  -0.13983  -0.388845  0  1.475715  0
I  I67  1  0.04229702  0.75498554  0.88973135  1  0  -0.476678  0  1.135239  0  0  -0.406434  0  1.463903  0  0  -0.431391  0  1.446152  0  0  -0.139809  -0.38884  0  1.475794  0
I  I68  1  0.95829936  0.25502344  0.38989539  1  0  -0.476744  0  1.135234  0  0  -0.406421  0  1.463807  0  0  -0.431398  0  1.44601  0  0  -0.139807  -0.388837  0  1.475739  0
I  I69  1  0.95780507  0.24503643  0.11029698  1  0  -0.476616  0  1.135177  0  0  -0.406366  0  1.46392  0  0  -0.431346  0  1.446156  0  0  -0.139791  -0.388784  0  1.475812  0
N  N70  1  0.47512311  0.55011802  0.70709559  1  0  -0.337696  0  3.218221  0  0  -0.264185  0  3.470957  0  0  -0.283942  0  3.493892  0  0  -0.308871  -0.250791  0  3.455172  0
N  N71  1  0.47509436  0.94991664  0.79287650  1  0  -0.337757  0  3.217631  0  0  -0.264197  0  3.470285  0  0  -0.283947  0  3.493196  0  0  -0.308796  -0.25081  0  3.454518  0
N  N72  1  0.52487701  0.44988320  0.29290638  1  0  -0.337712  0  3.218083  0  0  -0.26416  0  3.470778  0  0  -0.283924  0  3.493711  0  0  -0.30883  -0.25077  0  3.454999  0
N  N73  1  0.52492383  0.05008675  0.20711152  1  0  -0.33782  0  3.217651  0  0  -0.264252  0  3.47026  0  0  -0.284005  0  3.493181  0  0  -0.308838  -0.250869  0  3.454494  0
N  N74  1  0.13936488  0.19044711  0.60076548  1  0  -0.335744  0  3.078533  0  0  -0.302207  0  3.350262  0  0  -0.313271  0  3.364767  0  0  -0.309806  -0.294523  0  3.340192  0
N  N75  1  0.13912006  0.30955153  0.89924135  1  0  -0.33545  0  3.078565  0  0  -0.302047  0  3.35003  0  0  -0.313117  0  3.36455  0  0  -0.309623  -0.294359  0  3.339947  0
N  N76  1  0.86065786  0.80954893  0.39923049  1  0  -0.335728  0  3.078286  0  0  -0.30229  0  3.34997  0  0  -0.313351  0  3.364455  0  0  -0.309787  -0.294604  0  3.339895  0
N  N77  1  0.86078271  0.69043274  0.10077181  1  0  -0.335312  0  3.078002  0  0  -0.301916  0  3.349477  0  0  -0.312984  0  3.363989  0  0  -0.309477  -0.29423  0  3.339398  0
