# generated using pymatgen
data_Zn2H26C36N10OF2
_symmetry_space_group_name_H-M   'P 1'
_cell_length_a   20.09051242
_cell_length_b   20.23967576
_cell_length_c   20.22525285
_cell_angle_alpha   105.32344579
_cell_angle_beta   108.74580420
_cell_angle_gamma   113.04613662
_symmetry_Int_Tables_number   1
_chemical_formula_structural   Zn2H26C36N10OF2
_chemical_formula_sum   'Zn4 H52 C72 N20 O2 F4'
_cell_volume   6408.15198059
_cell_formula_units_Z   2
loop_
 _symmetry_equiv_pos_site_id
 _symmetry_equiv_pos_as_xyz
  1  'x, y, z'
loop_
 _atom_site_type_symbol
 _atom_site_label
 _atom_site_symmetry_multiplicity
 _atom_site_fract_x
 _atom_site_fract_y
 _atom_site_fract_z
 _atom_site_occupancy
 _atom_site_pbe_bader_charge
 _atom_site_pbe_bader_spin_density
 _atom_site_pbe_cm5_charge
 _atom_site_pbe_ddec_charge
 _atom_site_pbe_ddec_spin_density
 _atom_site_pbe_ddec_sum_bond_order
 _atom_site_pbe_magmom
Zn  Zn0  1  0.40382884  0.40026522  0.49408070  1  1.194019  0  0.749309  0.637748  0  2.426909  0
Zn  Zn1  1  0.61063197  0.60911226  0.49447994  1  1.189745  0  0.744525  0.609343  0  2.459323  0
Zn  Zn2  1  0.41042604  0.50232065  0.39045463  1  1.194809  0  0.746862  0.623291  0  2.415627  0
Zn  Zn3  1  0.60455481  0.51479594  0.60393491  1  1.195419  0  0.749924  0.636131  0  2.429599  0
H  H4  1  0.64647992  0.77923171  0.48265804  1  0.095548  0  0.12239  0.112904  0  0.98457  0
H  H5  1  0.42872513  0.00810212  0.31551830  1  0.086793  0  0.103239  0.121504  0  0.968896  0
H  H6  1  0.79637443  0.65809917  0.51414577  1  0.098047  0  0.121759  0.111621  0  0.989229  0
H  H7  1  0.53174875  0.04204153  0.33462702  1  0.033737  0  0.099565  0.110694  0  0.969386  0
H  H8  1  0.49870387  0.91255983  0.32087812  1  0.066975  0  0.101268  0.048951  0  0.951899  0
H  H9  1  0.48091640  0.08904758  0.52786584  1  0.037234  0  0.093932  0.094812  0  0.977821  0
H  H10  1  0.39977885  0.02106719  0.43156753  1  0.045003  0  0.093751  0.09571  0  0.974381  0
H  H11  1  0.50811749  0.98996895  0.54499869  1  0.015746  0  0.093638  0.094091  0  0.974175  0
H  H12  1  0.62728898  0.13781017  0.55215918  1  0.02068  0  0.09466  0.095615  0  0.972904  0
H  H13  1  0.64070952  0.02492107  0.53679445  1  0.039625  0  0.095196  0.09693  0  0.976875  0
H  H14  1  0.41139893  0.92018162  0.46084315  1  0.063032  0  0.09549  0.101211  0  0.979672  0
H  H15  1  0.35623144  0.61718291  0.47073180  1  0.118187  0  0.120979  0.110129  0  1.003355  0
H  H16  1  0.07096739  0.49607997  0.46464380  1  0.082044  0  0.101181  0.050823  0  0.950614  0
H  H17  1  0.39182880  0.37023089  0.24248819  1  0.091607  0  0.118182  0.104771  0  1.004664  0
H  H18  1  0.95759047  0.48151693  0.48359707  1  0.028064  0  0.095556  0.096936  0  0.987924  0
H  H19  1  0.08433005  0.59880205  0.70248801  1  0.068757  0  0.112163  0.064661  0  0.930767  0
H  H20  1  0.09761722  0.48182895  0.58883208  1  0.033669  0  0.096273  0.097571  0  0.988117  0
H  H21  1  0.17666599  0.56403078  0.67955478  1  0.051764  0  0.101298  0.115369  0  0.970068  0
H  H22  1  0.07757345  0.70617869  0.58258411  1  0.027398  0  0.095298  0.09878  0  0.972279  0
H  H23  1  0.10886363  0.71777493  0.67919427  1  0.037818  0  0.094719  0.094179  0  0.978748  0
H  H24  1  0.20289559  0.71750261  0.59890105  1  0.050928  0  0.096324  0.103818  0  0.978292  0
H  H25  1  0.97423262  0.56585104  0.46621765  1  0.070284  0  0.104674  0.125511  0  0.964632  0
H  H26  1  0.60370589  0.63589524  0.74389558  1  0.092239  0  0.119906  0.106743  0  0.998757  0
H  H27  1  0.22320136  0.70693456  0.68608689  1  0.045163  0  0.094973  0.097912  0  0.972426  0
H  H28  1  0.40503816  0.28908720  0.14541473  1  0.031622  0  0.1003  0.100806  0  0.998131  0
H  H29  1  0.41062505  0.24913714  0.02123642  1  0.084898  0  0.104668  0.10588  0  1.013213  0
H  H30  1  0.35656644  0.22796093  0.80969277  1  0.06049  0  0.105318  0.107908  0  0.99513  0
H  H31  1  0.35698686  0.26189551  0.70027000  1  0.02597  0  0.098993  0.100116  0  1.002076  0
H  H32  1  0.66601066  0.46432910  0.26807973  1  0.042426  0  0.099684  0.101608  0  1.000687  0
H  H33  1  0.62111170  0.36329741  0.93221751  1  0.086984  0  0.104919  0.105934  0  1.015672  0
H  H34  1  0.67067857  0.42119792  0.14350024  1  0.099096  0  0.105331  0.107775  0  0.996499  0
H  H35  1  0.62293797  0.39551043  0.82266488  1  0.043682  0  0.09925  0.098037  0  1.00424  0
H  H36  1  0.64166180  0.75381505  0.84727446  1  0.058317  0  0.101593  0.102774  0  0.996441  0
H  H37  1  0.61218273  0.76009068  0.59897662  1  0.097911  0  0.115065  0.098983  0  1.026314  0
H  H38  1  0.65770993  0.50431887  0.38504449  1  0.091741  0  0.117619  0.103618  0  1.010452  0
H  H39  1  0.73820073  0.88234298  0.96784738  1  0.103004  0  0.105833  0.107993  0  1.013079  0
H  H40  1  0.92981023  0.03835506  0.17384783  1  0.089953  0  0.106997  0.110556  0  0.990899  0
H  H41  1  0.06983036  0.14699218  0.28173021  1  0.08131  0  0.094454  0.106503  0  1.022801  0
H  H42  1  0.68039786  0.88042312  0.70878469  1  0.046705  0  0.10114  0.102916  0  1.001047  0
H  H43  1  0.77475859  0.00851950  0.82962786  1  0.075932  0  0.108378  0.113104  0  0.988251  0
H  H44  1  0.09702054  0.26576938  0.13404861  1  0.053553  0  0.104923  0.125015  0  0.997522  0
H  H45  1  0.38481232  0.24741158  0.37820466  1  0.090817  0  0.123569  0.11807  0  0.983711  0
H  H46  1  0.79170122  0.54187168  0.66536589  1  0.090165  0  0.124737  0.118642  0  0.979568  0
H  H47  1  0.21884012  0.37178532  0.23480119  1  0.089289  0  0.122924  0.11182  0  0.988847  0
H  H48  1  0.34685545  0.48283014  0.60607845  1  0.093969  0  0.122276  0.113653  0  0.989594  0
H  H49  1  0.36232553  0.30188163  0.59969173  1  0.107363  0  0.12085  0.109157  0  0.99465  0
H  H50  1  0.96853592  0.44336728  0.57789567  1  0.574985  0  0.310729  0.335217  0  0.925205  0
H  H51  1  0.89669319  0.10906420  0.98176533  1  0.619409  0  0.291411  0.280307  0  1.078066  0
H  H52  1  0.62545205  0.46293768  0.74932591  1  0.079205  0  0.120077  0.107372  0  0.997621  0
H  H53  1  0.38007500  0.64457209  0.35701624  1  0.08912  0  0.125311  0.116546  0  0.981498  0
H  H54  1  0.63626161  0.00999964  0.44521210  1  0.019994  0  0.092482  0.089264  0  0.980268  0
H  H55  1  0.65134874  0.13733829  0.47543740  1  0.024663  0  0.093733  0.094769  0  0.97786  0
C  C56  1  0.22837329  0.28311318  0.34689858  1  0.992981  0  0.202433  0.329163  0  4.090149  0
C  C57  1  0.35648618  0.51057529  0.56816763  1  0.415056  0  0.014764  -0.049157  0  3.93779  0
C  C58  1  0.56156479  0.42867546  0.70409189  1  0.408103  0  0.008587  -0.052459  0  3.994232  0
C  C59  1  0.78242365  0.62906377  0.55007041  1  0.403379  0  0.012244  -0.057673  0  3.97423  0
C  C60  1  0.44503859  0.66512630  0.38761332  1  0.457484  0  0.015382  -0.052655  0  3.960467  0
C  C61  1  0.49245033  0.36597841  0.69796105  1  0.01117  0  -0.036759  -0.043574  0  4.092447  0
C  C62  1  0.51352406  0.74365596  0.42320708  1  0.076748  0  -0.030721  0.05248  0  4.203246  0
C  C63  1  0.33045470  0.56155831  0.54937948  1  0.117699  0  -0.027902  0.052658  0  4.185276  0
C  C64  1  0.61882631  0.73051128  0.70046344  1  0.021669  0  -0.033475  -0.041134  0  4.060379  0
C  C65  1  0.60772554  0.10096854  0.49106610  1  -0.002343  0  -0.154677  -0.191236  0  3.852939  0
C  C66  1  0.48784010  0.01874656  0.35581550  1  -0.044517  0  -0.157929  -0.282156  0  3.864598  0
C  C67  1  0.82623550  0.60108440  0.59213140  1  0.133909  0  -0.029338  0.051732  0  4.201571  0
C  C68  1  0.47526584  0.93902740  0.35547686  1  0.482251  0  0.028834  0.198237  0  3.779352  0
C  C69  1  0.51451264  0.81523707  0.43030873  1  -0.426471  0  -0.069822  -0.132253  0  4.214278  0
C  C70  1  0.52006991  0.08131283  0.43912070  1  0.122796  0  -0.000796  0.19405  0  3.894362  0
C  C71  1  0.45588641  0.40978290  0.28725428  1  0.422913  0  0.012852  -0.040139  0  3.956295  0
C  C72  1  0.60667236  0.02201140  0.48034288  1  -0.020991  0  -0.152972  -0.183502  0  3.864711  0
C  C73  1  0.51673907  0.95011113  0.43973786  1  0.132467  0  -0.005764  0.111759  0  3.911324  0
C  C74  1  0.47198696  0.97292293  0.48300023  1  -0.026767  0  -0.15576  -0.183965  0  3.855248  0
C  C75  1  0.46367813  0.04261308  0.47217166  1  -0.034308  0  -0.154647  -0.191586  0  3.845124  0
C  C76  1  0.51556722  0.87733415  0.43762001  1  0.058827  0  -0.053487  -0.122232  0  4.103469  0
C  C77  1  0.52046572  0.15287859  0.43793307  1  0.09662  0  -0.048048  -0.119613  0  4.071501  0
C  C78  1  0.52786978  0.41803244  0.28458910  1  -0.018822  0  -0.033891  -0.042664  0  4.061476  0
C  C79  1  0.51834872  0.21229149  0.43850619  1  -0.426711  0  -0.070582  -0.111817  0  4.221003  0
C  C80  1  0.00334613  0.54510445  0.50501798  1  -0.043174  0  -0.15877  -0.275807  0  3.876745  0
C  C81  1  0.05765480  0.55687802  0.64107447  1  0.471229  0  0.003363  0.187187  0  3.81687  0
C  C82  1  0.12385638  0.54600973  0.62513475  1  -0.047211  0  -0.157534  -0.27118  0  3.861653  0
C  C83  1  0.58117728  0.36219838  0.50075846  1  1.003332  0  0.20746  0.330547  0  4.062929  0
C  C84  1  0.27652812  0.58105848  0.56793231  1  -0.305544  0  -0.064627  -0.118661  0  4.202512  0
C  C85  1  0.02556411  0.59438544  0.58990262  1  0.1223  0  -0.007142  0.119548  0  3.905585  0
C  C86  1  0.08059496  0.55402888  0.49970067  1  0.464843  0  0.02795  0.191654  0  3.78419  0
C  C87  1  0.15439562  0.59450769  0.58228478  1  0.146645  0  -0.004748  0.122688  0  3.920345  0
C  C88  1  0.17584571  0.68139440  0.62544132  1  -0.027105  0  -0.156692  -0.189224  0  3.865356  0
C  C89  1  0.51628528  0.28283506  0.44864990  1  0.194282  0  -0.035127  -0.057545  0  4.21593  0
C  C90  1  0.09769265  0.68111219  0.62148631  1  -0.034785  0  -0.153426  -0.185819  0  3.861913  0
C  C91  1  0.22353169  0.59096635  0.57703371  1  -0.065761  0  -0.057782  -0.130062  0  4.099285  0
C  C92  1  0.95512691  0.59621681  0.59299551  1  -0.176481  0  -0.055743  -0.119661  0  4.110043  0
C  C93  1  0.89651232  0.60002343  0.59406116  1  -0.180743  0  -0.067281  -0.125145  0  4.207268  0
C  C94  1  0.49007038  0.33453493  0.75475376  1  -0.003149  0  -0.006676  0.090248  0  4.043328  0
C  C95  1  0.59159647  0.47874777  0.35967340  1  0.425781  0  0.012605  -0.038448  0  3.943424  0
C  C96  1  0.56410104  0.35920234  0.81959588  1  -0.066103  0  -0.093631  -0.126953  0  3.99389  0
C  C97  1  0.56382751  0.34090374  0.88074436  1  0.039404  0  -0.086943  -0.134343  0  3.972304  0
C  C98  1  0.48844793  0.29585461  0.87877317  1  0.32469  0  0.080234  0.163438  0  4.057787  0
C  C99  1  0.41444481  0.26427275  0.81121378  1  -0.01844  0  -0.084369  -0.137069  0  3.982802  0
C  C100  1  0.42742687  0.34702828  0.62820501  1  0.387159  0  0.010059  -0.050536  0  3.98056  0
C  C101  1  0.41527515  0.28364911  0.75035938  1  -0.003856  0  -0.096708  -0.13576  0  4.001259  0
C  C102  1  0.46616817  0.29539092  0.07594142  1  -0.022573  0  -0.08583  -0.133273  0  3.965885  0
C  C103  1  0.46361796  0.31873875  0.14548408  1  -0.04085  0  -0.091942  -0.126834  0  3.9831  0
C  C104  1  0.54082635  0.33464391  0.07451782  1  0.338399  0  0.079713  0.162787  0  4.060808  0
C  C105  1  0.53443537  0.38232022  0.21586340  1  0.014678  0  -0.002895  0.095712  0  4.023265  0
C  C106  1  0.60993722  0.41586268  0.21474363  1  -0.024306  0  -0.096101  -0.133963  0  3.990731  0
C  C107  1  0.44880323  0.29284383  0.42016575  1  0.420739  0  0.017203  -0.032384  0  3.943624  0
C  C108  1  0.61316462  0.39222255  0.14538391  1  -0.021834  0  -0.08399  -0.138378  0  3.984219  0
C  C109  1  0.09417713  0.21462992  0.21590962  1  0.031455  0  -0.003231  0.144209  0  4.066929  0
C  C110  1  0.06121316  0.21751123  0.14500463  1  -0.023719  0  -0.112642  -0.270822  0  3.939407  0
C  C111  1  0.58118579  0.73399309  0.45155780  1  0.434034  0  0.012079  -0.05985  0  3.979415  0
C  C112  1  0.98199141  0.15762951  0.08469425  1  0.568418  0  0.095811  0.287361  0  4.043179  0
C  C113  1  0.93382045  0.09080562  0.09492695  1  0.395753  0  0.072751  0.037007  0  4.066894  0
C  C114  1  0.96738020  0.08969171  0.16731029  1  -0.067761  0  -0.085529  -0.116846  0  4.024272  0
C  C115  1  0.04537186  0.14992558  0.22686346  1  -0.020622  0  -0.114299  -0.179173  0  4.018958  0
C  C116  1  0.72436951  0.88103453  0.91068177  1  -0.014247  0  -0.086903  -0.140056  0  3.973532  0
C  C117  1  0.67087452  0.80945435  0.84286332  1  -0.077064  0  -0.091155  -0.126267  0  3.987474  0
C  C118  1  0.76533981  0.95310075  0.90637646  1  0.362102  0  0.082827  0.17119  0  4.067181  0
C  C119  1  0.78041029  0.57030041  0.62794130  1  0.457136  0  0.017546  -0.043557  0  3.961479  0
C  C120  1  0.65699312  0.80641655  0.76871217  1  0.004865  0  -0.0024  0.094579  0  4.026056  0
C  C121  1  0.69153710  0.88004507  0.76508670  1  -0.014151  0  -0.093841  -0.129417  0  3.995965  0
C  C122  1  0.36120208  0.57913259  0.49871564  1  0.407266  0  0.017949  -0.041147  0  3.922369  0
C  C123  1  0.74461029  0.95217114  0.83262881  1  -0.009882  0  -0.086362  -0.150453  0  3.996372  0
C  C124  1  0.23091868  0.34910686  0.27755038  1  0.429666  0  0.015809  -0.029872  0  3.996508  0
C  C125  1  0.17793596  0.27728241  0.27614830  1  0.09465  0  -0.04207  -0.159388  0  4.093242  0
C  C126  1  0.60222460  0.65538242  0.69858399  1  0.396532  0  0.012883  -0.041472  0  3.954101  0
C  C127  1  0.60725212  0.71892628  0.62487844  1  0.394825  0  0.013339  -0.035494  0  3.943287  0
N  N128  1  0.30265396  0.34980503  0.38640297  1  -0.809544  0  -0.276977  -0.290423  0  3.518412  0
N  N129  1  0.54851246  0.32875330  0.00687986  1  -0.519449  0  -0.16306  -0.153906  0  3.310156  0
N  N130  1  0.85966515  0.02321198  0.03625801  1  -0.513196  0  -0.168063  -0.130152  0  3.2998  0
N  N131  1  0.71591572  0.61539494  0.55976691  1  -0.80195  0  -0.276064  -0.182652  0  3.561766  0
N  N132  1  0.83189157  0.02533891  0.97038172  1  -0.607254  0  -0.171337  -0.154079  0  3.404271  0
N  N133  1  0.47615833  0.46250420  0.35745035  1  -0.783126  0  -0.282479  -0.180027  0  3.651686  0
N  N134  1  0.55612278  0.41456050  0.50466504  1  -0.791581  0  -0.287168  -0.298988  0  3.570449  0
N  N135  1  0.55947175  0.50478629  0.40205110  1  -0.798827  0  -0.280904  -0.176222  0  3.626831  0
N  N136  1  0.47300742  0.37106901  0.45429400  1  -0.783771  0  -0.288364  -0.191456  0  3.604088  0
N  N137  1  0.71463339  0.57864169  0.60818427  1  -0.788802  0  -0.274306  -0.184401  0  3.551032  0
N  N138  1  0.30415024  0.39181739  0.34252873  1  -0.799138  0  -0.265507  -0.163207  0  3.531172  0
N  N139  1  0.55500408  0.65650880  0.43478484  1  -0.797447  0  -0.272989  -0.181334  0  3.541682  0
N  N140  1  0.45575938  0.39444073  0.59595745  1  -0.799033  0  -0.268679  -0.176022  0  3.538318  0
N  N141  1  0.40049163  0.54003563  0.48739682  1  -0.786136  0  -0.280073  -0.18301  0  3.623536  0
N  N142  1  0.58450148  0.60492320  0.62831484  1  -0.802341  0  -0.283235  -0.185606  0  3.640393  0
N  N143  1  0.58765329  0.64403417  0.58301912  1  -0.782533  0  -0.281164  -0.18175  0  3.622864  0
N  N144  1  0.39772161  0.49810984  0.53014636  1  -0.782432  0  -0.284028  -0.186862  0  3.646599  0
N  N145  1  0.53944980  0.44543451  0.64348436  1  -0.795097  0  -0.27223  -0.177837  0  3.558458  0
N  N146  1  0.47016423  0.61360790  0.39495225  1  -0.789498  0  -0.269963  -0.182347  0  3.542756  0
N  N147  1  0.48072597  0.28745141  0.94329821  1  -0.473233  0  -0.164694  -0.157077  0  3.29214  0
O  O148  1  0.99451501  0.48418904  0.63127555  1  -1.09756  0  -0.41368  -0.500428  0  2.17446  0
O  O149  1  0.95322793  0.16204200  0.01732765  1  -1.141934  0  -0.352617  -0.422343  0  2.286167  0
F  F150  1  0.21135260  0.23091237  0.37768974  1  -0.641113  0  -0.092437  -0.147152  0  1.337755  0
F  F151  1  0.38948834  0.88207733  0.31932351  1  -0.639987  0  -0.159026  -0.219557  0  1.21189  0
F  F152  1  0.09988428  0.60189436  0.46068555  1  -0.635843  0  -0.157074  -0.214466  0  1.21367  0
F  F153  1  0.66018161  0.38708247  0.54538175  1  -0.640046  0  -0.08519  -0.136361  0  1.359413  0
