# generated using pymatgen
data_ZnH18C28(N4O)2
_symmetry_space_group_name_H-M   'P 1'
_cell_length_a   6.03245489
_cell_length_b   7.48550571
_cell_length_c   26.17239755
_cell_angle_alpha   90.00048128
_cell_angle_beta   96.44346474
_cell_angle_gamma   89.99975684
_symmetry_Int_Tables_number   1
_chemical_formula_structural   ZnH18C28(N4O)2
_chemical_formula_sum   'Zn2 H36 C56 N16 O4'
_cell_volume   1174.37454522
_cell_formula_units_Z   2
loop_
 _symmetry_equiv_pos_site_id
 _symmetry_equiv_pos_as_xyz
  1  'x, y, z'
loop_
 _atom_site_type_symbol
 _atom_site_label
 _atom_site_symmetry_multiplicity
 _atom_site_fract_x
 _atom_site_fract_y
 _atom_site_fract_z
 _atom_site_occupancy
 _atom_site_hle17_bader_spin_density
 _atom_site_hle17_ddec_charge
 _atom_site_hle17_ddec_spin_density
 _atom_site_hle17_ddec_sum_bond_order
 _atom_site_hle17_magmom
 _atom_site_hse06_10hf_bader_spin_density
 _atom_site_hse06_10hf_ddec_charge
 _atom_site_hse06_10hf_ddec_spin_density
 _atom_site_hse06_10hf_ddec_sum_bond_order
 _atom_site_hse06_10hf_magmom
 _atom_site_hse06_bader_spin_density
 _atom_site_hse06_ddec_charge
 _atom_site_hse06_ddec_spin_density
 _atom_site_hse06_ddec_sum_bond_order
 _atom_site_hse06_magmom
 _atom_site_pbe_bader_spin_density
 _atom_site_pbe_cm5_charge
 _atom_site_pbe_ddec_charge
 _atom_site_pbe_ddec_spin_density
 _atom_site_pbe_ddec_sum_bond_order
 _atom_site_pbe_magmom
Zn  Zn0  1  0.50000546  0.49999460  0.00000048  1  0  1.04096  0  1.957847  0  0  0.865062  0  2.425494  0  0  0.907022  0  2.377538  0  0  0.735668  0.836394  0  2.457769  0
Zn  Zn1  1  0.99999971  0.00000391  0.50000001  1  0  1.040908  0  1.957789  0  0  0.865028  0  2.425438  0  0  0.906995  0  2.37748  0  0  0.735665  0.836359  0  2.457713  0
H  H2  1  0.03150224  0.62910864  0.95389079  1  0  0.084801  0  0.977176  0  0  0.092084  0  1.043374  0  0  0.093643  0  1.042486  0  0  0.115727  0.090968  0  1.043958  0
H  H3  1  0.46849761  0.12910942  0.54610824  1  0  0.084816  0  0.977146  0  0  0.092133  0  1.043313  0  0  0.093686  0  1.042443  0  0  0.115723  0.091016  0  1.043892  0
H  H4  1  0.96849891  0.37088708  0.04611124  1  0  0.08479  0  0.977241  0  0  0.092079  0  1.043447  0  0  0.093636  0  1.04256  0  0  0.115748  0.090959  0  1.044032  0
H  H5  1  0.53149679  0.87089298  0.45388981  1  0  0.08479  0  0.977198  0  0  0.092125  0  1.043346  0  0  0.093683  0  1.042459  0  0  0.115747  0.091005  0  1.043928  0
H  H6  1  0.83210314  0.72003629  0.86907880  1  0  0.104618  0  0.947252  0  0  0.114847  0  1.006424  0  0  0.117536  0  1.006409  0  0  0.108641  0.112706  0  1.007047  0
H  H7  1  0.66790850  0.22004321  0.63091911  1  0  0.104682  0  0.947179  0  0  0.1149  0  1.006335  0  0  0.117611  0  1.006297  0  0  0.108639  0.112743  0  1.006997  0
H  H8  1  0.16790801  0.27995942  0.13092271  1  0  0.104657  0  0.94722  0  0  0.114879  0  1.006392  0  0  0.117572  0  1.006375  0  0  0.108655  0.11273  0  1.007027  0
H  H9  1  0.33208921  0.77997121  0.36907748  1  0  0.104649  0  0.947214  0  0  0.114877  0  1.006389  0  0  0.117573  0  1.006368  0  0  0.108643  0.112726  0  1.007026  0
H  H10  1  0.01746585  0.67261081  0.78952599  1  0  0.09971  0  0.950647  0  0  0.109098  0  1.013892  0  0  0.111641  0  1.012076  0  0  0.110314  0.107226  0  1.015235  0
H  H11  1  0.48254763  0.17262608  0.71047471  1  0  0.099727  0  0.950512  0  0  0.109015  0  1.013886  0  0  0.111589  0  1.012036  0  0  0.110337  0.107142  0  1.015232  0
H  H12  1  0.98254532  0.32738624  0.21047705  1  0  0.09975  0  0.950533  0  0  0.109031  0  1.01393  0  0  0.111595  0  1.012091  0  0  0.110327  0.107159  0  1.015272  0
H  H13  1  0.51745677  0.82738701  0.28952282  1  0  0.099779  0  0.950486  0  0  0.109076  0  1.013836  0  0  0.111639  0  1.011999  0  0  0.110337  0.107196  0  1.015194  0
H  H14  1  0.57778609  0.45087337  0.88592994  1  0  0.084882  0  0.967338  0  0  0.088576  0  1.040634  0  0  0.091566  0  1.037499  0  0  0.116467  0.086246  0  1.043259  0
H  H15  1  0.92221199  0.95088904  0.61407167  1  0  0.084784  0  0.967264  0  0  0.088495  0  1.040535  0  0  0.091493  0  1.037376  0  0  0.116421  0.086164  0  1.043182  0
H  H16  1  0.42220672  0.54911968  0.11407151  1  0  0.084836  0  0.967177  0  0  0.088509  0  1.040507  0  0  0.091508  0  1.037348  0  0  0.116394  0.086175  0  1.043135  0
H  H17  1  0.07778415  0.04911871  0.38592986  1  0  0.084877  0  0.967284  0  0  0.088562  0  1.040582  0  0  0.091558  0  1.03743  0  0  0.116455  0.086231  0  1.043206  0
H  H18  1  0.00953393  0.43658652  0.73776268  1  0  0.09493  0  0.965538  0  0  0.10383  0  1.031852  0  0  0.106859  0  1.030082  0  0  0.10118  0.101678  0  1.033124  0
H  H19  1  0.49046772  0.93659333  0.76223577  1  0  0.094919  0  0.965435  0  0  0.103846  0  1.031732  0  0  0.106874  0  1.029965  0  0  0.10118  0.101694  0  1.033005  0
H  H20  1  0.99047058  0.56340519  0.26224096  1  0  0.094944  0  0.965445  0  0  0.103871  0  1.031726  0  0  0.1069  0  1.029957  0  0  0.101179  0.101719  0  1.033001  0
H  H21  1  0.50954004  0.06342243  0.23776337  1  0  0.094939  0  0.965381  0  0  0.103835  0  1.031698  0  0  0.106864  0  1.029929  0  0  0.10114  0.101678  0  1.032972  0
H  H22  1  0.65489931  0.65605021  0.71607852  1  0  0.10064  0  0.960159  0  0  0.109023  0  1.025368  0  0  0.112499  0  1.022867  0  0  0.10199  0.106458  0  1.027327  0
H  H23  1  0.84510695  0.15606332  0.78391977  1  0  0.10065  0  0.960121  0  0  0.109043  0  1.025335  0  0  0.112512  0  1.022844  0  0  0.102  0.106479  0  1.027293  0
H  H24  1  0.34509834  0.34394818  0.28391541  1  0  0.10067  0  0.96014  0  0  0.109067  0  1.025327  0  0  0.112535  0  1.022835  0  0  0.102012  0.106533  0  1.027257  0
H  H25  1  0.15489751  0.84393640  0.21608120  1  0  0.100643  0  0.960187  0  0  0.109042  0  1.025382  0  0  0.112509  0  1.02289  0  0  0.102007  0.106484  0  1.027333  0
H  H26  1  0.52783454  0.70587474  0.62401094  1  0  0.094656  0  0.95716  0  0  0.106899  0  1.015544  0  0  0.10904  0  1.015366  0  0  0.101916  0.105377  0  1.015773  0
H  H27  1  0.97216037  0.20587268  0.87598879  1  0  0.094571  0  0.95723  0  0  0.106832  0  1.015602  0  0  0.108961  0  1.015431  0  0  0.101916  0.105305  0  1.015839  0
H  H28  1  0.47213146  0.29411163  0.37598448  1  0  0.094439  0  0.957297  0  0  0.106755  0  1.015645  0  0  0.108844  0  1.015536  0  0  0.10188  0.10526  0  1.015836  0
H  H29  1  0.02783909  0.79411369  0.12401243  1  0  0.094624  0  0.957083  0  0  0.106879  0  1.015487  0  0  0.109008  0  1.015311  0  0  0.101892  0.105352  0  1.015729  0
H  H30  1  0.14813794  0.61085942  0.58763665  1  0  0.08629  0  0.966295  0  0  0.096264  0  1.029272  0  0  0.097909  0  1.029447  0  0  0.098625  0.095076  0  1.029208  0
H  H31  1  0.35185182  0.11085074  0.91236358  1  0  0.086325  0  0.966245  0  0  0.0963  0  1.029225  0  0  0.097943  0  1.029404  0  0  0.098624  0.095108  0  1.029164  0
H  H32  1  0.85181981  0.38912695  0.41236316  1  0  0.086291  0  0.96627  0  0  0.096289  0  1.029234  0  0  0.097938  0  1.029404  0  0  0.098575  0.0951  0  1.029166  0
H  H33  1  0.64814929  0.88913830  0.08763654  1  0  0.08634  0  0.966242  0  0  0.096338  0  1.029199  0  0  0.097984  0  1.029372  0  0  0.098625  0.09515  0  1.029135  0
H  H34  1  0.88776292  0.47981359  0.64495012  1  0  0.083042  0  0.974999  0  0  0.091785  0  1.041722  0  0  0.094338  0  1.04138  0  0  0.096481  0.090014  0  1.041944  0
H  H35  1  0.61223531  0.97980730  0.85505047  1  0  0.083091  0  0.975009  0  0  0.09183  0  1.041732  0  0  0.094384  0  1.041388  0  0  0.096508  0.090055  0  1.041956  0
H  H36  1  0.11220328  0.52018213  0.35505487  1  0  0.08318  0  0.975131  0  0  0.09191  0  1.041847  0  0  0.094464  0  1.041503  0  0  0.09658  0.090141  0  1.04206  0
H  H37  1  0.38777913  0.02020045  0.14494884  1  0  0.083102  0  0.975104  0  0  0.091841  0  1.04181  0  0  0.09439  0  1.04147  0  0  0.096549  0.090064  0  1.042034  0
C  C38  1  0.23400676  0.81544830  0.03931570  1  0  0.516814  0  3.965568  0  0  0.47213  0  4.255685  0  0  0.499245  0  4.264764  0  0  0.316873  0.453681  0  4.249292  0
C  C39  1  0.26600236  0.31545950  0.46068570  1  0  0.516574  0  3.965442  0  0  0.471865  0  4.255593  0  0  0.498986  0  4.264666  0  0  0.31683  0.453395  0  4.249204  0
C  C40  1  0.76600941  0.18453539  0.96068670  1  0  0.516525  0  3.965364  0  0  0.471835  0  4.255517  0  0  0.498957  0  4.264597  0  0  0.316799  0.453374  0  4.249118  0
C  C41  1  0.73399710  0.68454824  0.53931515  1  0  0.516835  0  3.965652  0  0  0.472179  0  4.255763  0  0  0.49929  0  4.264841  0  0  0.316974  0.453724  0  4.249367  0
C  C42  1  0.26726383  0.11988120  0.02747705  1  0  0.504827  0  3.976376  0  0  0.464762  0  4.26242  0  0  0.490778  0  4.272759  0  0  0.310043  0.447084  0  4.255139  0
C  C43  1  0.23274571  0.61989071  0.47251973  1  0  0.504821  0  3.976693  0  0  0.464727  0  4.262733  0  0  0.490745  0  4.273071  0  0  0.310053  0.447035  0  4.255443  0
C  C44  1  0.73275389  0.88010116  0.97251967  1  0  0.504851  0  3.976684  0  0  0.464766  0  4.262735  0  0  0.490786  0  4.273076  0  0  0.310087  0.447075  0  4.255453  0
C  C45  1  0.76724208  0.38011837  0.52748083  1  0  0.504643  0  3.97653  0  0  0.464599  0  4.262556  0  0  0.490608  0  4.272891  0  0  0.30995  0.446922  0  4.255269  0
C  C46  1  0.10776666  0.61163972  0.91849450  1  0  0.148142  0  3.654313  0  0  0.114206  0  3.903067  0  0  0.121969  0  3.921695  0  0  0.055807  0.109309  0  3.890359  0
C  C47  1  0.39223810  0.11163347  0.58150535  1  0  0.147954  0  3.654405  0  0  0.114016  0  3.903218  0  0  0.121774  0  3.921848  0  0  0.055774  0.109126  0  3.890495  0
C  C48  1  0.89224446  0.38836936  0.08150587  1  0  0.147974  0  3.654328  0  0  0.114016  0  3.903202  0  0  0.121784  0  3.921825  0  0  0.055758  0.109123  0  3.890486  0
C  C49  1  0.60775464  0.88836893  0.41849304  1  0  0.148028  0  3.654362  0  0  0.114065  0  3.903206  0  0  0.12183  0  3.921832  0  0  0.055749  0.109175  0  3.89048  0
C  C50  1  0.99702429  0.66001153  0.87104489  1  0  -0.105842  0  3.708614  0  0  -0.11853  0  3.966652  0  0  -0.126827  0  3.987989  0  0  -0.077558  -0.113406  0  3.952768  0
C  C51  1  0.50298372  0.16002265  0.62895575  1  0  -0.105909  0  3.70853  0  0  -0.11856  0  3.966554  0  0  -0.126871  0  3.987889  0  0  -0.077568  -0.113438  0  3.952663  0
C  C52  1  0.00298521  0.33998419  0.12895735  1  0  -0.105717  0  3.708323  0  0  -0.118359  0  3.966318  0  0  -0.126661  0  3.987659  0  0  -0.077508  -0.11323  0  3.952429  0
C  C53  1  0.49701403  0.83999311  0.37104276  1  0  -0.105839  0  3.708423  0  0  -0.118518  0  3.96645  0  0  -0.126822  0  3.987791  0  0  -0.077563  -0.113395  0  3.952558  0
C  C54  1  0.09974386  0.63148710  0.82675832  1  0  0.006402  0  3.671409  0  0  -0.025338  0  3.921967  0  0  -0.019216  0  3.939678  0  0  -0.051715  -0.028802  0  3.909601  0
C  C55  1  0.40026432  0.13149216  0.67323979  1  0  0.006371  0  3.671605  0  0  -0.025263  0  3.922177  0  0  -0.019167  0  3.939885  0  0  -0.051744  -0.028742  0  3.909811  0
C  C56  1  0.90026061  0.36851931  0.17324303  1  0  0.006265  0  3.671558  0  0  -0.02538  0  3.922133  0  0  -0.019274  0  3.93984  0  0  -0.051767  -0.028851  0  3.90977  0
C  C57  1  0.59973842  0.86851558  0.32675846  1  0  0.006299  0  3.671537  0  0  -0.025314  0  3.922102  0  0  -0.01921  0  3.939811  0  0  -0.051746  -0.028782  0  3.909731  0
C  C58  1  0.31021856  0.55012489  0.83125505  1  0  -0.098861  0  3.752276  0  0  -0.076326  0  3.985364  0  0  -0.089089  0  4.011386  0  0  -0.015474  -0.068053  0  3.96788  0
C  C59  1  0.18978923  0.05013724  0.66874729  1  0  -0.098804  0  3.752125  0  0  -0.076354  0  3.985295  0  0  -0.089119  0  4.01133  0  0  -0.015511  -0.06805  0  3.967767  0
C  C60  1  0.68979260  0.44987484  0.16874723  1  0  -0.098728  0  3.752249  0  0  -0.07631  0  3.985364  0  0  -0.08908  0  4.011391  0  0  -0.015476  -0.068023  0  3.967862  0
C  C61  1  0.81020690  0.94987184  0.33125385  1  0  -0.098768  0  3.752129  0  0  -0.076343  0  3.985315  0  0  -0.089102  0  4.011344  0  0  -0.015466  -0.068057  0  3.967813  0
C  C62  1  0.41189193  0.51021147  0.88081691  1  0  0.129934  0  3.66692  0  0  0.089147  0  3.914959  0  0  0.098012  0  3.932467  0  0  0.060279  0.083397  0  3.903325  0
C  C63  1  0.08812054  0.01021637  0.61918118  1  0  0.129935  0  3.666593  0  0  0.089226  0  3.91465  0  0  0.098097  0  3.932156  0  0  0.06038  0.083461  0  3.903003  0
C  C64  1  0.58812416  0.48978959  0.11918167  1  0  0.129841  0  3.666611  0  0  0.089168  0  3.91466  0  0  0.098033  0  3.932175  0  0  0.060367  0.083421  0  3.903007  0
C  C65  1  0.91188725  0.98978603  0.38081911  1  0  0.129852  0  3.666569  0  0  0.089193  0  3.914591  0  0  0.098058  0  3.932098  0  0  0.060324  0.083442  0  3.902946  0
C  C66  1  0.43815155  0.50821112  0.78719399  1  0  0.390622  0  3.724425  0  0  0.372302  0  3.979421  0  0  0.395033  0  3.982952  0  0  0.163246  0.356917  0  3.976836  0
C  C67  1  0.06184257  0.00822634  0.71280477  1  0  0.390545  0  3.724447  0  0  0.372216  0  3.979504  0  0  0.394938  0  3.983055  0  0  0.163183  0.356826  0  3.97691  0
C  C68  1  0.56185790  0.49178727  0.21280633  1  0  0.390663  0  3.724418  0  0  0.372469  0  3.979314  0  0  0.39522  0  3.982812  0  0  0.163247  0.357077  0  3.976738  0
C  C69  1  0.93815187  0.99179877  0.28719556  1  0  0.390679  0  3.724525  0  0  0.372344  0  3.979595  0  0  0.395069  0  3.983138  0  0  0.16325  0.356945  0  3.977023  0
C  C70  1  0.34220187  0.54207548  0.73308294  1  0  -0.04491  0  3.783613  0  0  -0.02549  0  4.015438  0  0  -0.032026  0  4.040066  0  0  -0.022464  -0.021098  0  3.998658  0
C  C71  1  0.15780583  0.04209155  0.76691745  1  0  -0.044842  0  3.783466  0  0  -0.0254  0  4.015284  0  0  -0.031937  0  4.039922  0  0  -0.022432  -0.021008  0  3.998508  0
C  C72  1  0.65780093  0.45791490  0.26691798  1  0  -0.045099  0  3.783772  0  0  -0.025798  0  4.015712  0  0  -0.032345  0  4.040342  0  0  -0.022554  -0.021411  0  3.998953  0
C  C73  1  0.84219528  0.95791620  0.23308267  1  0  -0.044828  0  3.783366  0  0  -0.025434  0  4.015251  0  0  -0.031972  0  4.039885  0  0  -0.022452  -0.021035  0  3.998472  0
C  C74  1  0.12404152  0.49546100  0.71306971  1  0  -0.09601  0  3.736257  0  0  -0.117517  0  3.984098  0  0  -0.118801  0  4.005878  0  0  -0.08828  -0.116484  0  3.969266  0
C  C75  1  0.37595885  0.99546507  0.78693049  1  0  -0.095968  0  3.736076  0  0  -0.117484  0  3.983887  0  0  -0.118767  0  4.005673  0  0  -0.0883  -0.116455  0  3.969055  0
C  C76  1  0.87596303  0.50453873  0.28693547  1  0  -0.09598  0  3.735987  0  0  -0.117451  0  3.983807  0  0  -0.118735  0  4.005592  0  0  -0.088212  -0.11642  0  3.96898  0
C  C77  1  0.62404557  0.00453600  0.21306857  1  0  -0.096165  0  3.736061  0  0  -0.117635  0  3.983902  0  0  -0.118919  0  4.005685  0  0  -0.088332  -0.116597  0  3.969063  0
C  C78  1  0.48748190  0.61598150  0.70029058  1  0  -0.084046  0  3.723553  0  0  -0.105658  0  3.970678  0  0  -0.106332  0  3.990443  0  0  -0.084686  -0.104965  0  3.957083  0
C  C79  1  0.01252457  0.11599117  0.79971009  1  0  -0.084152  0  3.723735  0  0  -0.105803  0  3.970904  0  0  -0.106465  0  3.990656  0  0  -0.084727  -0.105106  0  3.957295  0
C  C80  1  0.51250911  0.38401823  0.29970470  1  0  -0.084127  0  3.723764  0  0  -0.105734  0  3.97096  0  0  -0.106385  0  3.990693  0  0  -0.084677  -0.105074  0  3.957374  0
C  C81  1  0.98748156  0.88400722  0.20029092  1  0  -0.084212  0  3.723639  0  0  -0.105841  0  3.970824  0  0  -0.106513  0  3.990602  0  0  -0.08478  -0.105145  0  3.957209  0
C  C82  1  0.41641019  0.64277475  0.64854775  1  0  -0.066393  0  3.764079  0  0  -0.080782  0  4.016787  0  0  -0.083322  0  4.039084  0  0  -0.090256  -0.079008  0  4.001478  0
C  C83  1  0.08358145  0.14277079  0.85145342  1  0  -0.066054  0  3.76423  0  0  -0.080445  0  4.016906  0  0  -0.082965  0  4.039208  0  0  -0.090196  -0.078678  0  4.00161  0
C  C84  1  0.58355914  0.35721697  0.35144699  1  0  -0.065803  0  3.763928  0  0  -0.080263  0  4.016614  0  0  -0.082764  0  4.038919  0  0  -0.090131  -0.078514  0  4.0013  0
C  C85  1  0.91641805  0.85721959  0.14854933  1  0  -0.065989  0  3.764035  0  0  -0.080398  0  4.016715  0  0  -0.082919  0  4.039017  0  0  -0.090102  -0.078637  0  4.001421  0
C  C86  1  0.20138743  0.59131756  0.62842860  1  0  -0.049153  0  3.73463  0  0  -0.064055  0  3.983028  0  0  -0.065152  0  4.005247  0  0  -0.085128  -0.063088  0  3.967694  0
C  C87  1  0.29860221  0.09131174  0.87157116  1  0  -0.049245  0  3.73477  0  0  -0.064166  0  3.983188  0  0  -0.065263  0  4.005404  0  0  -0.085079  -0.063199  0  3.967857  0
C  C88  1  0.79858197  0.40866747  0.37156996  1  0  -0.049368  0  3.734826  0  0  -0.064302  0  3.983281  0  0  -0.065398  0  4.005487  0  0  -0.085112  -0.063333  0  3.967945  0
C  C89  1  0.70140057  0.90868398  0.12842862  1  0  -0.049358  0  3.734709  0  0  -0.064286  0  3.983121  0  0  -0.065384  0  4.005337  0  0  -0.08514  -0.063322  0  3.967791  0
C  C90  1  0.05598850  0.51810889  0.66069265  1  0  -0.069766  0  3.758437  0  0  -0.082582  0  4.008318  0  0  -0.085884  0  4.031019  0  0  -0.093159  -0.080339  0  3.992777  0
C  C91  1  0.44400739  0.01810413  0.83930812  1  0  -0.069949  0  3.758551  0  0  -0.082761  0  4.008448  0  0  -0.086063  0  4.031151  0  0  -0.093281  -0.080512  0  3.992904  0
C  C92  1  0.94399437  0.48187882  0.33931237  1  0  -0.069916  0  3.758741  0  0  -0.082732  0  4.008614  0  0  -0.086038  0  4.031324  0  0  -0.093338  -0.080489  0  3.993063  0
C  C93  1  0.55599704  0.98189961  0.16069132  1  0  -0.069812  0  3.758491  0  0  -0.082622  0  4.00839  0  0  -0.085921  0  4.031097  0  0  -0.093237  -0.080369  0  3.992844  0
N  N94  1  0.31988909  0.25839658  0.01114155  1  0  -0.586298  0  2.852964  0  0  -0.540003  0  3.139721  0  0  -0.561035  0  3.143744  0  0  -0.370018  -0.525731  0  3.136909  0
N  N95  1  0.18012796  0.75840403  0.48885676  1  0  -0.586303  0  2.853119  0  0  -0.540013  0  3.139892  0  0  -0.561044  0  3.143911  0  0  -0.370038  -0.525745  0  3.137086  0
N  N96  1  0.68013544  0.74159780  0.98886221  1  0  -0.586344  0  2.853085  0  0  -0.540036  0  3.139815  0  0  -0.561069  0  3.143837  0  0  -0.370031  -0.525765  0  3.137012  0
N  N97  1  0.81987312  0.24161306  0.51114222  1  0  -0.58625  0  2.852971  0  0  -0.539948  0  3.139697  0  0  -0.560979  0  3.14372  0  0  -0.369993  -0.525679  0  3.136886  0
N  N98  1  0.25996567  0.66028029  0.03418679  1  0  -0.597716  0  2.840682  0  0  -0.551075  0  3.132661  0  0  -0.571755  0  3.134306  0  0  -0.374582  -0.537063  0  3.131556  0
N  N99  1  0.24004585  0.16028910  0.46581363  1  0  -0.597626  0  2.840506  0  0  -0.551048  0  3.13261  0  0  -0.571727  0  3.134253  0  0  -0.374657  -0.537037  0  3.131513  0
N  N100  1  0.74004209  0.33971009  0.96581196  1  0  -0.597589  0  2.8403  0  0  -0.550976  0  3.132317  0  0  -0.571654  0  3.133963  0  0  -0.374581  -0.536966  0  3.131216  0
N  N101  1  0.75995363  0.83971731  0.53418797  1  0  -0.59776  0  2.840651  0  0  -0.551165  0  3.132672  0  0  -0.571845  0  3.13432  0  0  -0.37467  -0.537152  0  3.131565  0
N  N102  1  0.31506658  0.54145246  0.92348978  1  0  -0.322831  0  3.256804  0  0  -0.240538  0  3.514266  0  0  -0.261145  0  3.533445  0  0  -0.310823  -0.226624  0  3.50091  0
N  N103  1  0.18494276  0.04146014  0.57650950  1  0  -0.32256  0  3.257116  0  0  -0.240372  0  3.514678  0  0  -0.260977  0  3.533857  0  0  -0.310816  -0.226459  0  3.501318  0
N  N104  1  0.68494114  0.45854459  0.07650745  1  0  -0.322638  0  3.256978  0  0  -0.240446  0  3.514542  0  0  -0.261051  0  3.533719  0  0  -0.310832  -0.226538  0  3.501182  0
N  N105  1  0.81504671  0.95854894  0.42349186  1  0  -0.32265  0  3.256958  0  0  -0.240465  0  3.514523  0  0  -0.261071  0  3.533702  0  0  -0.310796  -0.226553  0  3.501157  0
N  N106  1  0.19335481  0.98005063  0.04897215  1  0  -0.46283  0  3.325438  0  0  -0.406613  0  3.591593  0  0  -0.431337  0  3.597319  0  0  -0.304691  -0.38959  0  3.587128  0
N  N107  1  0.30664187  0.48005604  0.45102581  1  0  -0.462579  0  3.325451  0  0  -0.406301  0  3.591555  0  0  -0.431029  0  3.597286  0  0  -0.304563  -0.389252  0  3.587075  0
N  N108  1  0.80664457  0.01993306  0.95102487  1  0  -0.462542  0  3.325561  0  0  -0.406289  0  3.591691  0  0  -0.431023  0  3.597424  0  0  -0.304603  -0.389242  0  3.587209  0
N  N109  1  0.69333748  0.51995438  0.54896995  1  0  -0.462615  0  3.325527  0  0  -0.40643  0  3.591691  0  0  -0.431146  0  3.597416  0  0  -0.30462  -0.389398  0  3.587217  0
O  O110  1  0.63134971  0.44951281  0.79534261  1  0  -0.466216  0  1.930076  0  0  -0.423032  0  2.143253  0  0  -0.441726  0  2.1415  0  0  -0.256578  -0.410118  0  2.144276  0
O  O111  1  0.86864830  0.94953234  0.70465593  1  0  -0.466201  0  1.930191  0  0  -0.422988  0  2.143356  0  0  -0.441684  0  2.141609  0  0  -0.256531  -0.410075  0  2.144381  0
O  O112  1  0.36865640  0.55049092  0.20465725  1  0  -0.466268  0  1.93002  0  0  -0.423087  0  2.14313  0  0  -0.441791  0  2.141363  0  0  -0.256591  -0.410173  0  2.144165  0
O  O113  1  0.13134279  0.05048475  0.29534318  1  0  -0.466267  0  1.930355  0  0  -0.423024  0  2.143503  0  0  -0.441715  0  2.141749  0  0  -0.256575  -0.410107  0  2.144536  0
