# generated using pymatgen
data_AgH5C5(NO)2
_symmetry_space_group_name_H-M   'P 1'
_cell_length_a   5.08129550
_cell_length_b   8.86271848
_cell_length_c   13.54645567
_cell_angle_alpha   90.00009203
_cell_angle_beta   90.00113887
_cell_angle_gamma   106.02131217
_symmetry_Int_Tables_number   1
_chemical_formula_structural   AgH5C5(NO)2
_chemical_formula_sum   'Ag4 H20 C20 N8 O8'
_cell_volume   586.35734367
_cell_formula_units_Z   4
loop_
 _symmetry_equiv_pos_site_id
 _symmetry_equiv_pos_as_xyz
  1  'x, y, z'
loop_
 _atom_site_type_symbol
 _atom_site_label
 _atom_site_symmetry_multiplicity
 _atom_site_fract_x
 _atom_site_fract_y
 _atom_site_fract_z
 _atom_site_occupancy
 _atom_site_hle17_bader_spin_density
 _atom_site_hle17_ddec_charge
 _atom_site_hle17_ddec_spin_density
 _atom_site_hle17_ddec_sum_bond_order
 _atom_site_hle17_magmom
 _atom_site_hse06_10hf_bader_spin_density
 _atom_site_hse06_10hf_ddec_charge
 _atom_site_hse06_10hf_ddec_spin_density
 _atom_site_hse06_10hf_ddec_sum_bond_order
 _atom_site_hse06_10hf_magmom
 _atom_site_hse06_bader_spin_density
 _atom_site_hse06_ddec_charge
 _atom_site_hse06_ddec_spin_density
 _atom_site_hse06_ddec_sum_bond_order
 _atom_site_hse06_magmom
 _atom_site_pbe_bader_spin_density
 _atom_site_pbe_cm5_charge
 _atom_site_pbe_ddec_charge
 _atom_site_pbe_ddec_spin_density
 _atom_site_pbe_ddec_sum_bond_order
 _atom_site_pbe_magmom
Ag  Ag0  1  0.19291190  0.26981620  0.31557195  1  0  0.534091  0  1.429786  0  0  0.401071  0  1.884541  0  0  0.436592  0  1.829404  0  0  0.427277  0.377592  0  1.91943  0
Ag  Ag1  1  0.30709219  0.73019171  0.81557574  1  0  0.534157  0  1.429764  0  0  0.401176  0  1.88446  0  0  0.436702  0  1.829324  0  0  0.427317  0.377698  0  1.919353  0
Ag  Ag2  1  0.80708513  0.73018122  0.68442289  1  0  0.534091  0  1.429822  0  0  0.401084  0  1.88458  0  0  0.436608  0  1.829443  0  0  0.427258  0.377606  0  1.919471  0
Ag  Ag3  1  0.69291015  0.26981276  0.18442205  1  0  0.534124  0  1.4298  0  0  0.401125  0  1.884517  0  0  0.436649  0  1.82938  0  0  0.427289  0.377645  0  1.919407  0
H  H4  1  0.52217871  0.76024481  0.47592974  1  0  0.124844  0  0.977432  0  0  0.133472  0  1.040947  0  0  0.136534  0  1.039031  0  0  0.120648  0.131171  0  1.042723  0
H  H5  1  0.97784915  0.23976672  0.97593265  1  0  0.124981  0  0.977333  0  0  0.133496  0  1.040994  0  0  0.136552  0  1.039098  0  0  0.120666  0.131199  0  1.042754  0
H  H6  1  0.47781827  0.23976082  0.52407470  1  0  0.124827  0  0.977421  0  0  0.133402  0  1.041019  0  0  0.136458  0  1.039123  0  0  0.12064  0.131106  0  1.042778  0
H  H7  1  0.02216253  0.76022839  0.02406883  1  0  0.124955  0  0.977457  0  0  0.13347  0  1.041126  0  0  0.136529  0  1.039227  0  0  0.120635  0.131173  0  1.042886  0
H  H8  1  0.62270513  0.07675564  0.42181515  1  0  0.108688  0  0.976358  0  0  0.118887  0  1.038478  0  0  0.12107  0  1.037679  0  0  0.114979  0.117952  0  1.037955  0
H  H9  1  0.87730731  0.92325053  0.92181894  1  0  0.108735  0  0.976452  0  0  0.118956  0  1.038531  0  0  0.121139  0  1.037729  0  0  0.114984  0.11802  0  1.038008  0
H  H10  1  0.37728483  0.92324762  0.57818634  1  0  0.108718  0  0.976297  0  0  0.118936  0  1.038411  0  0  0.121116  0  1.037615  0  0  0.114985  0.118001  0  1.037887  0
H  H11  1  0.12268835  0.07673985  0.07818329  1  0  0.108687  0  0.976527  0  0  0.118983  0  1.038499  0  0  0.12117  0  1.037691  0  0  0.114953  0.118047  0  1.037978  0
H  H12  1  0.23491231  0.89592587  0.29923389  1  0  0.088658  0  0.993695  0  0  0.093738  0  1.066171  0  0  0.09556  0  1.064853  0  0  0.128235  0.092297  0  1.067333  0
H  H13  1  0.26509921  0.10408304  0.79923293  1  0  0.08867  0  0.993746  0  0  0.093801  0  1.066168  0  0  0.095627  0  1.064846  0  0  0.128248  0.092356  0  1.067325  0
H  H14  1  0.76507598  0.10407387  0.70076760  1  0  0.088643  0  0.993708  0  0  0.09368  0  1.066248  0  0  0.095499  0  1.06493  0  0  0.128226  0.092239  0  1.067419  0
H  H15  1  0.73492789  0.89592384  0.20075896  1  0  0.088555  0  0.993854  0  0  0.093715  0  1.066235  0  0  0.095539  0  1.064916  0  0  0.128265  0.092276  0  1.067397  0
H  H16  1  0.98583812  0.61872830  0.47935874  1  0  0.117014  0  0.954865  0  0  0.128384  0  1.020692  0  0  0.13118  0  1.018413  0  0  0.113654  0.125747  0  1.023227  0
H  H17  1  0.51416974  0.38127384  0.97935784  1  0  0.117057  0  0.955121  0  0  0.128387  0  1.020909  0  0  0.131199  0  1.018638  0  0  0.113687  0.12575  0  1.023446  0
H  H18  1  0.01416735  0.38127032  0.52064127  1  0  0.117092  0  0.95507  0  0  0.128412  0  1.020875  0  0  0.131195  0  1.018592  0  0  0.113665  0.125772  0  1.023408  0
H  H19  1  0.48583239  0.61871773  0.02063848  1  0  0.11705  0  0.954976  0  0  0.128389  0  1.020774  0  0  0.131198  0  1.018495  0  0  0.113672  0.12575  0  1.023311  0
H  H20  1  0.11001262  0.62491480  0.35731637  1  0  0.131242  0  0.925926  0  0  0.141086  0  0.991406  0  0  0.144118  0  0.989684  0  0  0.122532  0.138338  0  0.993334  0
H  H21  1  0.38999067  0.37509477  0.85731515  1  0  0.131183  0  0.92572  0  0  0.140988  0  0.99122  0  0  0.144035  0  0.989506  0  0  0.122487  0.13824  0  0.993149  0
H  H22  1  0.88996608  0.37508961  0.64267994  1  0  0.131269  0  0.925697  0  0  0.141074  0  0.991198  0  0  0.144096  0  0.989467  0  0  0.122542  0.138321  0  0.99313  0
H  H23  1  0.61001086  0.62490384  0.14268043  1  0  0.131211  0  0.925932  0  0  0.141001  0  0.991441  0  0  0.144041  0  0.989725  0  0  0.122512  0.138249  0  0.993373  0
C  C24  1  0.68067364  0.83636975  0.43084844  1  0  -0.062771  0  3.652415  0  0  -0.10549  0  3.917886  0  0  -0.10352  0  3.935108  0  0  -0.001582  -0.106741  0  3.906678  0
C  C25  1  0.81933790  0.16364591  0.93084941  1  0  -0.062714  0  3.652098  0  0  -0.105345  0  3.917595  0  0  -0.103375  0  3.934804  0  0  -0.001552  -0.106592  0  3.90639  0
C  C26  1  0.31930986  0.16363233  0.56915526  1  0  -0.062673  0  3.652222  0  0  -0.105349  0  3.917712  0  0  -0.103381  0  3.934934  0  0  -0.001566  -0.106598  0  3.906508  0
C  C27  1  0.18066226  0.83634566  0.06914839  1  0  -0.06271  0  3.651674  0  0  -0.105333  0  3.917171  0  0  -0.103369  0  3.93438  0  0  -0.001486  -0.106579  0  3.905969  0
C  C28  1  0.73411420  0.99201829  0.40505674  1  0  -0.015326  0  3.743824  0  0  -0.047452  0  4.006601  0  0  -0.04634  0  4.029311  0  0  -0.010774  -0.048003  0  3.990237  0
C  C29  1  0.76588882  0.00797828  0.90505640  1  0  -0.015558  0  3.744047  0  0  -0.047705  0  4.006798  0  0  -0.046605  0  4.029545  0  0  -0.01077  -0.048252  0  3.990433  0
C  C30  1  0.26587354  0.00798027  0.59494475  1  0  -0.015326  0  3.743675  0  0  -0.047447  0  4.006375  0  0  -0.046348  0  4.029121  0  0  -0.010737  -0.047995  0  3.990009  0
C  C31  1  0.23410988  0.99202266  0.09494287  1  0  -0.015525  0  3.743738  0  0  -0.047711  0  4.006477  0  0  -0.046611  0  4.029221  0  0  -0.010791  -0.048261  0  3.990115  0
C  C32  1  0.05393369  0.90470972  0.33832688  1  0  0.143229  0  3.665412  0  0  0.08598  0  3.925538  0  0  0.099272  0  3.940937  0  0  0.133956  0.07742  0  3.915231  0
C  C33  1  0.44608222  0.09529966  0.83832866  1  0  0.143024  0  3.665887  0  0  0.085724  0  3.926006  0  0  0.099012  0  3.941403  0  0  0.133853  0.077176  0  3.915693  0
C  C34  1  0.94605516  0.09529119  0.66167534  1  0  0.143364  0  3.665645  0  0  0.086132  0  3.925805  0  0  0.099425  0  3.941207  0  0  0.133987  0.077565  0  3.915509  0
C  C35  1  0.55392775  0.90470015  0.16166545  1  0  0.143238  0  3.665666  0  0  0.085916  0  3.925815  0  0  0.099205  0  3.941212  0  0  0.133943  0.077356  0  3.915508  0
C  C36  1  0.93136857  0.63004170  0.40148505  1  0  -0.171232  0  3.61405  0  0  -0.225156  0  3.849766  0  0  -0.227491  0  3.856796  0  0  -0.058167  -0.223295  0  3.845746  0
C  C37  1  0.56865222  0.36995957  0.90149559  1  0  -0.171178  0  3.61414  0  0  -0.224906  0  3.849564  0  0  -0.227323  0  3.856699  0  0  -0.058063  -0.223045  0  3.845549  0
C  C38  1  0.06862932  0.36995338  0.59850758  1  0  -0.171386  0  3.614292  0  0  -0.225089  0  3.849723  0  0  -0.227359  0  3.856675  0  0  -0.058147  -0.223212  0  3.84568  0
C  C39  1  0.43136619  0.63004142  0.09851106  1  0  -0.171225  0  3.61442  0  0  -0.224932  0  3.849876  0  0  -0.22732  0  3.856974  0  0  -0.058104  -0.223066  0  3.84585  0
C  C40  1  0.69657702  0.48816172  0.37364586  1  0  0.668904  0  3.889762  0  0  0.620852  0  4.179697  0  0  0.654918  0  4.174924  0  0  0.192842  0.597832  0  4.181937  0
C  C41  1  0.80342820  0.51184739  0.87365380  1  0  0.668941  0  3.889614  0  0  0.62089  0  4.1795  0  0  0.654974  0  4.174729  0  0  0.192887  0.59787  0  4.181745  0
C  C42  1  0.30341577  0.51183921  0.62635267  1  0  0.668914  0  3.889664  0  0  0.620821  0  4.179609  0  0  0.65487  0  4.174839  0  0  0.192865  0.597799  0  4.181852  0
C  C43  1  0.19658399  0.48815711  0.12634769  1  0  0.668938  0  3.889592  0  0  0.620814  0  4.179575  0  0  0.654892  0  4.174806  0  0  0.192854  0.597794  0  4.181813  0
N  N44  1  0.88438031  0.78311297  0.38772050  1  0  -0.021717  0  3.582103  0  0  0.070444  0  3.795079  0  0  0.057264  0  3.820939  0  0  -0.240414  0.078278  0  3.778122  0
N  N45  1  0.61563341  0.21689164  0.88772084  1  0  -0.021776  0  3.58261  0  0  0.07035  0  3.795499  0  0  0.057194  0  3.821377  0  0  -0.240429  0.07818  0  3.778545  0
N  N46  1  0.11560237  0.21688324  0.61228320  1  0  -0.021822  0  3.582442  0  0  0.070291  0  3.795364  0  0  0.057095  0  3.821211  0  0  -0.240458  0.07812  0  3.778413  0
N  N47  1  0.38439515  0.78310587  0.11227769  1  0  -0.021694  0  3.582308  0  0  0.070401  0  3.795253  0  0  0.057242  0  3.821121  0  0  -0.240477  0.078229  0  3.778301  0
N  N48  1  0.96783659  0.03334617  0.34744042  1  0  -0.370829  0  3.396671  0  0  -0.284283  0  3.696147  0  0  -0.307671  0  3.714141  0  0  -0.3817  -0.268447  0  3.682611  0
N  N49  1  0.53218328  0.96667205  0.84744553  1  0  -0.370669  0  3.397182  0  0  -0.284099  0  3.696635  0  0  -0.307486  0  3.714641  0  0  -0.381725  -0.268264  0  3.683094  0
N  N50  1  0.03215195  0.96665826  0.65256107  1  0  -0.37096  0  3.396836  0  0  -0.284406  0  3.696308  0  0  -0.307796  0  3.7143  0  0  -0.381738  -0.268569  0  3.682776  0
N  N51  1  0.46783199  0.03333480  0.15255300  1  0  -0.370769  0  3.396838  0  0  -0.284221  0  3.696364  0  0  -0.307612  0  3.714367  0  0  -0.381747  -0.268385  0  3.682824  0
O  O52  1  0.47873190  0.50806596  0.33537532  1  0  -0.602156  0  2.022341  0  0  -0.524878  0  2.275985  0  0  -0.556698  0  2.267621  0  0  -0.328082  -0.502611  0  2.280838  0
O  O53  1  0.02127170  0.49194687  0.83538273  1  0  -0.602207  0  2.022395  0  0  -0.524974  0  2.27605  0  0  -0.556799  0  2.267696  0  0  -0.328121  -0.502707  0  2.280905  0
O  O54  1  0.52127671  0.49192680  0.66461952  1  0  -0.602217  0  2.022121  0  0  -0.524975  0  2.275836  0  0  -0.556787  0  2.267455  0  0  -0.32814  -0.5027  0  2.280681  0
O  O55  1  0.97872498  0.50806227  0.16461654  1  0  -0.602239  0  2.0222  0  0  -0.524961  0  2.275904  0  0  -0.556778  0  2.267526  0  0  -0.328126  -0.502688  0  2.280748  0
O  O56  1  0.73871270  0.35653605  0.39151481  1  0  -0.672615  0  2.028226  0  0  -0.606642  0  2.285347  0  0  -0.634765  0  2.272657  0  0  -0.333399  -0.587525  0  2.292513  0
O  O57  1  0.76129055  0.64347092  0.89152409  1  0  -0.672658  0  2.028261  0  0  -0.606705  0  2.285365  0  0  -0.634822  0  2.272665  0  0  -0.333453  -0.587586  0  2.292533  0
O  O58  1  0.26128348  0.64346372  0.60849110  1  0  -0.672525  0  2.028343  0  0  -0.606615  0  2.285605  0  0  -0.634741  0  2.272921  0  0  -0.333389  -0.587499  0  2.292778  0
O  O59  1  0.23870674  0.35653119  0.10848700  1  0  -0.672617  0  2.028321  0  0  -0.606655  0  2.285513  0  0  -0.634774  0  2.272811  0  0  -0.333407  -0.587541  0  2.292683  0
