# generated using pymatgen
data_ZnH5C10Br2(NO2)2
_symmetry_space_group_name_H-M   'P 1'
_cell_length_a   7.77478408
_cell_length_b   8.87063543
_cell_length_c   16.03768447
_cell_angle_alpha   87.35723626
_cell_angle_beta   85.74711439
_cell_angle_gamma   89.23092373
_symmetry_Int_Tables_number   1
_chemical_formula_structural   ZnH5C10Br2(NO2)2
_chemical_formula_sum   'Zn2 H10 C20 Br4 N4 O8'
_cell_volume   1101.80106811
_cell_formula_units_Z   2
loop_
 _symmetry_equiv_pos_site_id
 _symmetry_equiv_pos_as_xyz
  1  'x, y, z'
loop_
 _atom_site_type_symbol
 _atom_site_label
 _atom_site_symmetry_multiplicity
 _atom_site_fract_x
 _atom_site_fract_y
 _atom_site_fract_z
 _atom_site_occupancy
 _atom_site_pbe_bader_charge
 _atom_site_pbe_bader_spin_density
 _atom_site_pbe_cm5_charge
 _atom_site_pbe_ddec_charge
 _atom_site_pbe_ddec_spin_density
 _atom_site_pbe_ddec_sum_bond_order
 _atom_site_pbe_magmom
Zn  Zn0  1  0.67210833  0.50246947  0.48930729  1  1.292279  0  0.672359  0.843695  0  2.408328  0
Zn  Zn1  1  0.32407380  0.47339875  0.51221065  1  1.287696  0  0.667025  0.797472  0  2.489603  0
H  H2  1  0.76055872  0.55987607  0.06168274  1  0.160742  0  0.126746  0.143206  0  0.951423  0
H  H3  1  0.69298772  0.33423109  0.93294164  1  0.076035  0  0.094359  0.104617  0  0.996784  0
H  H4  1  0.47359070  0.28907601  0.92767148  1  0.059784  0  0.104124  0.117425  0  0.955552  0
H  H5  1  0.27046258  0.98795732  0.50819143  1  0.132084  0  0.110407  0.129383  0  0.992216  0
H  H6  1  0.66844900  0.98483693  0.48518354  1  0.102809  0  0.114427  0.135716  0  0.976862  0
H  H7  1  0.01182854  0.60267109  0.45435382  1  0.495318  0  0.357833  0.316662  0  0.846202  0
H  H8  1  0.30117794  0.68334161  0.92331293  1  0.112149  0  0.091427  0.118053  0  1.026756  0
H  H9  1  0.24758826  0.48971994  0.92737961  1  0.089236  0  0.104655  0.134791  0  0.967546  0
H  H10  1  0.65248228  0.32170059  0.07914501  1  0.090234  0  0.113248  0.133148  0  0.952552  0
H  H11  1  0.43147155  0.28457670  0.07381583  1  0.054823  0  0.10758  0.122846  0  0.961717  0
C  C12  1  0.41800277  0.77477451  0.49687603  1  1.548055  0  0.215957  0.644037  0  4.137428  0
C  C13  1  0.53827633  0.03130880  0.49453346  1  0.00462  0  -0.073259  -0.154674  0  3.856342  0
C  C14  1  0.50538185  0.50039525  0.33777956  1  1.665893  0  0.226585  0.675978  0  4.211115  0
C  C15  1  0.52064552  0.19726985  0.49970217  1  1.548887  0  0.21398  0.639306  0  4.150753  0
C  C16  1  0.51538612  0.50429243  0.66208516  1  1.657395  0  0.22272  0.681374  0  4.208992  0
C  C17  1  0.64501535  0.62563748  0.04590881  1  0.062783  0  -0.054498  -0.113287  0  3.824239  0
C  C18  1  0.31589371  0.57114402  0.04683068  1  0.122506  0  0.033371  0.11511  0  3.722271  0
C  C19  1  0.33543567  0.57207061  0.94977175  1  -0.072019  0  -0.158636  -0.266997  0  3.813379  0
C  C20  1  0.52267692  0.51550538  0.75147624  1  0.335273  0  -0.04418  -0.169294  0  3.938166  0
C  C21  1  0.49087818  0.52200820  0.08241959  1  0.095007  0  0.016283  0.119206  0  3.851241  0
C  C22  1  0.65926498  0.76798762  0.08675974  1  0.878566  0  0.153568  0.241345  0  4.036413  0
C  C23  1  0.64953090  0.64152081  0.94820000  1  0.006014  0  0.028109  0.133569  0  3.522804  0
C  C24  1  0.17583442  0.47147687  0.07866485  1  0.892546  0  0.167337  0.213993  0  4.002165  0
C  C25  1  0.52115542  0.52752187  0.91703751  1  0.097611  0  -0.004652  0.129291  0  3.911316  0
C  C26  1  0.56112610  0.36687793  0.95422020  1  -0.046985  0  -0.153515  -0.184695  0  3.826056  0
C  C27  1  0.53523540  0.36171232  0.05055855  1  -0.032336  0  -0.146837  -0.192463  0  3.800813  0
C  C28  1  0.52820741  0.52536300  0.82644994  1  -0.544189  0  -0.040755  -0.053966  0  4.068124  0
C  C29  1  0.48414492  0.51698280  0.17294653  1  -0.349161  0  -0.034043  -0.0614  0  4.04967  0
C  C30  1  0.49285804  0.50862925  0.24821679  1  0.182281  0  -0.025096  -0.135012  0  3.908537  0
C  C31  1  0.40066119  0.94101029  0.50011417  1  -0.054083  0  -0.073519  -0.159157  0  3.860393  0
Br  Br32  1  0.59270898  0.84765505  0.90682894  1  -0.05782  0  0.025008  -0.068151  0  1.408516  0
Br  Br33  1  0.88591470  0.59852375  0.90030276  1  -0.074305  0  0.027291  -0.077852  0  1.41596  0
Br  Br34  1  0.97356081  0.27579109  0.59735642  1  0.300651  0  0.2477  0.166833  0  1.332562  0
Br  Br35  1  0.23610022  0.77214858  0.08601702  1  -0.052648  0  0.042469  -0.052009  0  1.290101  0
N  N36  1  0.05201546  0.43912645  0.52510841  1  -0.229132  0  -0.093645  0.091898  0  3.227616  0
N  N37  1  0.94497427  0.51745521  0.48945460  1  -0.393114  0  -0.225911  -0.169377  0  3.127313  0
N  N38  1  0.68185723  0.87866145  0.12059689  1  -1.117869  0  -0.314233  -0.35301  0  2.702551  0
N  N39  1  0.05890723  0.39347973  0.09871595  1  -1.130138  0  -0.30327  -0.338619  0  2.701949  0
O  O40  1  0.56919657  0.71743621  0.49463307  1  -1.16854  0  -0.314388  -0.551432  0  2.306773  0
O  O41  1  0.27737143  0.70020132  0.49845226  1  -1.156642  0  -0.326834  -0.559802  0  2.252657  0
O  O42  1  0.65466298  0.52105232  0.36277869  1  -1.126102  0  -0.31019  -0.520384  0  2.214203  0
O  O43  1  0.36641761  0.47306797  0.38287741  1  -1.15244  0  -0.315404  -0.547669  0  2.251919  0
O  O44  1  0.65784518  0.27376954  0.48364880  1  -1.152283  0  -0.319284  -0.562172  0  2.345819  0
O  O45  1  0.37130934  0.25111700  0.52016913  1  -1.160597  0  -0.321677  -0.557265  0  2.376252  0
O  O46  1  0.65889445  0.50049031  0.61847579  1  -1.146761  0  -0.317734  -0.563926  0  2.322527  0
O  O47  1  0.36530112  0.49873848  0.63560090  1  -1.134114  0  -0.31301  -0.536344  0  2.263143  0
