# generated using pymatgen
data_CdH20C26(BrN3)2
_symmetry_space_group_name_H-M   'P 1'
_cell_length_a   9.35306698
_cell_length_b   12.12324267
_cell_length_c   12.57630000
_cell_angle_alpha   108.35242116
_cell_angle_beta   98.62091002
_cell_angle_gamma   108.33198083
_symmetry_Int_Tables_number   1
_chemical_formula_structural   CdH20C26(BrN3)2
_chemical_formula_sum   'Cd2 H40 C52 Br4 N12'
_cell_volume   1234.78931853
_cell_formula_units_Z   2
loop_
 _symmetry_equiv_pos_site_id
 _symmetry_equiv_pos_as_xyz
  1  'x, y, z'
loop_
 _atom_site_type_symbol
 _atom_site_label
 _atom_site_symmetry_multiplicity
 _atom_site_fract_x
 _atom_site_fract_y
 _atom_site_fract_z
 _atom_site_occupancy
 _atom_site_hle17_bader_spin_density
 _atom_site_hle17_ddec_charge
 _atom_site_hle17_ddec_spin_density
 _atom_site_hle17_ddec_sum_bond_order
 _atom_site_hle17_magmom
 _atom_site_hse06_10hf_bader_spin_density
 _atom_site_hse06_10hf_ddec_charge
 _atom_site_hse06_10hf_ddec_spin_density
 _atom_site_hse06_10hf_ddec_sum_bond_order
 _atom_site_hse06_10hf_magmom
 _atom_site_hse06_bader_spin_density
 _atom_site_hse06_ddec_charge
 _atom_site_hse06_ddec_spin_density
 _atom_site_hse06_ddec_sum_bond_order
 _atom_site_hse06_magmom
 _atom_site_pbe_bader_charge
 _atom_site_pbe_bader_spin_density
 _atom_site_pbe_cm5_charge
 _atom_site_pbe_ddec_charge
 _atom_site_pbe_ddec_spin_density
 _atom_site_pbe_ddec_sum_bond_order
 _atom_site_pbe_magmom
Cd  Cd0  1  0.36508288  0.73322057  0.77026588  1  0  0.886866  0  1.952301  0  0  0.694889  0  2.437763  0  0  0.743629  0  2.396021  0  1.009204  0  0.599122  0.661886  0  2.464445  0
Cd  Cd1  1  0.63491695  0.26677850  0.22973421  1  0  0.886861  0  1.952274  0  0  0.694885  0  2.437735  0  0  0.743624  0  2.395996  0  1.009235  0  0.599123  0.661881  0  2.464417  0
H  H2  1  0.28032638  0.96304484  0.88672564  1  0  0.072657  0  0.968902  0  0  0.077838  0  1.043058  0  0  0.080565  0  1.039684  0  0.099846  0  0.101749  0.075414  0  1.046172  0
H  H3  1  0.71967282  0.03695517  0.11327467  1  0  0.072658  0  0.968928  0  0  0.077849  0  1.043068  0  0  0.080577  0  1.039692  0  0.099857  0  0.101747  0.075417  0  1.046187  0
H  H4  1  0.10873475  0.07118840  0.84087218  1  0  0.114523  0  0.958245  0  0  0.127116  0  1.013945  0  0  0.130189  0  1.013831  0  0.102131  0  0.109582  0.124919  0  1.014501  0
H  H5  1  0.89126445  0.92881160  0.15912813  1  0  0.114527  0  0.958233  0  0  0.12712  0  1.013936  0  0  0.130194  0  1.013819  0  0.101826  0  0.109588  0.124922  0  1.014491  0
H  H6  1  0.86900714  0.74745090  0.51461878  1  0  0.117856  0  0.983009  0  0  0.125909  0  1.047488  0  0  0.129025  0  1.047467  0  0.1392  0  0.101967  0.123917  0  1.047252  0
H  H7  1  0.13099314  0.25254910  0.48538165  1  0  0.117899  0  0.983003  0  0  0.125955  0  1.04747  0  0  0.129072  0  1.047447  0  0.139197  0  0.101981  0.123963  0  1.047235  0
H  H8  1  0.05175710  0.65613998  0.57219599  1  0  0.074242  0  0.940858  0  0  0.081176  0  1.008317  0  0  0.083977  0  1.005147  0  0.11995  0  0.108283  0.078579  0  1.011526  0
H  H9  1  0.94824408  0.34386190  0.42780591  1  0  0.074252  0  0.940832  0  0  0.081176  0  1.008298  0  0  0.083976  0  1.005129  0  0.119936  0  0.108293  0.078582  0  1.011502  0
H  H10  1  0.78024452  0.07639775  0.49208311  1  0  0.114143  0  0.957084  0  0  0.124132  0  1.01598  0  0  0.126872  0  1.016615  0  0.077362  0  0.104747  0.122095  0  1.015833  0
H  H11  1  0.21975423  0.92360132  0.50791607  1  0  0.11415  0  0.957076  0  0  0.124137  0  1.015974  0  0  0.126876  0  1.016609  0  0.077352  0  0.104741  0.122099  0  1.015827  0
H  H12  1  0.53345797  0.96289320  0.33113845  1  0  0.067927  0  0.944033  0  0  0.072801  0  1.014473  0  0  0.075523  0  1.012304  0  0.081569  0  0.101526  0.070698  0  1.01621  0
H  H13  1  0.46654231  0.03710680  0.66886039  1  0  0.067942  0  0.944077  0  0  0.072793  0  1.014534  0  0  0.075515  0  1.012367  0  0.081455  0  0.101542  0.07069  0  1.016272  0
H  H14  1  0.41478176  0.65418566  0.42536080  1  0  0.063342  0  0.973396  0  0  0.069401  0  1.044307  0  0  0.071847  0  1.041954  0  0.098273  0  0.095923  0.067461  0  1.046319  0
H  H15  1  0.58521852  0.34581435  0.57463883  1  0  0.063365  0  0.973347  0  0  0.069411  0  1.044274  0  0  0.071858  0  1.041918  0  0.09828  0  0.09592  0.067471  0  1.046286  0
H  H16  1  0.65216476  0.75373301  0.58974891  1  0  0.117383  0  0.956514  0  0  0.125773  0  1.020041  0  0  0.1289  0  1.019396  0  0.087967  0  0.103141  0.123445  0  1.0209  0
H  H17  1  0.34783444  0.24626700  0.41025061  1  0  0.117384  0  0.95649  0  0  0.125771  0  1.020023  0  0  0.128898  0  1.01938  0  0.087952  0  0.103146  0.123443  0  1.020881  0
H  H18  1  0.74755762  0.12223922  0.76448807  1  0  0.118259  0  0.952875  0  0  0.127782  0  1.01548  0  0  0.131005  0  1.013254  0  0.136427  0  0.102284  0.12542  0  1.017132  0
H  H19  1  0.25244266  0.87776079  0.23551157  1  0  0.118273  0  0.95286  0  0  0.127789  0  1.015476  0  0  0.131016  0  1.013243  0  0.136427  0  0.102287  0.125426  0  1.017128  0
H  H20  1  0.84642777  0.35502559  0.84857338  1  0  0.106354  0  0.964436  0  0  0.114178  0  1.030548  0  0  0.116746  0  1.029834  0  0.074127  0  0.102952  0.11235  0  1.031085  0
H  H21  1  0.15357143  0.64497441  0.15142693  1  0  0.106311  0  0.964451  0  0  0.11415  0  1.03054  0  0  0.116718  0  1.029827  0  0.074135  0  0.102938  0.112322  0  1.031078  0
H  H22  1  0.25008043  0.37602779  0.71763072  1  0  0.105246  0  0.967861  0  0  0.112589  0  1.035521  0  0  0.115942  0  1.033325  0  0.120241  0  0.094264  0.110143  0  1.037188  0
H  H23  1  0.74991985  0.62397221  0.28237051  1  0  0.105274  0  0.967858  0  0  0.11262  0  1.0355  0  0  0.115974  0  1.0333  0  0.120339  0  0.094272  0.11017  0  1.037178  0
H  H24  1  0.15076712  0.14047993  0.63411773  1  0  0.096232  0  0.982098  0  0  0.10507  0  1.047278  0  0  0.107257  0  1.047626  0  0.076922  0  0.098383  0.103626  0  1.046792  0
H  H25  1  0.84923316  0.85952008  0.36588111  1  0  0.096272  0  0.98211  0  0  0.105105  0  1.04729  0  0  0.107298  0  1.047627  0  0.076921  0  0.098405  0.10366  0  1.046803  0
H  H26  1  0.20000172  0.43793148  0.01068552  1  0  0.118437  0  0.964408  0  0  0.126916  0  1.025857  0  0  0.129172  0  1.027518  0  0.097143  0  0.108884  0.124908  0  1.025553  0
H  H27  1  0.79999748  0.56206852  0.98931479  1  0  0.118395  0  0.964418  0  0  0.126875  0  1.025869  0  0  0.129133  0  1.027524  0  0.097147  0  0.108859  0.124867  0  1.025566  0
H  H28  1  0.44862114  0.55302398  0.17276939  1  0  0.09527  0  0.931289  0  0  0.107978  0  0.988737  0  0  0.109991  0  0.987581  0  0.091067  0  0.109042  0.106508  0  0.989601  0
H  H29  1  0.55137960  0.44697696  0.82723217  1  0  0.095281  0  0.931289  0  0  0.107975  0  0.988754  0  0  0.110001  0  0.987586  0  0.091077  0  0.109057  0.106505  0  0.98962  0
H  H30  1  0.64442723  0.75399861  0.17698092  1  0  0.097628  0  0.982518  0  0  0.106974  0  1.046135  0  0  0.109239  0  1.047234  0  0.09977  0  0.101391  0.105383  0  1.045483  0
H  H31  1  0.35557351  0.24600234  0.82301826  1  0  0.09758  0  0.982564  0  0  0.10693  0  1.046179  0  0  0.109195  0  1.047279  0  0.099768  0  0.101372  0.105338  0  1.045529  0
H  H32  1  0.58623252  0.82277400  0.01250144  1  0  0.065797  0  0.984578  0  0  0.072715  0  1.05469  0  0  0.074918  0  1.05262  0  0.121669  0  0.100321  0.070821  0  1.056628  0
H  H33  1  0.41376668  0.17722600  0.98749808  1  0  0.065739  0  0.98466  0  0  0.072703  0  1.054731  0  0  0.07489  0  1.052676  0  0.121656  0  0.100314  0.070804  0  1.056672  0
H  H34  1  0.85956454  0.44858846  0.66980854  1  0  0.117019  0  0.947906  0  0  0.127781  0  1.00537  0  0  0.131394  0  1.004378  0  0.097071  0  0.106433  0.125041  0  1.006587  0
H  H35  1  0.14043529  0.55141060  0.33019235  1  0  0.116998  0  0.947885  0  0  0.127762  0  1.005355  0  0  0.131372  0  1.004367  0  0.097079  0  0.106433  0.125021  0  1.00657  0
H  H36  1  0.69009621  0.57251641  0.67580133  1  0  0.089567  0  0.959529  0  0  0.097194  0  1.027777  0  0  0.100188  0  1.025145  0  0.088216  0  0.093679  0.094903  0  1.029927  0
H  H37  1  0.30990362  0.42748266  0.32419797  1  0  0.089576  0  0.959553  0  0  0.097207  0  1.027794  0  0  0.100201  0  1.025162  0  0.088219  0  0.093674  0.094915  0  1.029944  0
H  H38  1  0.76735749  0.77696078  0.84791407  1  0  0.092271  0  1.003791  0  0  0.096049  0  1.078308  0  0  0.099689  0  1.076962  0  0.095471  0  0.081822  0.093565  0  1.079238  0
H  H39  1  0.23264324  0.22304016  0.15208510  1  0  0.092272  0  1.003789  0  0  0.096048  0  1.078305  0  0  0.099689  0  1.076959  0  0.095477  0  0.081825  0.093563  0  1.079237  0
H  H40  1  0.01226106  0.84511739  0.00725475  1  0  0.066186  0  0.937155  0  0  0.075138  0  0.999973  0  0  0.077852  0  0.997785  0  0.050272  0  0.102994  0.072846  0  1.002188  0
H  H41  1  0.98773967  0.15488356  0.99274443  1  0  0.066185  0  0.937169  0  0  0.075141  0  0.999982  0  0  0.077856  0  0.997793  0  0.050141  0  0.102989  0.072852  0  1.002194  0
C  C42  1  0.18913860  0.91988009  0.80405824  1  0  0.138985  0  3.74667  0  0  0.10749  0  3.995635  0  0  0.117196  0  4.014336  0  0.46551  0  0.038213  0.101674  0  3.982955  0
C  C43  1  0.81086168  0.08011992  0.19594299  1  0  0.138911  0  3.746652  0  0  0.107419  0  3.995611  0  0  0.117124  0  4.014311  0  0.465523  0  0.038188  0.101609  0  3.982933  0
C  C44  1  0.09284051  0.97954973  0.77843371  1  0  -0.223189  0  3.716624  0  0  -0.240555  0  3.968699  0  0  -0.251489  0  3.988933  0  0.009892  0  -0.096801  -0.23353  0  3.955397  0
C  C45  1  0.90715869  0.02045028  0.22156660  1  0  -0.223151  0  3.716642  0  0  -0.240513  0  3.96872  0  0  -0.251446  0  3.988955  0  0.010185  0  -0.096791  -0.233489  0  3.955418  0
C  C46  1  0.97408027  0.92087091  0.67172215  1  0  0.268644  0  3.759978  0  0  0.253203  0  4.011551  0  0  0.269388  0  4.026728  0  0.361788  0  0.122836  0.242295  0  4.001399  0
C  C47  1  0.02591893  0.07912910  0.32827736  1  0  0.268714  0  3.759827  0  0  0.253261  0  4.011438  0  0  0.269445  0  4.026616  0  0.361799  0  0.122847  0.242351  0  4.001287  0
C  C48  1  0.95826694  0.80039200  0.59767776  1  0  -0.22168  0  3.712662  0  0  -0.238925  0  3.966012  0  0  -0.249638  0  3.985319  0  -0.052317  0  -0.097774  -0.23205  0  3.952951  0
C  C49  1  0.04173163  0.19960895  0.40232197  1  0  -0.2218  0  3.712726  0  0  -0.239051  0  3.966072  0  0  -0.249766  0  3.985379  0  -0.052322  0  -0.097796  -0.232178  0  3.953015  0
C  C50  1  0.06098880  0.74830233  0.62982812  1  0  0.143753  0  3.744312  0  0  0.113257  0  3.991911  0  0  0.123517  0  4.009455  0  0.477735  0  0.041246  0.106697  0  3.980001  0
C  C51  1  0.93901103  0.25169673  0.37017197  1  0  0.143775  0  3.744379  0  0  0.113311  0  3.991939  0  0  0.12357  0  4.009485  0  0.47771  0  0.041249  0.106747  0  3.980023  0
C  C52  1  0.74097447  0.92245792  0.55229005  1  0  0.231051  0  3.783641  0  0  0.219984  0  4.032633  0  0  0.231358  0  4.051334  0  0.277537  0  0.106093  0.212466  0  4.019861  0
C  C53  1  0.25902428  0.07754114  0.44770913  1  0  0.231056  0  3.783704  0  0  0.22  0  4.032691  0  0  0.231373  0  4.051391  0  0.277497  0  0.106074  0.212481  0  4.01992  0
C  C54  1  0.70263680  0.98215299  0.47937713  1  0  -0.215362  0  3.721979  0  0  -0.231956  0  3.970112  0  0  -0.240162  0  3.990246  0  -0.029743  0  -0.097476  -0.226259  0  3.956516  0
C  C55  1  0.29736195  0.01784608  0.52062205  1  0  -0.215416  0  3.722012  0  0  -0.232007  0  3.970135  0  0  -0.240214  0  3.99027  0  -0.029721  0  -0.0975  -0.22631  0  3.956542  0
C  C56  1  0.56393517  0.91810377  0.38943551  1  0  0.120346  0  3.769797  0  0  0.098935  0  4.028887  0  0  0.105154  0  4.046417  0  0.521097  0  0.034338  0.095084  0  4.016599  0
C  C57  1  0.43606358  0.08189529  0.61056366  1  0  0.12038  0  3.769839  0  0  0.098994  0  4.028914  0  0  0.105213  0  4.046442  0  0.521211  0  0.03437  0.095142  0  4.016627  0
C  C58  1  0.49861411  0.74743960  0.44040935  1  0  0.118705  0  3.770749  0  0  0.097751  0  4.025018  0  0  0.103845  0  4.042992  0  0.495062  0  0.032239  0.094136  0  4.012636  0
C  C59  1  0.50138617  0.25256041  0.55959029  1  0  0.118697  0  3.770664  0  0  0.097753  0  4.024943  0  0  0.103847  0  4.042915  0  0.495056  0  0.032247  0.094137  0  4.012562  0
C  C60  1  0.63345337  0.80290390  0.53333000  1  0  -0.216776  0  3.747203  0  0  -0.235058  0  3.998523  0  0  -0.243887  0  4.019835  0  -0.020706  0  -0.09809  -0.229768  0  3.984432  0
C  C61  1  0.36654583  0.19709610  0.46666952  1  0  -0.21679  0  3.747125  0  0  -0.235073  0  3.99846  0  0  -0.243903  0  4.019772  0  -0.020697  0  -0.098092  -0.229783  0  3.984368  0
C  C62  1  0.94327697  0.11810734  0.69427779  1  0  0.158682  0  3.805813  0  0  0.154628  0  4.053305  0  0  0.159351  0  4.075717  0  0.285331  0  0.082026  0.151881  0  4.037721  0
C  C63  1  0.05672223  0.88189266  0.30572173  1  0  0.158695  0  3.805828  0  0  0.154639  0  4.053321  0  0  0.159362  0  4.075734  0  0.285335  0  0.081998  0.151894  0  4.037734  0
C  C64  1  0.85677923  0.17793427  0.75358129  1  0  -0.104515  0  3.713792  0  0  -0.131409  0  3.97302  0  0  -0.133009  0  3.990913  0  -0.074348  0  -0.081427  -0.130167  0  3.960389  0
C  C65  1  0.14321997  0.82206573  0.24641823  1  0  -0.10456  0  3.713844  0  0  -0.131449  0  3.973082  0  0  -0.133051  0  3.990971  0  -0.074342  0  -0.081438  -0.130207  0  3.960449  0
C  C66  1  0.91303046  0.30868871  0.80111205  1  0  -0.112335  0  3.724778  0  0  -0.134869  0  3.98262  0  0  -0.13693  0  4.000833  0  0.130748  0  -0.082159  -0.133458  0  3.970023  0
C  C67  1  0.08696874  0.69131130  0.19888747  1  0  -0.112276  0  3.724769  0  0  -0.134819  0  3.982601  0  0  -0.13688  0  4.000814  0  0.130755  0  -0.082119  -0.133409  0  3.970006  0
C  C68  1  0.05550733  0.37970193  0.78951397  1  0  0.180338  0  3.796327  0  0  0.176439  0  4.040021  0  0  0.181554  0  4.063153  0  0.261004  0  0.087106  0.172754  0  4.024425  0
C  C69  1  0.94449187  0.62029808  0.21048634  1  0  0.180397  0  3.796305  0  0  0.176487  0  4.040009  0  0  0.181603  0  4.063142  0  0.260986  0  0.087096  0.172803  0  4.024412  0
C  C70  1  0.14201685  0.31948696  0.72959386  1  0  -0.140906  0  3.754529  0  0  -0.159535  0  4.004139  0  0  -0.163038  0  4.024658  0  -0.079842  0  -0.096445  -0.156971  0  3.98998  0
C  C71  1  0.85798497  0.68051399  0.27040782  1  0  -0.141003  0  3.754585  0  0  -0.159621  0  4.004187  0  0  -0.163127  0  4.024708  0  -0.079921  0  -0.09647  -0.15706  0  3.990027  0
C  C72  1  0.08575334  0.18871369  0.68211724  1  0  -0.142822  0  3.770374  0  0  -0.160892  0  4.01956  0  0  -0.163282  0  4.03942  0  -0.001234  0  -0.096007  -0.159153  0  4.005336  0
C  C73  1  0.91424631  0.81128726  0.31788261  1  0  -0.14284  0  3.770407  0  0  -0.160908  0  4.019603  0  0  -0.163303  0  4.039457  0  -0.00127  0  -0.096012  -0.159169  0  4.005378  0
C  C74  1  0.26271234  0.57220371  0.92970343  1  0  0.374858  0  3.763197  0  0  0.34505  0  4.024293  0  0  0.361609  0  4.039078  0  0.929091  0  0.226902  0.333438  0  4.014405  0
C  C75  1  0.73728686  0.42779629  0.07029688  1  0  0.374832  0  3.763082  0  0  0.344998  0  4.024208  0  0  0.361555  0  4.038997  0  0.929097  0  0.226871  0.333388  0  4.014318  0
C  C76  1  0.28933527  0.52343216  0.01459703  1  0  -0.193607  0  3.685138  0  0  -0.209053  0  3.933887  0  0  -0.217879  0  3.953709  0  -0.057154  0  -0.083871  -0.201998  0  3.920477  0
C  C77  1  0.71066393  0.47656784  0.98540328  1  0  -0.193514  0  3.68503  0  0  -0.20895  0  3.933775  0  0  -0.217774  0  3.953605  0  -0.056883  0  -0.083802  -0.201896  0  3.920365  0
C  C78  1  0.42765504  0.58803801  0.10442568  1  0  0.026682  0  3.713531  0  0  0.00588  0  3.96597  0  0  0.011597  0  3.982565  0  0.022591  0  -0.059668  0.001854  0  3.954249  0
C  C79  1  0.57234434  0.41196011  0.89557328  1  0  0.026674  0  3.713538  0  0  0.005876  0  3.965979  0  0  0.011582  0  3.982572  0  0.022335  0  -0.059703  0.00185  0  3.954262  0
C  C80  1  0.53622882  0.69920584  0.10711184  1  0  -0.121021  0  3.732371  0  0  -0.13524  0  3.981864  0  0  -0.142738  0  4.003902  0  -0.043903  0  -0.087452  -0.129788  0  3.967798  0
C  C81  1  0.46377191  0.30079511  0.89288813  1  0  -0.120989  0  3.732389  0  0  -0.135206  0  3.981883  0  0  -0.142705  0  4.003924  0  -0.043922  0  -0.087428  -0.129755  0  3.967817  0
C  C82  1  0.50435472  0.73870870  0.01729852  1  0  0.135558  0  3.718529  0  0  0.107539  0  3.960062  0  0  0.114609  0  3.979559  0  0.459327  0  0.041724  0.102221  0  3.948543  0
C  C83  1  0.49564493  0.26129225  0.98270133  1  0  0.135609  0  3.718566  0  0  0.107543  0  3.960083  0  0  0.114626  0  3.979591  0  0.45936  0  0.041725  0.102231  0  3.94856  0
C  C84  1  0.02024457  0.58122564  0.83907190  1  0  0.346394  0  3.806845  0  0  0.324554  0  4.073242  0  0  0.340281  0  4.087255  0  0.907174  0  0.213108  0.313382  0  4.063886  0
C  C85  1  0.97975463  0.41877436  0.16092761  1  0  0.346446  0  3.806828  0  0  0.324614  0  4.073211  0  0  0.340342  0  4.087225  0  0.907191  0  0.213115  0.313441  0  4.063856  0
C  C86  1  0.88753408  0.53550567  0.74411798  1  0  -0.207734  0  3.712901  0  0  -0.225176  0  3.964588  0  0  -0.234572  0  3.985094  0  -0.051285  0  -0.095489  -0.218594  0  3.951055  0
C  C87  1  0.11246575  0.46449339  0.25588132  1  0  -0.207711  0  3.712851  0  0  -0.225158  0  3.964538  0  0  -0.234553  0  3.985044  0  -0.051319  0  -0.095497  -0.218575  0  3.951005  0
C  C88  1  0.79409860  0.60520878  0.74794667  1  0  -0.00577  0  3.76202  0  0  -0.021096  0  4.008713  0  0  -0.01714  0  4.028421  0  -0.072323  0  -0.07859  -0.023608  0  3.995065  0
C  C89  1  0.20590123  0.39479028  0.25205342  1  0  -0.005792  0  3.76203  0  0  -0.021127  0  4.00873  0  0  -0.017168  0  4.02843  0  -0.072287  0  -0.07858  -0.023639  0  3.995083  0
C  C90  1  0.83598879  0.71840817  0.84349044  1  0  -0.162033  0  3.769579  0  0  -0.172572  0  4.015324  0  0  -0.181335  0  4.039083  0  -0.006724  0  -0.108264  -0.166879  0  3.99948  0
C  C91  1  0.16401194  0.28159277  0.15650874  1  0  -0.16201  0  3.769562  0  0  -0.172548  0  4.015316  0  0  -0.181311  0  4.039075  0  -0.006715  0  -0.108256  -0.166855  0  3.999472  0
C  C92  1  0.97175172  0.75634757  0.93164657  1  0  0.127839  0  3.771137  0  0  0.106042  0  4.029624  0  0  0.113072  0  4.046119  0  0.502694  0  0.035024  0.101636  0  4.018761  0
C  C93  1  0.02824748  0.24365244  0.06835215  1  0  0.127849  0  3.771126  0  0  0.106043  0  4.029611  0  0  0.113075  0  4.046104  0  0.502874  0  0.035031  0.101634  0  4.018747  0
Br  Br94  1  0.32710515  0.53739124  0.59325106  1  0  -0.549667  0  0.870438  0  0  -0.482356  0  1.15288  0  0  -0.501032  0  1.13078  0  -0.593932  0  -0.291106  -0.468702  0  1.168496  0
Br  Br95  1  0.67289405  0.46260876  0.40674925  1  0  -0.54967  0  0.870432  0  0  -0.482357  0  1.152866  0  0  -0.501033  0  1.130767  0  -0.593979  0  -0.291108  -0.468705  0  1.168484  0
Br  Br96  1  0.61314698  0.94112152  0.85430247  1  0  -0.549046  0  0.872942  0  0  -0.485369  0  1.150044  0  0  -0.502996  0  1.127621  0  -0.597061  0  -0.288285  -0.471624  0  1.165519  0
Br  Br97  1  0.38685285  0.05887755  0.14569603  1  0  -0.549043  0  0.872938  0  0  -0.48537  0  1.150039  0  0  -0.503003  0  1.127629  0  -0.597064  0  -0.288291  -0.471625  0  1.165514  0
N  N98  1  0.17641455  0.80631338  0.73065521  1  0  -0.353228  0  3.307563  0  0  -0.26507  0  3.568712  0  0  -0.28834  0  3.589265  0  -1.266527  0  -0.355181  -0.249479  0  3.553931  0
N  N99  1  0.82358772  0.19368851  0.26934681  1  0  -0.353168  0  3.307497  0  0  -0.265041  0  3.568667  0  0  -0.28831  0  3.589221  0  -1.266545  0  -0.355166  -0.249449  0  3.553882  0
N  N100  1  0.88312513  0.98325024  0.64181290  1  0  -0.229683  0  3.457512  0  0  -0.151481  0  3.676434  0  0  -0.172036  0  3.697319  0  -1.246432  0  -0.242429  -0.137742  0  3.662017  0
N  N101  1  0.11687515  0.01674977  0.35818673  1  0  -0.229713  0  3.45752  0  0  -0.151513  0  3.676462  0  0  -0.172066  0  3.697346  0  -1.246432  0  -0.242427  -0.137773  0  3.662047  0
N  N102  1  0.46259085  0.80153917  0.36770523  1  0  -0.32693  0  3.079146  0  0  -0.289599  0  3.345312  0  0  -0.30192  0  3.363064  0  -1.190162  0  -0.331279  -0.281095  0  3.332443  0
N  N103  1  0.53740835  0.19846084  0.63229428  1  0  -0.326965  0  3.079112  0  0  -0.28963  0  3.345257  0  0  -0.301953  0  3.363011  0  -1.190135  0  -0.331317  -0.281126  0  3.332389  0
N  N104  1  0.37152262  0.67570964  0.92920702  1  0  -0.385861  0  3.259508  0  0  -0.30617  0  3.523519  0  0  -0.32753  0  3.540157  0  -1.2332  0  -0.331745  -0.292901  0  3.512834  0
N  N105  1  0.62847766  0.32429037  0.07079341  1  0  -0.38585  0  3.259507  0  0  -0.306138  0  3.523525  0  0  -0.327499  0  3.540163  0  -1.233201  0  -0.331731  -0.292869  0  3.512838  0
N  N106  1  0.11867272  0.51393931  0.84173517  1  0  -0.318576  0  3.435323  0  0  -0.244757  0  3.665871  0  0  -0.265439  0  3.684035  0  -1.229918  0  -0.256291  -0.229683  0  3.652757  0
N  N107  1  0.88132865  0.48606070  0.15826538  1  0  -0.318671  0  3.435306  0  0  -0.24484  0  3.665845  0  0  -0.265523  0  3.684007  0  -1.229923  0  -0.256287  -0.229765  0  3.652731  0
N  N108  1  0.06127663  0.68895857  0.93118944  1  0  -0.388291  0  3.082895  0  0  -0.359006  0  3.358117  0  0  -0.372048  0  3.371796  0  -1.223639  0  -0.333505  -0.349975  0  3.348635  0
N  N109  1  0.93872257  0.31104144  0.06881008  1  0  -0.38831  0  3.082839  0  0  -0.359026  0  3.358061  0  0  -0.372067  0  3.371739  0  -1.22374  0  -0.333515  -0.349998  0  3.348585  0
