# generated using pymatgen
data_CdH7C8NO5
_symmetry_space_group_name_H-M   'P 1'
_cell_length_a   6.92477236
_cell_length_b   8.37272762
_cell_length_c   9.04007385
_cell_angle_alpha   90.50996972
_cell_angle_beta   81.75543679
_cell_angle_gamma   69.87929548
_symmetry_Int_Tables_number   1
_chemical_formula_structural   CdH7C8NO5
_chemical_formula_sum   'Cd2 H14 C16 N2 O10'
_cell_volume   486.10497208
_cell_formula_units_Z   2
loop_
 _symmetry_equiv_pos_site_id
 _symmetry_equiv_pos_as_xyz
  1  'x, y, z'
loop_
 _atom_site_type_symbol
 _atom_site_label
 _atom_site_symmetry_multiplicity
 _atom_site_fract_x
 _atom_site_fract_y
 _atom_site_fract_z
 _atom_site_occupancy
 _atom_site_hle17_bader_spin_density
 _atom_site_hle17_ddec_charge
 _atom_site_hle17_ddec_spin_density
 _atom_site_hle17_ddec_sum_bond_order
 _atom_site_hle17_magmom
 _atom_site_hse06_10hf_bader_spin_density
 _atom_site_hse06_10hf_ddec_charge
 _atom_site_hse06_10hf_ddec_spin_density
 _atom_site_hse06_10hf_ddec_sum_bond_order
 _atom_site_hse06_10hf_magmom
 _atom_site_hse06_bader_spin_density
 _atom_site_hse06_ddec_charge
 _atom_site_hse06_ddec_spin_density
 _atom_site_hse06_ddec_sum_bond_order
 _atom_site_hse06_magmom
 _atom_site_pbe_bader_spin_density
 _atom_site_pbe_cm5_charge
 _atom_site_pbe_ddec_charge
 _atom_site_pbe_ddec_spin_density
 _atom_site_pbe_ddec_sum_bond_order
 _atom_site_pbe_magmom
Cd  Cd0  1  0.00018561  0.12277402  0.79449283  1  0  1.205266  0  1.588864  0  0  1.032852  0  2.028986  0  0  1.089694  0  1.972008  0  0  0.768395  0.992336  0  2.068059  0
Cd  Cd1  1  0.99980630  0.87722883  0.20549598  1  0  1.205228  0  1.589005  0  0  1.03283  0  2.029098  0  0  1.089657  0  1.972148  0  0  0.768366  0.992313  0  2.068177  0
H  H2  1  0.41266589  0.79363636  0.29979417  1  0  0.31556  0  0.879561  0  0  0.3084  0  0.930247  0  0  0.313736  0  0.92689  0  0  0.306606  0.304565  0  0.932674  0
H  H3  1  0.58733940  0.20636678  0.70020029  1  0  0.315532  0  0.879571  0  0  0.308376  0  0.930263  0  0  0.313725  0  0.926867  0  0  0.306654  0.304546  0  0.932698  0
H  H4  1  0.24384017  0.81320568  0.45513258  1  0  0.325789  0  0.881545  0  0  0.315353  0  0.935917  0  0  0.320867  0  0.93288  0  0  0.303977  0.311421  0  0.938107  0
H  H5  1  0.75615561  0.18680647  0.54486631  1  0  0.325747  0  0.881713  0  0  0.315395  0  0.935985  0  0  0.320907  0  0.932951  0  0  0.304027  0.311458  0  0.938188  0
H  H6  1  0.57199275  0.54177625  0.13880534  1  0  0.127481  0  0.925816  0  0  0.136456  0  0.985349  0  0  0.140675  0  0.981835  0  0  0.11407  0.133411  0  0.987953  0
H  H7  1  0.42801903  0.45822808  0.86118473  1  0  0.127511  0  0.92592  0  0  0.136444  0  0.985471  0  0  0.140662  0  0.98196  0  0  0.114073  0.133399  0  0.988077  0
H  H8  1  0.16893712  0.56558564  0.55644392  1  0  0.120437  0  0.93922  0  0  0.128986  0  1.003314  0  0  0.132624  0  1.001313  0  0  0.107859  0.126361  0  1.004801  0
H  H9  1  0.83108362  0.43440631  0.44355305  1  0  0.120437  0  0.939178  0  0  0.129014  0  1.003251  0  0  0.132655  0  1.001248  0  0  0.107871  0.126391  0  1.004741  0
H  H10  1  0.49700951  0.08451637  0.30507060  1  0  0.099577  0  0.967848  0  0  0.105158  0  1.040471  0  0  0.109381  0  1.036703  0  0  0.099286  0.102112  0  1.043205  0
H  H11  1  0.50297910  0.91549113  0.69494181  1  0  0.099551  0  0.967802  0  0  0.105125  0  1.040449  0  0  0.109346  0  1.036685  0  0  0.099268  0.102078  0  1.043184  0
H  H12  1  0.88852636  0.87962341  0.64558349  1  0  0.416997  0  0.899661  0  0  0.381955  0  0.970967  0  0  0.393815  0  0.954085  0  0  0.282788  0.37359  0  0.982835  0
H  H13  1  0.11146864  0.12037492  0.35442166  1  0  0.416953  0  0.899718  0  0  0.381892  0  0.971055  0  0  0.393754  0  0.95417  0  0  0.28275  0.373526  0  0.982926  0
H  H14  1  0.87303891  0.84289107  0.82049601  1  0  0.435329  0  0.81004  0  0  0.416594  0  0.865042  0  0  0.424994  0  0.856118  0  0  0.320245  0.410608  0  0.871435  0
H  H15  1  0.12695075  0.15711220  0.17950644  1  0  0.435355  0  0.809943  0  0  0.416609  0  0.864955  0  0  0.425009  0  0.85603  0  0  0.320265  0.410624  0  0.871342  0
C  C16  1  0.70548685  0.20245747  0.07914460  1  0  0.659796  0  3.908019  0  0  0.610662  0  4.194264  0  0  0.645836  0  4.187873  0  0  0.203665  0.586721  0  4.197788  0
C  C17  1  0.29450797  0.79753443  0.92085975  1  0  0.659951  0  3.908069  0  0  0.610825  0  4.194301  0  0  0.646  0  4.187905  0  0  0.203752  0.586878  0  4.197829  0
C  C18  1  0.54994323  0.30331452  0.20898413  1  0  -0.050441  0  3.778964  0  0  -0.02323  0  4.011564  0  0  -0.031431  0  4.034923  0  0  -0.020048  -0.017955  0  3.995833  0
C  C19  1  0.45005288  0.69668126  0.79102096  1  0  -0.050608  0  3.779169  0  0  -0.023423  0  4.011803  0  0  -0.031623  0  4.035155  0  0  -0.020111  -0.018141  0  3.99606  0
C  C20  1  0.49855312  0.47991598  0.22309040  1  0  -0.125624  0  3.634396  0  0  -0.161374  0  3.887166  0  0  -0.160534  0  3.902758  0  0  -0.0766  -0.161754  0  3.876728  0
C  C21  1  0.50145176  0.52008456  0.77690313  1  0  -0.125657  0  3.634676  0  0  -0.16133  0  3.887406  0  0  -0.160495  0  3.903004  0  0  -0.076575  -0.161711  0  3.876961  0
C  C22  1  0.35620578  0.57588197  0.34476982  1  0  0.283204  0  3.805643  0  0  0.283017  0  4.058857  0  0  0.288034  0  4.081881  0  0  0.088417  0.279283  0  4.043294  0
C  C23  1  0.64379703  0.42411747  0.65522852  1  0  0.283116  0  3.805818  0  0  0.282903  0  4.059076  0  0  0.287918  0  4.082106  0  0  0.088366  0.279176  0  4.043502  0
C  C24  1  0.27158679  0.49387282  0.45673910  1  0  -0.157466  0  3.658918  0  0  -0.188519  0  3.908124  0  0  -0.190554  0  3.928365  0  0  -0.085833  -0.186891  0  3.894516  0
C  C25  1  0.72842232  0.50612533  0.54325721  1  0  -0.157464  0  3.658896  0  0  -0.188554  0  3.908137  0  0  -0.190584  0  3.928367  0  0  -0.085899  -0.186935  0  3.894536  0
C  C26  1  0.32139863  0.31702564  0.44143839  1  0  -0.060508  0  3.808531  0  0  -0.035051  0  4.046651  0  0  -0.042221  0  4.069238  0  0  -0.024341  -0.030507  0  4.031478  0
C  C27  1  0.67860086  0.68297117  0.55855947  1  0  -0.060449  0  3.808421  0  0  -0.034936  0  4.046518  0  0  -0.042106  0  4.069104  0  0  -0.024257  -0.030396  0  4.03135  0
C  C28  1  0.45741519  0.22201959  0.31654524  1  0  -0.114617  0  3.750031  0  0  -0.154184  0  4.003495  0  0  -0.153043  0  4.022402  0  0  -0.097033  -0.154732  0  3.990734  0
C  C29  1  0.54257841  0.77798507  0.68345874  1  0  -0.114465  0  3.749761  0  0  -0.154035  0  4.003218  0  0  -0.152894  0  4.022128  0  0  -0.096991  -0.154579  0  3.990451  0
C  C30  1  0.22876339  0.22803512  0.55797463  1  0  0.63192  0  3.922692  0  0  0.580818  0  4.215466  0  0  0.614789  0  4.209821  0  0  0.1997  0.55779  0  4.218419  0
C  C31  1  0.77124277  0.77197328  0.44202279  1  0  0.631857  0  3.922409  0  0  0.580692  0  4.215285  0  0  0.614668  0  4.209632  0  0  0.199635  0.55766  0  4.218242  0
N  N32  1  0.29486470  0.75580271  0.34967531  1  0  -0.682773  0  3.126993  0  0  -0.636967  0  3.364211  0  0  -0.657714  0  3.364925  0  0  -0.597392  -0.622304  0  3.36352  0
N  N33  1  0.70513047  0.24420670  0.65031935  1  0  -0.682664  0  3.127361  0  0  -0.636965  0  3.364519  0  0  -0.657706  0  3.365244  0  0  -0.597467  -0.622311  0  3.363835  0
O  O34  1  0.78261301  0.28668675  0.98626951  1  0  -0.623339  0  2.003139  0  0  -0.553207  0  2.243344  0  0  -0.583875  0  2.233465  0  0  -0.319635  -0.531798  0  2.249412  0
O  O35  1  0.21738218  0.71329743  0.01373401  1  0  -0.623353  0  2.003082  0  0  -0.553211  0  2.243262  0  0  -0.583878  0  2.233384  0  0  -0.319671  -0.531798  0  2.249332  0
O  O36  1  0.75302961  0.04061289  0.06616520  1  0  -0.696095  0  1.988748  0  0  -0.631294  0  2.233534  0  0  -0.65851  0  2.218403  0  0  -0.352878  -0.612128  0  2.243309  0
O  O37  1  0.24696129  0.95937131  0.93384010  1  0  -0.696196  0  1.988874  0  0  -0.631385  0  2.233631  0  0  -0.6586  0  2.218499  0  0  -0.352922  -0.61222  0  2.243406  0
O  O38  1  0.18414773  0.09976742  0.51576191  1  0  -0.662024  0  1.9973  0  0  -0.593402  0  2.227247  0  0  -0.62184  0  2.218493  0  0  -0.325048  -0.573408  0  2.232582  0
O  O39  1  0.81584716  0.90024046  0.48425726  1  0  -0.661952  0  1.997178  0  0  -0.593348  0  2.227178  0  0  -0.621784  0  2.218423  0  0  -0.325036  -0.573354  0  2.232516  0
O  O40  1  0.19492292  0.28144587  0.69503397  1  0  -0.616263  0  1.930476  0  0  -0.550752  0  2.160725  0  0  -0.579108  0  2.150195  0  0  -0.320205  -0.530957  0  2.167341  0
O  O41  1  0.80508819  0.71855334  0.30495643  1  0  -0.616305  0  1.930269  0  0  -0.550793  0  2.160583  0  0  -0.579148  0  2.150051  0  0  -0.320193  -0.530994  0  2.167196  0
O  O42  1  0.96190356  0.86686697  0.73643739  1  0  -0.832176  0  1.884666  0  0  -0.772219  0  2.087725  0  0  -0.795573  0  2.058773  0  0  -0.575956  -0.75571  0  2.10772  0
O  O43  1  0.03809200  0.13313009  0.26356773  1  0  -0.832156  0  1.884627  0  0  -0.772176  0  2.087698  0  0  -0.795524  0  2.058738  0  0  -0.575946  -0.755665  0  2.107681  0
