# generated using pymatgen
data_Mn3H16C28(NO5)2
_symmetry_space_group_name_H-M   'P 1'
_cell_length_a   11.72522472
_cell_length_b   12.30145866
_cell_length_c   12.69818366
_cell_angle_alpha   90.00034323
_cell_angle_beta   98.88947950
_cell_angle_gamma   90.00042085
_symmetry_Int_Tables_number   1
_chemical_formula_structural   Mn3H16C28(NO5)2
_chemical_formula_sum   'Mn6 H32 C56 N4 O20'
_cell_volume   1809.55243957
_cell_formula_units_Z   2
loop_
 _symmetry_equiv_pos_site_id
 _symmetry_equiv_pos_as_xyz
  1  'x, y, z'
loop_
 _atom_site_type_symbol
 _atom_site_label
 _atom_site_symmetry_multiplicity
 _atom_site_fract_x
 _atom_site_fract_y
 _atom_site_fract_z
 _atom_site_occupancy
 _atom_site_pbe_bader_charge
 _atom_site_pbe_bader_spin_density
 _atom_site_pbe_cm5_charge
 _atom_site_pbe_ddec_charge
 _atom_site_pbe_ddec_spin_density
 _atom_site_pbe_ddec_sum_bond_order
 _atom_site_pbe_magmom
Mn  Mn0  1  0.35773419  0.87943215  0.33597179  1  0.923976  0.016778  0.454711  -0.075991  0.01743  5.330112  0.016
Mn  Mn1  1  0.64226803  0.37941711  0.16401360  1  0.923636  0.016785  0.454638  -0.075991  0.017437  5.330087  0.016
Mn  Mn2  1  0.64226388  0.12058432  0.66403231  1  0.923942  0.016781  0.454767  -0.076035  0.017433  5.330207  0.016
Mn  Mn3  1  0.35772826  0.62057984  0.83598239  1  0.923986  0.016775  0.454669  -0.076022  0.017428  5.33015  0.016
Mn  Mn4  1  0.49999862  0.50000010  0.50000357  1  1.518334  4.525996  0.599013  0.89089  4.651792  2.454237  4.46
Mn  Mn5  1  0.49998976  0.00001298  0.99999652  1  1.518364  4.525996  0.598968  0.890749  4.651808  2.454368  4.46
H  H6  1  0.40035344  0.65191112  0.27298857  1  0.1399  0.000519  0.117379  0.142807  -1.3e-05  0.996465  0.0
H  H7  1  0.41821366  0.79139258  0.13194079  1  0.104629  0.000373  0.11455  0.134372  -6.9e-05  1.018897  0.0
H  H8  1  0.56932012  0.01489976  0.37409488  1  0.117555  0.000455  0.11482  0.130593  0.000196  0.99822  0.0
H  H9  1  0.55278221  0.87628335  0.51417127  1  0.07331  0.000473  0.116183  0.132269  0.000162  0.98846  0.0
H  H10  1  0.28956276  0.65831135  0.45585696  1  0.126221  0.001211  0.114485  0.073733  0.000642  1.055467  0.0
H  H11  1  0.07911196  0.66836063  0.45160669  1  0.053479  0.000688  0.111225  0.116058  0.000396  1.00723  0.0
H  H12  1  0.09095967  0.33009620  0.54851118  1  0.077991  0.000735  0.113899  0.120283  0.000431  0.99636  0.0
H  H13  1  0.30076986  0.33618402  0.54827345  1  0.097957  0.001234  0.119884  0.09076  0.000497  1.005889  0.0
H  H14  1  0.59963741  0.15190918  0.22701284  1  0.139905  0.000519  0.117407  0.142843  -1.3e-05  0.9965  0.0
H  H15  1  0.58177754  0.29139383  0.36805833  1  0.104654  0.000373  0.114565  0.134446  -6.9e-05  1.018876  0.0
H  H16  1  0.43067553  0.51489775  0.12590324  1  0.117042  0.000455  0.114795  0.130552  0.000196  0.998296  0.0
H  H17  1  0.44721119  0.37627951  0.98582698  1  0.07329  0.000473  0.116205  0.132257  0.000162  0.988475  0.0
H  H18  1  0.71043845  0.15831150  0.04414039  1  0.126458  0.001211  0.114421  0.073623  0.000642  1.055361  0.0
H  H19  1  0.92089110  0.16836146  0.04839491  1  0.053447  0.000688  0.111209  0.116078  0.000396  1.007227  0.0
H  H20  1  0.90904111  0.83009631  0.95149018  1  0.077984  0.000735  0.1139  0.120295  0.000431  0.99642  0.0
H  H21  1  0.69922923  0.83618266  0.95172535  1  0.097927  0.001234  0.119868  0.090736  0.000497  1.005898  0.0
H  H22  1  0.59964891  0.34809071  0.72701061  1  0.139846  0.000519  0.117373  0.142773  -1.3e-05  0.996438  0.0
H  H23  1  0.58178697  0.20861007  0.86805894  1  0.104623  0.000373  0.114566  0.134397  -6.9e-05  1.01885  0.0
H  H24  1  0.43068313  0.98509963  0.62590915  1  0.117593  0.000455  0.114852  0.130659  0.000196  0.998203  0.0
H  H25  1  0.44722101  0.12371442  0.48583038  1  0.073362  0.000473  0.1162  0.132338  0.000162  0.988426  0.0
H  H26  1  0.71043615  0.34168804  0.54414490  1  0.126213  0.001211  0.114439  0.073622  0.000641  1.055438  0.0
H  H27  1  0.92088781  0.33163877  0.54839450  1  0.053467  0.000688  0.111226  0.116067  0.000396  1.007261  0.0
H  H28  1  0.90904009  0.66990156  0.45148843  1  0.077793  0.000735  0.113895  0.120268  0.000431  0.996397  0.0
H  H29  1  0.69922990  0.66381456  0.45172695  1  0.097954  0.001234  0.119885  0.090787  0.000497  1.005882  0.0
H  H30  1  0.40035546  0.84808940  0.77298819  1  0.139894  0.000519  0.117385  0.142793  -1.3e-05  0.996504  0.0
H  H31  1  0.41821445  0.70860557  0.63194022  1  0.10464  0.000373  0.114557  0.134399  -6.9e-05  1.018864  0.0
H  H32  1  0.56931816  0.48510083  0.87409161  1  0.117571  0.000455  0.114844  0.130655  0.000196  0.998223  0.0
H  H33  1  0.55278423  0.62371745  0.01416967  1  0.073335  0.000473  0.116189  0.13228  0.000162  0.988465  0.0
H  H34  1  0.28956302  0.84168871  0.95585788  1  0.126226  0.001211  0.114483  0.073694  0.000642  1.055516  0.0
H  H35  1  0.07911126  0.83163874  0.95160664  1  0.053472  0.000688  0.111241  0.116118  0.000396  1.007223  0.0
H  H36  1  0.09096387  0.16990390  0.04851566  1  0.077761  0.000736  0.11389  0.12028  0.000431  0.996319  0.0
H  H37  1  0.30077485  0.16381592  0.04827485  1  0.097893  0.001234  0.119876  0.090741  0.000497  1.005989  0.0
C  C38  1  0.49243072  0.74466182  0.40441135  1  0.795191  0.009983  0.089343  0.354544  0.009259  4.120753  0.009
C  C39  1  0.44184409  0.72978665  0.29460049  1  -0.183693  0.003049  -0.116591  -0.168832  0.001937  3.886494  0.002
C  C40  1  0.45189984  0.80886161  0.21490879  1  -0.175362  0.002633  -0.1167  -0.172744  0.001689  3.874565  0.001
C  C41  1  0.51571852  0.90853464  0.23801080  1  0.854648  0.007507  0.102964  0.38693  0.007171  4.081423  0.007
C  C42  1  0.53772413  0.93370932  0.35131193  1  -0.188219  0.003477  -0.112944  -0.155586  0.002479  3.880276  0.002
C  C43  1  0.52845123  0.85569276  0.43019994  1  -0.12472  0.003555  -0.11384  -0.152713  0.002497  3.892498  0.002
C  C44  1  0.29879602  0.87670093  0.45636389  1  0.84113  0.001464  0.01116  0.101252  0.000958  3.801947  0.001
C  C45  1  0.22531136  0.82835297  0.26503165  1  0.882955  0.000751  0.033867  0.141754  0.000417  3.764794  0.0
C  C46  1  0.31478281  0.01659846  0.30751880  1  0.857135  0.000985  0.021127  0.119674  0.000479  3.779677  0.0
C  C47  1  0.24169928  0.58738957  0.47606084  1  0.442804  0.005499  0.053289  0.095738  0.004249  3.957886  0.003
C  C48  1  0.12299569  0.59188943  0.47355376  1  0.000279  0.000776  -0.078272  -0.167232  0.000298  3.940667  0.0
C  C49  1  0.06316576  0.49940189  0.50013827  1  -0.004105  0.004492  0.014757  0.104603  0.003393  3.970992  0.003
C  C50  1  0.12968496  0.40571901  0.52713828  1  0.000857  0.000802  -0.075635  -0.165901  0.000372  3.934386  0.0
C  C51  1  0.24824072  0.40825734  0.52757135  1  0.482224  0.00566  0.054966  0.102559  0.004145  3.95467  0.004
C  C52  1  0.50756522  0.24465761  0.09558500  1  0.795216  0.009981  0.08931  0.354525  0.00926  4.120947  0.009
C  C53  1  0.55815090  0.22978591  0.20540195  1  -0.183801  0.003052  -0.116668  -0.168963  0.00194  3.886633  0.002
C  C54  1  0.54809754  0.30886374  0.28508892  1  -0.175543  0.002633  -0.116691  -0.172818  0.001688  3.874587  0.001
C  C55  1  0.48427629  0.40853536  0.26198714  1  0.854958  0.007507  0.102991  0.386868  0.007171  4.081395  0.007
C  C56  1  0.46227520  0.43370837  0.14868441  1  -0.187951  0.003477  -0.112895  -0.155526  0.002478  3.880177  0.002
C  C57  1  0.47154398  0.35568814  0.06979854  1  -0.124453  0.003555  -0.113873  -0.152706  0.002497  3.892384  0.002
C  C58  1  0.70121401  0.37669613  0.04363200  1  0.841526  0.001463  0.011084  0.101205  0.000957  3.802489  0.001
C  C59  1  0.77468876  0.32834987  0.23496497  1  0.882923  0.000751  0.033819  0.141771  0.000416  3.764885  0.0
C  C60  1  0.68522146  0.51659783  0.19247735  1  0.857186  0.000985  0.021162  0.119478  0.000479  3.779723  0.0
C  C61  1  0.75830304  0.08738993  0.02393782  1  0.442561  0.005494  0.053305  0.095769  0.004245  3.957835  0.003
C  C62  1  0.87700584  0.09188901  0.02644797  1  0.000237  0.000778  -0.07823  -0.167235  0.0003  3.940843  0.0
C  C63  1  0.93683567  0.99940331  0.99986495  1  -0.004095  0.004487  0.014733  0.104593  0.003389  3.971025  0.003
C  C64  1  0.87031390  0.90571735  0.97286168  1  0.000888  0.000804  -0.075608  -0.165891  0.000374  3.934353  0.0
C  C65  1  0.75175902  0.90825810  0.97242875  1  0.482224  0.005655  0.054971  0.102563  0.00414  3.95475  0.004
C  C66  1  0.50757248  0.25533676  0.59558637  1  0.795153  0.009981  0.089254  0.354521  0.009258  4.120998  0.009
C  C67  1  0.55815997  0.27021600  0.70539814  1  -0.183706  0.00305  -0.116663  -0.168883  0.001938  3.886392  0.002
C  C68  1  0.54810079  0.19113941  0.78509094  1  -0.17526  0.002635  -0.116756  -0.172787  0.00169  3.874417  0.001
C  C69  1  0.48428471  0.09146719  0.76199086  1  0.854693  0.00751  0.102958  0.386913  0.007174  4.081403  0.007
C  C70  1  0.46227910  0.06628845  0.64869051  1  -0.188358  0.003478  -0.112922  -0.155553  0.00248  3.880111  0.002
C  C71  1  0.47154940  0.14430744  0.56980137  1  -0.124725  0.003554  -0.113881  -0.152841  0.002496  3.892501  0.002
C  C72  1  0.70120548  0.12330253  0.54363832  1  0.841212  0.001463  0.011124  0.101226  0.000957  3.801944  0.001
C  C73  1  0.77469102  0.17164805  0.73497226  1  0.883078  0.000751  0.033792  0.141765  0.000417  3.765027  0.0
C  C74  1  0.68521436  0.98340581  0.69248124  1  0.857048  0.000985  0.021166  0.119603  0.000479  3.779552  0.0
C  C75  1  0.75830307  0.41260982  0.52393912  1  0.442752  0.005498  0.053347  0.095888  0.004247  3.957868  0.003
C  C76  1  0.87700407  0.40810996  0.52644664  1  0.000218  0.000776  -0.078305  -0.167284  0.000298  3.940903  0.0
C  C77  1  0.93683314  0.50059587  0.49986123  1  0.042155  0.004476  0.014754  0.104604  0.003392  3.971018  0.003
C  C78  1  0.87031395  0.59428119  0.47286201  1  0.00082  0.000802  -0.075624  -0.165854  0.000372  3.934314  0.0
C  C79  1  0.75175820  0.59174124  0.47243051  1  0.482242  0.005659  0.054931  0.102464  0.004143  3.954691  0.004
C  C80  1  0.49243194  0.75534015  0.90441269  1  0.795233  0.009974  0.089346  0.354671  0.009251  4.120983  0.009
C  C81  1  0.44184543  0.77021267  0.79459956  1  -0.183695  0.003047  -0.116616  -0.16886  0.001936  3.886622  0.002
C  C82  1  0.45189963  0.69113728  0.71490955  1  -0.175416  0.002635  -0.11669  -0.172753  0.00169  3.874567  0.001
C  C83  1  0.51571742  0.59146484  0.73801007  1  0.854529  0.00751  0.103043  0.387044  0.007173  4.081333  0.007
C  C84  1  0.53772280  0.56629021  0.85131024  1  -0.188187  0.003478  -0.112948  -0.155646  0.002479  3.880279  0.002
C  C85  1  0.52845491  0.64430800  0.93019938  1  -0.124637  0.003553  -0.113858  -0.152776  0.002496  3.89238  0.002
C  C86  1  0.29879092  0.62330163  0.95636753  1  0.840882  0.001463  0.011047  0.101175  0.000957  3.802194  0.001
C  C87  1  0.22530667  0.67165034  0.76503326  1  0.883009  0.000751  0.033818  0.141758  0.000417  3.764982  0.0
C  C88  1  0.31477916  0.48340319  0.80752081  1  0.857108  0.000985  0.021222  0.119654  0.000479  3.779698  0.0
C  C89  1  0.24169930  0.91260946  0.97606136  1  0.442757  0.005503  0.053327  0.095869  0.004252  3.957851  0.003
C  C90  1  0.12299566  0.90811120  0.97355345  1  0.000279  0.000774  -0.078329  -0.167398  0.000296  3.940797  0.0
C  C91  1  0.06316672  0.00059690  0.00014053  1  0.042152  0.004481  0.01476  0.104609  0.003396  3.970957  0.003
C  C92  1  0.12968934  0.09428041  0.02714076  1  0.000864  0.0008  -0.075602  -0.165835  0.000369  3.934222  0.0
C  C93  1  0.24824248  0.09174373  0.02757267  1  0.482192  0.005664  0.054941  0.102504  0.004148  3.954587  0.004
N  N94  1  0.30483314  0.49759484  0.50329251  1  -1.237431  0.047392  -0.304233  -0.232289  0.032927  3.476311  0.017
N  N95  1  0.69516739  0.99759291  0.99670743  1  -1.237352  0.04738  -0.304265  -0.232293  0.032929  3.476332  0.017
N  N96  1  0.69516664  0.50240537  0.49670947  1  -1.237399  0.047386  -0.304235  -0.232316  0.032931  3.476402  0.017
N  N97  1  0.30483408  0.00240567  0.00329005  1  -1.237406  0.047399  -0.304214  -0.232254  0.032926  3.476225  0.017
O  O98  1  0.49548952  0.67250233  0.47766700  1  -1.191431  0.057967  -0.322154  -0.522029  0.04129  2.363088  0.025
O  O99  1  0.54047200  0.97639882  0.16929063  1  -1.193287  0.057126  -0.310071  -0.50063  0.040242  2.334343  0.026
O  O100  1  0.25972752  0.87328681  0.53595118  1  -1.130502  0.000578  -0.173638  -0.162791  0.000248  2.373498  0.0
O  O101  1  0.13899016  0.79359648  0.21935816  1  -1.11095  0.000517  -0.165384  -0.157778  0.000308  2.364119  0.0
O  O102  1  0.28717717  0.10700791  0.29043325  1  -1.114715  0.000331  -0.168652  -0.158841  6.8e-05  2.370878  0.0
O  O103  1  0.50451097  0.17250577  0.02233270  1  -1.191679  0.057997  -0.322067  -0.521864  0.041292  2.363492  0.025
O  O104  1  0.45951910  0.47639898  0.33070720  1  -1.193218  0.057117  -0.310112  -0.500588  0.040244  2.334368  0.026
O  O105  1  0.74028919  0.37327757  0.96405418  1  -1.130611  0.000578  -0.17362  -0.162765  0.000247  2.373795  0.0
O  O106  1  0.86100530  0.29359671  0.28063211  1  -1.110899  0.000516  -0.165342  -0.157765  0.000308  2.364235  0.0
O  O107  1  0.71283396  0.60700189  0.20956594  1  -1.11464  0.000331  -0.168571  -0.158632  6.8e-05  2.371236  0.0
O  O108  1  0.50451623  0.32749219  0.52232713  1  -1.191497  0.057971  -0.322013  -0.521934  0.041286  2.363144  0.025
O  O109  1  0.45953124  0.02360301  0.83071260  1  -1.193209  0.057135  -0.310075  -0.500616  0.040254  2.334401  0.026
O  O110  1  0.74027398  0.12671177  0.46405025  1  -1.13044  0.000578  -0.173567  -0.162693  0.000247  2.373512  0.0
O  O111  1  0.86101223  0.20639641  0.78064654  1  -1.111163  0.000516  -0.165352  -0.157779  0.000308  2.364286  0.0
O  O112  1  0.71282089  0.89299554  0.70956849  1  -1.114575  0.000331  -0.168598  -0.158727  6.8e-05  2.370961  0.0
O  O113  1  0.49548533  0.82749444  0.97766645  1  -1.19149  0.05794  -0.322103  -0.522024  0.041278  2.363282  0.025
O  O114  1  0.54047201  0.52360041  0.66928808  1  -1.193264  0.057135  -0.310127  -0.500719  0.040254  2.33434  0.026
O  O115  1  0.25972185  0.62671532  0.03595485  1  -1.130147  0.000578  -0.173626  -0.162788  0.000247  2.373576  0.0
O  O116  1  0.13899012  0.70640431  0.71936376  1  -1.111051  0.000516  -0.165337  -0.157752  0.000308  2.364342  0.0
O  O117  1  0.28717528  0.39299506  0.79043261  1  -1.114667  0.000331  -0.168652  -0.158783  6.8e-05  2.371078  0.0
