# generated using pymatgen
data_AlH8C16O5F
_symmetry_space_group_name_H-M   'P 1'
_cell_length_a   6.62389099
_cell_length_b   15.21272417
_cell_length_c   15.31664239
_cell_angle_alpha   86.42459379
_cell_angle_beta   78.46536637
_cell_angle_gamma   77.30103909
_symmetry_Int_Tables_number   1
_chemical_formula_structural   AlH8C16O5F
_chemical_formula_sum   'Al2 H16 C32 O10 F2'
_cell_volume   1474.98245185
_cell_formula_units_Z   2
loop_
 _symmetry_equiv_pos_site_id
 _symmetry_equiv_pos_as_xyz
  1  'x, y, z'
loop_
 _atom_site_type_symbol
 _atom_site_label
 _atom_site_symmetry_multiplicity
 _atom_site_fract_x
 _atom_site_fract_y
 _atom_site_fract_z
 _atom_site_occupancy
 _atom_site_pbe_bader_charge
 _atom_site_pbe_bader_spin_density
 _atom_site_pbe_cm5_charge
 _atom_site_pbe_ddec_charge
 _atom_site_pbe_ddec_spin_density
 _atom_site_pbe_ddec_sum_bond_order
 _atom_site_pbe_magmom
Al  Al0  1  0.50000163  0.50001917  0.50005106  1  2.504586  0  0.400762  1.646929  0  2.572814  0
Al  Al1  1  0.00001175  0.49999872  0.50005690  1  2.507284  0  0.395983  1.646832  0  2.577514  0
H  H2  1  0.23167866  0.43844492  0.60154625  1  0.633458  0  0.351689  0.431265  0  0.855651  0
H  H3  1  0.76835319  0.56157992  0.39856587  1  0.635231  0  0.351769  0.431455  0  0.855661  0
H  H4  1  0.86691841  0.46259682  0.93796677  1  0.094589  0  0.107871  0.12659  0  1.018537  0
H  H5  1  0.13308244  0.53632442  0.06209528  1  0.095609  0  0.108097  0.126377  0  1.018862  0
H  H6  1  0.71192273  0.45736943  0.23155864  1  0.132081  0  0.111208  0.118021  0  1.005587  0
H  H7  1  0.80061628  0.45886143  0.06838570  1  0.065764  0  0.100411  0.1009  0  1.022448  0
H  H8  1  0.28822230  0.54324961  0.76854003  1  0.133112  0  0.110571  0.116913  0  1.005428  0
H  H9  1  0.19956019  0.54190380  0.93171111  1  0.025166  0  0.10121  0.101903  0  1.021301  0
H  H10  1  0.42360853  0.76909978  0.43921626  1  0.118143  0  0.109175  0.119655  0  0.997522  0
H  H11  1  0.53711072  0.91281373  0.38788374  1  0.074917  0  0.104754  0.107996  0  0.98811  0
H  H12  1  0.78828936  0.77370046  0.57599787  1  0.11336  0  0.109337  0.119067  0  0.996075  0
H  H13  1  0.54068474  0.92079595  0.61890748  1  0.057733  0  0.105384  0.109425  0  0.986926  0
H  H14  1  0.57635881  0.23095881  0.56069132  1  0.117987  0  0.109025  0.119452  0  0.99757  0
H  H15  1  0.46277438  0.08725503  0.61192171  1  0.075582  0  0.10492  0.108319  0  0.988076  0
H  H16  1  0.21166678  0.22635949  0.42391914  1  0.112715  0  0.109443  0.119121  0  0.996026  0
H  H17  1  0.45918321  0.07927350  0.38090407  1  0.057807  0  0.105498  0.109338  0  0.98703  0
C  C18  1  0.84402162  0.33788271  0.49358305  1  1.545974  0  0.263231  0.636292  0  4.103081  0
C  C19  1  0.66476556  0.50580007  0.66045774  1  1.597332  0  0.270359  0.65794  0  4.099771  0
C  C20  1  0.15594832  0.66215835  0.50643186  1  1.545569  0  0.263188  0.636042  0  4.102913  0
C  C21  1  0.33530524  0.49421599  0.33962460  1  1.595437  0  0.270203  0.657047  0  4.100292  0
C  C22  1  0.62231897  0.50576418  0.75982959  1  0.032241  0  -0.019982  -0.156865  0  3.956502  0
C  C23  1  0.37774038  0.49424044  0.24024931  1  0.037684  0  -0.02032  -0.156149  0  3.955561  0
C  C24  1  0.77932842  0.48403847  0.81171645  1  0.439625  0  0.111803  0.293709  0  4.032925  0
C  C25  1  0.73376703  0.48156095  0.90407923  1  0.014209  0  -0.101338  -0.267006  0  3.97891  0
C  C26  1  0.22068211  0.51556663  0.18836265  1  0.436376  0  0.110997  0.293522  0  4.034326  0
C  C27  1  0.26628475  0.51783527  0.09600433  1  0.014331  0  -0.10175  -0.267355  0  3.979291  0
C  C28  1  0.58675232  0.47397973  0.19296826  1  0.023142  0  -0.073845  -0.055977  0  3.982158  0
C  C29  1  0.63527901  0.47554468  0.10057275  1  -0.040407  0  -0.095044  -0.14792  0  3.980854  0
C  C30  1  0.41334928  0.52637252  0.80712091  1  0.028136  0  -0.073009  -0.053032  0  3.981308  0
C  C31  1  0.36483116  0.52479948  0.89951485  1  0.000824  0  -0.095852  -0.150016  0  3.980623  0
C  C32  1  0.52432018  0.50165356  0.95068826  1  -0.124512  0  0.002988  0.105917  0  3.987397  0
C  C33  1  0.47578083  0.49816979  0.04939915  1  -0.01457  0  0.003428  0.106325  0  3.988316  0
C  C34  1  0.26794496  0.80822068  0.46747381  1  -0.101999  0  -0.081939  -0.147883  0  3.933693  0
C  C35  1  0.22652115  0.90259452  0.46215098  1  0.019573  0  -0.009659  0.071887  0  4.052776  0
C  C36  1  0.38173505  0.95122406  0.41787263  1  -0.079918  0  -0.089672  -0.129975  0  4.018795  0
C  C37  1  0.90907192  0.81072055  0.54569548  1  -0.124639  0  -0.081113  -0.14633  0  3.93317  0
C  C38  1  0.86317245  0.90529624  0.54526370  1  0.080719  0  -0.009062  0.071344  0  4.047344  0
C  C39  1  0.66113985  0.95687878  0.58574300  1  -0.015938  0  -0.08956  -0.131545  0  4.01712  0
C  C40  1  0.73198353  0.19183929  0.53239743  1  -0.10399  0  -0.081793  -0.147386  0  3.934174  0
C  C41  1  0.77340192  0.09745333  0.53770129  1  0.00582  0  -0.009768  0.071913  0  4.053942  0
C  C42  1  0.61815140  0.04884335  0.58195562  1  -0.067477  0  -0.089889  -0.130875  0  4.019595  0
C  C43  1  0.09087559  0.18932728  0.45419829  1  -0.123553  0  -0.080823  -0.145887  0  3.933589  0
C  C44  1  0.13675122  0.09477990  0.45460955  1  0.070583  0  -0.009439  0.071227  0  4.048877  0
C  C45  1  0.33875370  0.04318728  0.41409383  1  -0.011451  0  -0.089471  -0.131843  0  4.017039  0
C  C46  1  0.10988220  0.76270616  0.50751285  1  -0.008119  0  -0.018275  -0.040257  0  4.020474  0
C  C47  1  0.02226323  0.95216452  0.50185381  1  -0.066681  0  0.00249  0.001406  0  3.913097  0
C  C48  1  0.89004378  0.23733966  0.49240262  1  -0.006154  0  -0.018135  -0.040242  0  4.020578  0
C  C49  1  0.97765744  0.04789613  0.49802528  1  0.067888  0  0.003108  0.001355  0  3.914156  0
O  O50  1  0.65038844  0.37790882  0.51220071  1  -1.268797  0  -0.239337  -0.601499  0  2.356062  0
O  O51  1  0.85607416  0.48935221  0.62030124  1  -1.253053  0  -0.231565  -0.59498  0  2.37803  0
O  O52  1  0.99915407  0.62388961  0.52172685  1  -1.26057  0  -0.238214  -0.586964  0  2.329691  0
O  O53  1  0.49497836  0.47910397  0.37720972  1  -1.253648  0  -0.231734  -0.578894  0  2.315429  0
O  O54  1  0.34958912  0.62212887  0.48785811  1  -1.267962  0  -0.239394  -0.601335  0  2.355412  0
O  O55  1  0.14400070  0.51065375  0.37980161  1  -1.253027  0  -0.231807  -0.59511  0  2.378534  0
O  O56  1  0.00083981  0.37613526  0.47835611  1  -1.26002  0  -0.2383  -0.58723  0  2.32974  0
O  O57  1  0.50508531  0.52093366  0.62288560  1  -1.252969  0  -0.231819  -0.579455  0  2.315412  0
O  O58  1  0.25151541  0.46026910  0.54027419  1  -1.437319  0  -0.448815  -0.994632  0  2.204136  0
O  O59  1  0.74848753  0.53974835  0.45983453  1  -1.439324  0  -0.448849  -0.994671  0  2.203915  0
F  F60  1  0.98755239  0.46292922  0.77358218  1  -0.637633  0  -0.090092  -0.137329  0  1.367498  0
F  F61  1  0.01247514  0.53640233  0.22648558  1  -0.63686  0  -0.08924  -0.136843  0  1.369963  0
