# generated using pymatgen
data_Zn5H24C36(N7O5)2
_symmetry_space_group_name_H-M   'P 1'
_cell_length_a   7.57970660
_cell_length_b   10.27046393
_cell_length_c   12.06308740
_cell_angle_alpha   103.08933900
_cell_angle_beta   96.86048514
_cell_angle_gamma   99.53137915
_symmetry_Int_Tables_number   1
_chemical_formula_structural   Zn5H24C36(N7O5)2
_chemical_formula_sum   'Zn5 H24 C36 N14 O10'
_cell_volume   889.92745256
_cell_formula_units_Z   1
loop_
 _symmetry_equiv_pos_site_id
 _symmetry_equiv_pos_as_xyz
  1  'x, y, z'
loop_
 _atom_site_type_symbol
 _atom_site_label
 _atom_site_symmetry_multiplicity
 _atom_site_fract_x
 _atom_site_fract_y
 _atom_site_fract_z
 _atom_site_occupancy
 _atom_site_hle17_bader_spin_density
 _atom_site_hle17_ddec_charge
 _atom_site_hle17_ddec_spin_density
 _atom_site_hle17_ddec_sum_bond_order
 _atom_site_hle17_magmom
 _atom_site_hse06_10hf_bader_spin_density
 _atom_site_hse06_10hf_ddec_charge
 _atom_site_hse06_10hf_ddec_spin_density
 _atom_site_hse06_10hf_ddec_sum_bond_order
 _atom_site_hse06_10hf_magmom
 _atom_site_hse06_bader_spin_density
 _atom_site_hse06_ddec_charge
 _atom_site_hse06_ddec_spin_density
 _atom_site_hse06_ddec_sum_bond_order
 _atom_site_hse06_magmom
 _atom_site_pbe_bader_spin_density
 _atom_site_pbe_cm5_charge
 _atom_site_pbe_ddec_charge
 _atom_site_pbe_ddec_spin_density
 _atom_site_pbe_ddec_sum_bond_order
 _atom_site_pbe_magmom
Zn  Zn0  1  0.49998544  0.50001539  0.49997783  1  0  0.987153  0  1.919298  0  0  0.787558  0  2.379822  0  0  0.834811  0  2.329926  0  0  0.653777  0.754382  0  2.414645  0
Zn  Zn1  1  0.43074972  0.16311206  0.42473864  1  0  0.956935  0  1.944605  0  0  0.764471  0  2.410958  0  0  0.807823  0  2.361528  0  0  0.720209  0.734509  0  2.44478  0
Zn  Zn2  1  0.56925034  0.83689560  0.57526640  1  0  0.956915  0  1.944655  0  0  0.764477  0  2.410998  0  0  0.807836  0  2.361572  0  0  0.720239  0.734503  0  2.44487  0
Zn  Zn3  1  0.15059689  0.31791036  0.28766973  1  0  1.101879  0  1.839051  0  0  0.928961  0  2.320403  0  0  0.973908  0  2.260968  0  0  0.693367  0.897484  0  2.361841  0
Zn  Zn4  1  0.84939525  0.68208197  0.71232847  1  0  1.10194  0  1.838938  0  0  0.928989  0  2.320375  0  0  0.973938  0  2.260934  0  0  0.693398  0.897509  0  2.361807  0
H  H5  1  0.22971156  0.95418450  0.49668887  1  0  0.303992  0  0.904112  0  0  0.280849  0  0.973826  0  0  0.290236  0  0.965806  0  0  0.317879  0.274095  0  0.979822  0
H  H6  1  0.77029255  0.04581805  0.50331139  1  0  0.303982  0  0.904153  0  0  0.280846  0  0.973866  0  0  0.290234  0  0.965842  0  0  0.317906  0.274093  0  0.979861  0
H  H7  1  0.85340981  0.32556945  0.09538321  1  0  0.086973  0  0.97157  0  0  0.095722  0  1.035525  0  0  0.09897  0  1.033935  0  0  0.097268  0.093412  0  1.036641  0
H  H8  1  0.14659053  0.67442394  0.90461916  1  0  0.086957  0  0.971571  0  0  0.095736  0  1.035495  0  0  0.098963  0  1.033924  0  0  0.097277  0.093425  0  1.036606  0
H  H9  1  0.68310514  0.08489511  0.02629561  1  0  0.083782  0  0.963393  0  0  0.096922  0  1.022191  0  0  0.099283  0  1.021692  0  0  0.100152  0.095271  0  1.022599  0
H  H10  1  0.31689018  0.91509927  0.97370406  1  0  0.083768  0  0.963417  0  0  0.096929  0  1.022181  0  0  0.099291  0  1.021683  0  0  0.100137  0.095277  0  1.022594  0
H  H11  1  0.52659605  0.99632794  0.82337296  1  0  0.089879  0  0.965187  0  0  0.099047  0  1.032631  0  0  0.102252  0  1.030551  0  0  0.101217  0.096927  0  1.034009  0
H  H12  1  0.47340353  0.00366747  0.17662642  1  0  0.089909  0  0.965146  0  0  0.099089  0  1.032571  0  0  0.102298  0  1.030493  0  0  0.101234  0.096969  0  1.033946  0
H  H13  1  0.85411507  0.47986404  0.96250734  1  0  0.097137  0  0.976748  0  0  0.106045  0  1.041932  0  0  0.109018  0  1.040872  0  0  0.10246  0.103938  0  1.042785  0
H  H14  1  0.14589086  0.52013038  0.03749485  1  0  0.097207  0  0.97688  0  0  0.106097  0  1.042072  0  0  0.109073  0  1.041004  0  0  0.102521  0.103984  0  1.042933  0
H  H15  1  0.74661912  0.61161491  0.25730534  1  0  0.097056  0  0.967848  0  0  0.10482  0  1.03358  0  0  0.107998  0  1.032341  0  0  0.104454  0.102482  0  1.034716  0
H  H16  1  0.25337832  0.38838763  0.74269521  1  0  0.097052  0  0.967872  0  0  0.104844  0  1.033576  0  0  0.108015  0  1.032348  0  0  0.104473  0.102509  0  1.034714  0
H  H17  1  0.60056461  0.57589966  0.05485888  1  0  0.086697  0  0.961827  0  0  0.098904  0  1.019752  0  0  0.101346  0  1.018931  0  0  0.102819  0.097099  0  1.020494  0
H  H18  1  0.39943149  0.42410289  0.94514322  1  0  0.086681  0  0.961832  0  0  0.098882  0  1.019773  0  0  0.101323  0  1.018954  0  0  0.102809  0.097102  0  1.020484  0
H  H19  1  0.68076587  0.75046237  0.94634802  1  0  0.103615  0  0.938902  0  0  0.115524  0  0.994159  0  0  0.119013  0  0.992236  0  0  0.106945  0.112969  0  0.995751  0
H  H20  1  0.31923131  0.24953915  0.05365232  1  0  0.103643  0  0.938909  0  0  0.11556  0  0.994156  0  0  0.119049  0  0.992234  0  0  0.106964  0.113028  0  0.995724  0
H  H21  1  0.90689111  0.96310676  0.04261508  1  0  0.098948  0  0.978331  0  0  0.106808  0  1.045815  0  0  0.1104  0  1.043231  0  0  0.103909  0.104185  0  1.047794  0
H  H22  1  0.09310847  0.03689375  0.95738526  1  0  0.098937  0  0.978318  0  0  0.106789  0  1.045818  0  0  0.110381  0  1.043235  0  0  0.103917  0.10417  0  1.04779  0
H  H23  1  0.90455721  0.53839990  0.38570583  1  0  0.099718  0  0.988515  0  0  0.108449  0  1.050207  0  0  0.111628  0  1.046838  0  0  0.133976  0.106138  0  1.052675  0
H  H24  1  0.09544214  0.46159957  0.61429098  1  0  0.099678  0  0.988546  0  0  0.108412  0  1.050239  0  0  0.11159  0  1.046873  0  0  0.133974  0.106098  0  1.052717  0
H  H25  1  0.76514109  0.10961061  0.27266005  1  0  0.091755  0  0.955245  0  0  0.098974  0  1.024609  0  0  0.10056  0  1.022654  0  0  0.13294  0.097701  0  1.026254  0
H  H26  1  0.23485816  0.89038890  0.72734505  1  0  0.091706  0  0.955269  0  0  0.098937  0  1.02462  0  0  0.100522  0  1.022667  0  0  0.132959  0.097665  0  1.026263  0
H  H27  1  0.20987527  0.31419130  0.49124040  1  0  0.41368  0  0.897436  0  0  0.380633  0  0.966577  0  0  0.390777  0  0.952116  0  0  0.28313  0.373473  0  0.976766  0
H  H28  1  0.79013283  0.68581636  0.50876114  1  0  0.413746  0  0.897402  0  0  0.380692  0  0.966507  0  0  0.390834  0  0.952049  0  0  0.283186  0.373534  0  0.976694  0
C  C29  1  0.78115102  0.28776204  0.00714050  1  0  -0.055115  0  3.740419  0  0  -0.065762  0  3.986086  0  0  -0.066907  0  4.006025  0  0  -0.085803  -0.064655  0  3.972114  0
C  C30  1  0.21884826  0.71223236  0.99286115  1  0  -0.05502  0  3.740348  0  0  -0.065709  0  3.986041  0  0  -0.066835  0  4.005988  0  0  -0.085711  -0.064602  0  3.972075  0
C  C31  1  0.68576717  0.15190744  0.96795661  1  0  -0.060102  0  3.7468  0  0  -0.073651  0  3.994738  0  0  -0.075329  0  4.015267  0  0  -0.087359  -0.072349  0  3.980696  0
C  C32  1  0.31423266  0.84808900  0.03204464  1  0  -0.060128  0  3.746842  0  0  -0.073677  0  3.994776  0  0  -0.075356  0  4.015302  0  0  -0.087398  -0.072386  0  3.980747  0
C  C33  1  0.59693320  0.10224754  0.85497256  1  0  -0.072441  0  3.733202  0  0  -0.094749  0  3.98304  0  0  -0.095746  0  4.00331  0  0  -0.084194  -0.094297  0  3.969391  0
C  C34  1  0.40306290  0.89774991  0.14502858  1  0  -0.072434  0  3.733211  0  0  -0.094766  0  3.983052  0  0  -0.095771  0  4.003329  0  0  -0.084196  -0.094323  0  3.969418  0
C  C35  1  0.59878009  0.18848036  0.77945731  1  0  -0.061972  0  3.785145  0  0  -0.047054  0  4.017409  0  0  -0.051744  0  4.040578  0  0  -0.013572  -0.043785  0  4.001624  0
C  C36  1  0.40122106  0.81151609  0.22054404  1  0  -0.062115  0  3.785186  0  0  -0.047209  0  4.017399  0  0  -0.0519  0  4.040571  0  0  -0.01359  -0.043937  0  4.0016  0
C  C37  1  0.69029573  0.32594975  0.81981449  1  0  -0.046117  0  3.76284  0  0  -0.03163  0  3.992447  0  0  -0.034357  0  4.013658  0  0  -0.009431  -0.029872  0  3.978002  0
C  C38  1  0.30970567  0.67404772  0.18018874  1  0  -0.046062  0  3.762523  0  0  -0.031449  0  3.992072  0  0  -0.034175  0  4.013281  0  0  -0.009366  -0.029699  0  3.977622  0
C  C39  1  0.78352799  0.37389828  0.93372204  1  0  -0.082111  0  3.728838  0  0  -0.104672  0  3.977113  0  0  -0.106215  0  3.996521  0  0  -0.083986  -0.103434  0  3.96367  0
C  C40  1  0.21647315  0.62609817  0.06628015  1  0  -0.082211  0  3.728849  0  0  -0.104777  0  3.977094  0  0  -0.106315  0  3.996492  0  0  -0.084131  -0.103541  0  3.963659  0
C  C41  1  0.68005077  0.41718867  0.74366237  1  0  0.452695  0  3.895412  0  0  0.415178  0  4.177175  0  0  0.437399  0  4.184922  0  0  0.19938  0.400164  0  4.17171  0
C  C42  1  0.31995278  0.58280676  0.25633899  1  0  0.452994  0  3.894977  0  0  0.415266  0  4.176974  0  0  0.437486  0  4.18473  0  0  0.199495  0.400274  0  4.171471  0
C  C43  1  0.50963605  0.14249453  0.65994722  1  0  0.455589  0  3.913593  0  0  0.407067  0  4.205998  0  0  0.431349  0  4.212696  0  0  0.194348  0.39071  0  4.200853  0
C  C44  1  0.49036588  0.85750498  0.34005644  1  0  0.455636  0  3.913534  0  0  0.407158  0  4.205912  0  0  0.431444  0  4.212604  0  0  0.19437  0.390811  0  4.200743  0
C  C45  1  0.78366437  0.68698367  0.20930859  1  0  -0.064899  0  3.707256  0  0  -0.089065  0  3.957505  0  0  -0.08995  0  3.976643  0  0  -0.078665  -0.088576  0  3.944768  0
C  C46  1  0.21633173  0.31301888  0.79069268  1  0  -0.064944  0  3.707286  0  0  -0.089127  0  3.957553  0  0  -0.089998  0  3.976679  0  0  -0.078694  -0.088642  0  3.944836  0
C  C47  1  0.70138368  0.66795823  0.09617050  1  0  -0.045123  0  3.739766  0  0  -0.060322  0  3.992737  0  0  -0.061476  0  4.012762  0  0  -0.076972  -0.05935  0  3.979078  0
C  C48  1  0.29861535  0.33204533  0.90383120  1  0  -0.045044  0  3.739683  0  0  -0.060244  0  3.992685  0  0  -0.061396  0  4.012707  0  0  -0.076962  -0.059283  0  3.979023  0
C  C49  1  0.74522899  0.76687700  0.03533168  1  0  -0.039888  0  3.716972  0  0  -0.055235  0  3.967862  0  0  -0.055858  0  3.986946  0  0  -0.075398  -0.054725  0  3.954932  0
C  C50  1  0.25476710  0.23312555  0.96467042  1  0  -0.039889  0  3.716938  0  0  -0.05524  0  3.96783  0  0  -0.055866  0  3.986917  0  0  -0.075352  -0.054748  0  3.954901  0
C  C51  1  0.87146660  0.88545744  0.08861034  1  0  -0.07826  0  3.714789  0  0  -0.100713  0  3.964295  0  0  -0.102605  0  3.984182  0  0  -0.081377  -0.09919  0  3.950778  0
C  C52  1  0.12853325  0.11454409  0.91139021  1  0  -0.078258  0  3.714785  0  0  -0.100715  0  3.964296  0  0  -0.102606  0  3.984178  0  0  -0.081386  -0.099186  0  3.950781  0
C  C53  1  0.95849012  0.90536807  0.20239456  1  0  -0.0515  0  3.76555  0  0  -0.037033  0  3.995945  0  0  -0.04094  0  4.018545  0  0  -0.008108  -0.034671  0  3.980884  0
C  C54  1  0.04150972  0.09463346  0.79760599  1  0  -0.051482  0  3.765505  0  0  -0.036988  0  3.99587  0  0  -0.040893  0  4.018473  0  0  -0.008121  -0.034623  0  3.98081  0
C  C55  1  0.91471572  0.80490418  0.26316352  1  0  -0.058158  0  3.750822  0  0  -0.045384  0  3.9871  0  0  -0.049688  0  4.007971  0  0  -0.008193  -0.042698  0  3.973294  0
C  C56  1  0.08528307  0.19509836  0.73683630  1  0  -0.058236  0  3.750866  0  0  -0.045489  0  3.98722  0  0  -0.0498  0  4.008099  0  0  -0.008241  -0.042806  0  3.973426  0
C  C57  1  0.09874448  0.02619101  0.25717737  1  0  0.453951  0  3.910263  0  0  0.410078  0  4.195597  0  0  0.43481  0  4.201813  0  0  0.208686  0.393446  0  4.190833  0
C  C58  1  0.90125803  0.97381052  0.74282257  1  0  0.453878  0  3.910486  0  0  0.410029  0  4.195764  0  0  0.434763  0  4.201984  0  0  0.20867  0.393393  0  4.191008  0
C  C59  1  0.00993716  0.82387659  0.38044839  1  0  0.504698  0  3.850018  0  0  0.450797  0  4.148218  0  0  0.479137  0  4.148589  0  0  0.228415  0.431905  0  4.14733  0
C  C60  1  0.99006719  0.17612190  0.61955277  1  0  0.504667  0  3.850014  0  0  0.450753  0  4.148255  0  0  0.479094  0  4.148625  0  0  0.228417  0.431855  0  4.147375  0
C  C61  1  0.82974308  0.43342935  0.36421072  1  0  0.208213  0  3.679052  0  0  0.153702  0  3.946467  0  0  0.166161  0  3.959421  0  0  0.141064  0.145537  0  3.937626  0
C  C62  1  0.17025494  0.56657012  0.63578598  1  0  0.208348  0  3.678852  0  0  0.153842  0  3.946257  0  0  0.166303  0  3.959207  0  0  0.141105  0.145684  0  3.93742  0
C  C63  1  0.75999027  0.21596574  0.30575768  1  0  0.226728  0  3.696956  0  0  0.165807  0  3.970591  0  0  0.180566  0  3.982653  0  0  0.146416  0.155683  0  3.962961  0
C  C64  1  0.24000929  0.78403477  0.69424431  1  0  0.226874  0  3.696846  0  0  0.165946  0  3.970508  0  0  0.180706  0  3.982568  0  0  0.146439  0.155819  0  3.962884  0
N  N65  1  0.59444633  0.36958754  0.63525576  1  0  -0.346755  0  3.097081  0  0  -0.302762  0  3.378836  0  0  -0.319234  0  3.395279  0  0  -0.244845  -0.291831  0  3.368231  0
N  N66  1  0.40556361  0.63041198  0.36474605  1  0  -0.346832  0  3.097157  0  0  -0.302725  0  3.37903  0  0  -0.319203  0  3.39548  0  0  -0.244884  -0.291793  0  3.36841  0
N  N67  1  0.51854892  0.23240006  0.59486076  1  0  -0.353215  0  3.277226  0  0  -0.280985  0  3.577441  0  0  -0.302181  0  3.592501  0  0  -0.27508  -0.266745  0  3.566914  0
N  N68  1  0.48145727  0.76760048  0.40514260  1  0  -0.35317  0  3.277159  0  0  -0.281057  0  3.577489  0  0  -0.302254  0  3.59255  0  0  -0.275083  -0.266818  0  3.566959  0
N  N69  1  0.19235083  0.03366658  0.36009042  1  0  -0.345309  0  3.236172  0  0  -0.28326  0  3.530624  0  0  -0.302325  0  3.541954  0  0  -0.27006  -0.270508  0  3.522959  0
N  N70  1  0.80765010  0.96633392  0.63990836  1  0  -0.345262  0  3.236218  0  0  -0.283183  0  3.53064  0  0  -0.302266  0  3.541986  0  0  -0.270005  -0.270432  0  3.522989  0
N  N71  1  0.14516763  0.93597526  0.41798067  1  0  -0.255579  0  3.398056  0  0  -0.203737  0  3.642732  0  0  -0.221767  0  3.657423  0  0  -0.286645  -0.191885  0  3.632943  0
N  N72  1  0.85483515  0.06402729  0.58201948  1  0  -0.255541  0  3.398037  0  0  -0.203723  0  3.642739  0  0  -0.221737  0  3.657412  0  0  -0.28669  -0.191867  0  3.632952  0
N  N73  1  0.89345588  0.32340197  0.31103698  1  0  -0.451848  0  3.278148  0  0  -0.36851  0  3.583871  0  0  -0.391592  0  3.591796  0  0  -0.362829  -0.352607  0  3.578126  0
N  N74  1  0.10654209  0.67659752  0.68896387  1  0  -0.451951  0  3.278037  0  0  -0.368604  0  3.583761  0  0  -0.391684  0  3.59168  0  0  -0.362835  -0.352689  0  3.578002  0
N  N75  1  0.66492185  0.39670328  0.38839164  1  0  -0.259329  0  3.152235  0  0  -0.195464  0  3.42892  0  0  -0.211032  0  3.445593  0  0  -0.239653  -0.185105  0  3.418029  0
N  N76  1  0.33507433  0.60329923  0.61160300  1  0  -0.259437  0  3.152224  0  0  -0.195578  0  3.428935  0  0  -0.211144  0  3.445607  0  0  -0.239717  -0.185222  0  3.418053  0
N  N77  1  0.62064626  0.25710779  0.35079183  1  0  -0.275745  0  3.22871  0  0  -0.200513  0  3.515923  0  0  -0.216967  0  3.529216  0  0  -0.262971  -0.189705  0  3.507435  0
N  N78  1  0.37934960  0.74289372  0.64920757  1  0  -0.275757  0  3.228692  0  0  -0.200529  0  3.515902  0  0  -0.216988  0  3.529197  0  0  -0.262969  -0.189721  0  3.507424  0
O  O79  1  0.75285167  0.54620630  0.78743855  1  0  -0.657717  0  2.076587  0  0  -0.583896  0  2.363787  0  0  -0.612097  0  2.349556  0  0  -0.349352  -0.563937  0  2.373085  0
O  O80  1  0.24715903  0.45379120  0.21256626  1  0  -0.657839  0  2.076487  0  0  -0.583968  0  2.363803  0  0  -0.612152  0  2.349546  0  0  -0.349426  -0.564026  0  2.373105  0
O  O81  1  0.42481527  0.01751576  0.61401722  1  0  -0.665205  0  2.04567  0  0  -0.601822  0  2.313777  0  0  -0.626134  0  2.302717  0  0  -0.335771  -0.584294  0  2.320548  0
O  O82  1  0.57518272  0.98248372  0.38598196  1  0  -0.665206  0  2.045651  0  0  -0.601827  0  2.313749  0  0  -0.626142  0  2.302686  0  0  -0.335777  -0.584308  0  2.320512  0
O  O83  1  0.13580567  0.12258527  0.20518028  1  0  -0.639686  0  2.036328  0  0  -0.573338  0  2.317615  0  0  -0.599643  0  2.304481  0  0  -0.336918  -0.554634  0  2.326054  0
O  O84  1  0.86419767  0.87741422  0.79481685  1  0  -0.639666  0  2.036371  0  0  -0.573371  0  2.31771  0  0  -0.599676  0  2.304577  0  0  -0.336941  -0.554659  0  2.326145  0
O  O85  1  0.97769930  0.74436884  0.44447308  1  0  -0.581681  0  1.977549  0  0  -0.532706  0  2.208221  0  0  -0.554403  0  2.201395  0  0  -0.31488  -0.517537  0  2.212307  0
O  O86  1  0.02231014  0.25563372  0.55552595  1  0  -0.581642  0  1.977464  0  0  -0.532681  0  2.208179  0  0  -0.554384  0  2.201356  0  0  -0.314883  -0.517504  0  2.212265  0
O  O87  1  0.29457322  0.33476097  0.43824902  1  0  -0.959821  0  2.039511  0  0  -0.85033  0  2.351832  0  0  -0.88192  0  2.311689  0  0  -0.573904  -0.827988  0  2.379379  0
O  O88  1  0.70542825  0.66524157  0.56174853  1  0  -0.959891  0  2.039487  0  0  -0.850357  0  2.351733  0  0  -0.881938  0  2.311582  0  0  -0.573975  -0.828018  0  2.379286  0
