# generated using pymatgen
data_CoH16C29SN4(O2F3)2
_symmetry_space_group_name_H-M   'P 1'
_cell_length_a   8.24241687
_cell_length_b   13.55927208
_cell_length_c   14.83886628
_cell_angle_alpha   86.16395846
_cell_angle_beta   79.26725365
_cell_angle_gamma   83.89594417
_symmetry_Int_Tables_number   1
_chemical_formula_structural   CoH16C29SN4(O2F3)2
_chemical_formula_sum   'Co2 H32 C58 S2 N8 O8 F12'
_cell_volume   1618.27579045
_cell_formula_units_Z   2
loop_
 _symmetry_equiv_pos_site_id
 _symmetry_equiv_pos_as_xyz
  1  'x, y, z'
loop_
 _atom_site_type_symbol
 _atom_site_label
 _atom_site_symmetry_multiplicity
 _atom_site_fract_x
 _atom_site_fract_y
 _atom_site_fract_z
 _atom_site_occupancy
 _atom_site_hle17_ddec_charge
 _atom_site_hle17_ddec_spin_density
 _atom_site_hle17_ddec_sum_bond_order
 _atom_site_hle17_magmom
 _atom_site_hse06_10hf_ddec_charge
 _atom_site_hse06_10hf_ddec_spin_density
 _atom_site_hse06_10hf_ddec_sum_bond_order
 _atom_site_hse06_10hf_magmom
 _atom_site_hse06_ddec_charge
 _atom_site_hse06_ddec_spin_density
 _atom_site_hse06_ddec_sum_bond_order
 _atom_site_hse06_magmom
 _atom_site_pbe_cm5_charge
 _atom_site_pbe_ddec_charge
 _atom_site_pbe_ddec_spin_density
 _atom_site_pbe_ddec_sum_bond_order
 _atom_site_pbe_magmom
Co  Co0  1  0.91358742  0.41724693  0.91184274  1  0.969981  2.913805  2.059407  2.593  0.935032  2.874786  2.471757  2.65  1.005823  2.899771  2.401614  2.719  0.67987  0.87716  2.861138  2.532293  2.591
Co  Co1  1  0.08640456  0.58275939  0.08815715  1  0.970514  2.914216  2.059203  2.593  0.935118  2.874801  2.471769  2.65  1.005896  2.899774  2.401634  2.719  0.679939  0.877265  2.861203  2.532312  2.591
H  H2  1  0.73314187  0.24787163  0.15276015  1  0.081924  0.000101  0.985526  0.0  0.086559  5.3e-05  1.058335  0.0  0.089153  2.5e-05  1.057063  0.0  0.093479  0.085086  5.9e-05  1.058855  0.0
H  H3  1  0.26685512  0.75212652  0.84723836  1  0.081988  0.000102  0.985438  0.0  0.086614  5.3e-05  1.058256  0.0  0.089205  2.5e-05  1.056992  0.0  0.093495  0.085141  6e-05  1.058773  0.0
H  H4  1  0.60466686  0.17355562  0.30084428  1  0.103716  -3.5e-05  0.96603  0.0  0.110659  3.3e-05  1.029703  0.0  0.113585  2.2e-05  1.028387  0.0  0.096288  0.108919  4.9e-05  1.030331  0.0
H  H5  1  0.39532866  0.82644401  0.69915429  1  0.103694  -3.3e-05  0.96614  0.0  0.11067  3.3e-05  1.029772  0.0  0.113598  2.2e-05  1.028451  0.0  0.096281  0.108926  4.9e-05  1.030395  0.0
H  H6  1  0.74886687  0.52142061  0.27860392  1  0.106132  -1.3e-05  0.954422  0.0  0.115504  -0.000103  1.017078  0.0  0.119082  -0.000123  1.014289  0.0  0.106054  0.112601  -6.1e-05  1.019427  0.0
H  H7  1  0.25113088  0.47858051  0.72139434  1  0.106048  -1.2e-05  0.954564  0.0  0.115411  -0.000103  1.017229  0.0  0.118988  -0.000123  1.014438  0.0  0.106007  0.112506  -6.2e-05  1.019582  0.0
H  H8  1  0.61086769  0.45070701  0.42742144  1  0.10064  -1.3e-05  0.960445  0.0  0.108785  4.9e-05  1.024827  0.0  0.111715  3.2e-05  1.023914  0.0  0.098892  0.106568  7.6e-05  1.025786  0.0
H  H9  1  0.38913376  0.54929411  0.57257643  1  0.100705  -1.3e-05  0.960572  0.0  0.108822  4.9e-05  1.024959  0.0  0.111755  3.2e-05  1.024044  0.0  0.098902  0.106604  7.7e-05  1.025917  0.0
H  H10  1  0.92287378  0.58996909  0.77996690  1  0.087823  0.000244  0.948624  0.001  0.096024  0.000204  1.009201  0.001  0.098824  0.000157  1.007048  0.001  0.119033  0.093515  0.000236  1.011537  0.001
H  H11  1  0.07712780  0.41003129  0.22003167  1  0.087837  0.000242  0.94861  0.001  0.096027  0.000204  1.009198  0.001  0.098828  0.000157  1.007044  0.001  0.119024  0.09352  0.000236  1.011532  0.001
H  H12  1  0.95318552  0.22487386  0.04012689  1  0.077927  0.000368  0.968348  0.001  0.083769  0.000211  1.03768  0.001  0.086765  0.000114  1.034989  0.001  0.112197  0.081284  0.000314  1.039962  0.001
H  H13  1  0.04680988  0.77512652  0.95987098  1  0.077961  0.000369  0.968383  0.001  0.083777  0.000211  1.037743  0.001  0.086776  0.000113  1.035049  0.001  0.112194  0.081326  0.000313  1.03999  0.001
H  H14  1  0.46671967  0.70580383  0.02396864  1  0.129773  0.000112  0.962795  0.0  0.138186  0.000236  1.025792  0.0  0.143138  0.000124  1.022213  0.0  0.108078  0.134357  0.000348  1.028588  0.0
H  H15  1  0.53328358  0.29418615  0.97603444  1  0.129845  0.000114  0.962695  0.0  0.138247  0.000236  1.025703  0.0  0.143197  0.000124  1.022125  0.0  0.108091  0.13442  0.000347  1.028498  0.0
H  H16  1  0.61356186  0.53929889  0.02921494  1  0.084819  0.000291  0.940516  0.001  0.095021  0.000222  0.999557  0.001  0.097634  0.000116  0.996978  0.001  0.120944  0.092506  0.000324  1.002431  0.001
H  H17  1  0.38643526  0.46069852  0.97078630  1  0.084859  0.000291  0.940459  0.001  0.09506  0.000222  0.999494  0.001  0.097673  0.000115  0.996915  0.001  0.120947  0.092545  0.000324  1.002368  0.001
H  H18  1  0.46896189  0.35278129  0.77700962  1  0.099949  0.000125  0.951708  0.0  0.107424  0.00012  1.017344  0.0  0.110559  6.7e-05  1.015982  0.0  0.104568  0.105194  0.000177  1.018196  0.0
H  H19  1  0.53103551  0.64722206  0.22298989  1  0.099944  0.000125  0.951652  0.0  0.107443  0.00012  1.01728  0.0  0.110594  6.7e-05  1.0159  0.0  0.104556  0.105211  0.000174  1.018138  0.0
H  H20  1  0.17366090  0.31685932  0.78003047  1  0.089154  0.000173  0.961499  0.001  0.097223  -3e-06  1.026483  0.001  0.100874  -8.1e-05  1.022279  0.001  0.119966  0.093825  0.000135  1.030336  0.001
H  H21  1  0.82634067  0.68314106  0.21996878  1  0.089195  0.000174  0.961497  0.001  0.097249  -4e-06  1.026486  0.001  0.1009  -8.1e-05  1.022284  0.001  0.119992  0.093852  0.000135  1.030335  0.001
H  H22  1  0.79115471  0.76364931  0.76415753  1  0.122894  0.000124  0.937283  0.0  0.129477  0.000289  0.998142  0.0  0.13377  0.000207  0.995468  0.0  0.112056  0.126436  0.000374  1.000288  0.0
H  H23  1  0.20884499  0.23634736  0.23584484  1  0.122958  0.000121  0.937293  0.0  0.129562  0.000289  0.998124  0.0  0.133855  0.000207  0.99545  0.0  0.112088  0.126521  0.000373  1.000273  0.0
H  H24  1  0.13319151  0.06459603  0.03416816  1  0.108184  0.000181  0.940678  0.0  0.11979  0.000343  0.997242  0.0  0.123072  0.000251  0.996418  0.0  0.105226  0.117555  0.000421  0.99798  0.0
H  H25  1  0.86680613  0.93540584  0.96583073  1  0.108129  0.000183  0.940696  0.0  0.119739  0.000343  0.997257  0.0  0.12302  0.000251  0.996435  0.0  0.1052  0.117505  0.000421  0.99799  0.0
H  H26  1  0.34491702  0.31119570  0.64646766  1  0.09042  1.5e-05  0.981216  0.0  0.099446  3.9e-05  1.046863  0.0  0.10242  2.5e-05  1.044815  0.0  0.095753  0.09744  5.6e-05  1.048238  0.0
H  H27  1  0.65507879  0.68880987  0.35353255  1  0.090393  1.7e-05  0.981176  0.0  0.099449  3.9e-05  1.046802  0.0  0.102424  2.5e-05  1.044749  0.0  0.095755  0.097443  5.5e-05  1.048185  0.0
H  H28  1  0.94863215  0.34157764  0.60456222  1  0.10302  0.000194  0.959018  0.0  0.10712  0.000181  1.027716  0.0  0.111511  0.000101  1.023714  0.0  0.097574  0.104018  0.000278  1.030375  0.0
H  H29  1  0.05136966  0.65842125  0.39543440  1  0.103028  0.000193  0.959012  0.0  0.107131  0.000181  1.027713  0.0  0.111521  0.000101  1.023711  0.0  0.097606  0.104015  0.000276  1.030393  0.0
H  H30  1  0.82874381  0.29516432  0.47399950  1  0.101932  -4.1e-05  0.943446  0.0  0.112249  9e-06  1.00019  0.0  0.115234  7e-06  0.999054  0.0  0.103104  0.110352  8e-06  1.000863  0.0
H  H31  1  0.17125342  0.70483235  0.52599908  1  0.101901  -3.8e-05  0.943461  0.0  0.112224  9e-06  1.000184  0.0  0.115211  6e-06  0.999044  0.0  0.103104  0.110328  7e-06  1.000856  0.0
H  H32  1  0.36795458  0.16072883  0.76170805  1  0.124476  0.000108  0.951037  0.0  0.129779  0.000249  1.015925  0.0  0.133953  0.000173  1.013655  0.0  0.112324  0.126528  0.000329  1.018166  0.0
H  H33  1  0.63203959  0.83927154  0.23828860  1  0.124486  0.000108  0.951106  0.0  0.129837  0.000249  1.015962  0.0  0.13401  0.000173  1.013692  0.0  0.11234  0.126585  0.000329  1.018199  0.0
C  C34  1  0.82239299  0.43470742  0.11476787  1  0.649518  -0.014114  3.877693  -0.009  0.605562  0.001023  4.181862  0.004  0.646128  0.001533  4.172181  0.005  0.21978  0.574948  -0.0021  4.185937  0.001
C  C35  1  0.17762658  0.56528851  0.88522642  1  0.649332  -0.014133  3.877826  -0.009  0.605452  0.001018  4.181919  0.004  0.646032  0.001532  4.172239  0.005  0.219644  0.574834  -0.002112  4.185989  0.001
C  C36  1  0.74742755  0.38987170  0.20556368  1  -0.068513  0.007191  3.76935  0.011  -0.047131  0.003568  3.998405  0.006  -0.055117  0.002402  4.019501  0.004  -0.020636  -0.042561  0.004732  3.985994  0.008
C  C37  1  0.25256996  0.61013091  0.79443451  1  -0.068373  0.00717  3.769198  0.011  -0.047026  0.003567  3.998275  0.006  -0.055045  0.002403  4.019409  0.004  -0.020563  -0.042459  0.004726  3.985884  0.007
C  C38  1  0.70743384  0.29159143  0.21357501  1  -0.057995  -0.006173  3.743415  -0.004  -0.081006  -0.000705  3.99522  0.0  -0.081272  -0.00014  4.017275  0.0  -0.089301  -0.080486  -0.001804  3.979615  -0.001
C  C39  1  0.29256674  0.70840747  0.78642106  1  -0.058128  -0.006139  3.743633  -0.004  -0.081194  -0.000707  3.995528  0.0  -0.081448  -0.000142  4.017586  0.0  -0.089425  -0.080677  -0.001809  3.979929  -0.001
C  C40  1  0.63481716  0.24993126  0.29768156  1  -0.109043  0.002154  3.72613  0.003  -0.137281  0.000294  3.985135  0.001  -0.140816  9.9e-05  4.006768  0.0  -0.096656  -0.134277  0.000452  3.969457  0.001
C  C41  1  0.36517948  0.75006912  0.70232023  1  -0.109115  0.002132  3.726448  0.003  -0.137265  0.000295  3.985296  0.001  -0.140799  9.8e-05  4.006924  0.0  -0.096601  -0.134251  0.000455  3.9696  0.001
C  C42  1  0.71425467  0.44581325  0.28399118  1  -0.048983  -0.005666  3.711837  -0.004  -0.07138  -0.000692  3.956467  0.0  -0.069894  -0.000143  3.974588  0.0  -0.079301  -0.07313  -0.001703  3.945941  -0.001
C  C43  1  0.28574427  0.55418045  0.71600673  1  -0.048873  -0.005631  3.711557  -0.004  -0.071264  -0.000695  3.956191  0.0  -0.069765  -0.000145  3.974317  0.0  -0.079232  -0.073026  -0.001705  3.945689  -0.001
C  C44  1  0.63830786  0.40517454  0.36774338  1  -0.106403  0.00219  3.724717  0.003  -0.128967  0.000381  3.97623  0.001  -0.131994  0.000145  3.996493  0.0  -0.09004  -0.127143  0.000579  3.963455  0.001
C  C45  1  0.36169679  0.59482213  0.63225376  1  -0.106444  0.002169  3.724778  0.003  -0.129029  0.000381  3.976295  0.001  -0.132057  0.000145  3.996551  0.0  -0.09008  -0.127204  0.000576  3.963517  0.001
C  C46  1  0.62043007  0.75087568  0.89356454  1  0.068896  -0.021281  3.826447  -0.014  0.080223  -0.009546  4.066166  -0.006  0.081966  -0.006999  4.090407  -0.004  0.003753  0.079496  -0.013072  4.050053  -0.008
C  C47  1  0.37957346  0.24912024  0.10643815  1  0.068849  -0.021264  3.826383  -0.014  0.080087  -0.009543  4.066261  -0.006  0.081826  -0.006998  4.09051  -0.004  0.003759  0.079368  -0.013065  4.050149  -0.008
C  C48  1  0.82402760  0.62003896  0.83316512  1  0.121007  -0.02132  3.701178  -0.014  0.098539  -0.008001  3.94881  -0.005  0.106071  -0.006813  3.964358  -0.004  0.043534  0.092447  -0.009276  3.940401  -0.005
C  C49  1  0.17597150  0.37996142  0.16683439  1  0.120962  -0.021299  3.701083  -0.014  0.098513  -0.008  3.948725  -0.005  0.106044  -0.006814  3.964273  -0.004  0.043536  0.092421  -0.00927  3.940322  -0.005
C  C50  1  0.54241294  0.85145436  0.88342543  1  0.099855  -0.003635  3.7425  -0.001  0.093129  -0.002007  4.027089  -0.001  0.100498  -0.000232  4.043066  0.0  0.125269  0.086696  -0.006561  4.017868  -0.003
C  C51  1  0.45758876  0.14854528  0.11657520  1  0.099955  -0.003647  3.742338  -0.001  0.093232  -0.002009  4.026978  -0.001  0.1006  -0.000233  4.042957  0.0  0.12527  0.086789  -0.006562  4.017768  -0.003
C  C52  1  0.71605273  0.34953028  0.69902083  1  -0.04119  0.002338  3.759148  0.003  -0.018689  0.001074  3.984198  0.001  -0.02403  0.000637  4.004212  0.001  -0.014341  -0.016239  0.001612  3.971731  0.002
C  C53  1  0.28395774  0.65046861  0.30098568  1  -0.041209  0.002328  3.759291  0.003  -0.018723  0.001075  3.98444  0.001  -0.024085  0.000638  4.004486  0.001  -0.014245  -0.016269  0.001613  3.971998  0.002
C  C54  1  0.78876890  0.37375792  0.77839088  1  0.616326  -0.014382  3.911513  -0.012  0.574576  -0.006285  4.210214  -0.005  0.6107  -0.005209  4.207214  -0.004  0.195853  0.549389  -0.006989  4.207746  -0.006
C  C55  1  0.21125456  0.62624469  0.22161675  1  0.61656  -0.014394  3.911107  -0.012  0.574819  -0.006291  4.209843  -0.005  0.610952  -0.005208  4.206837  -0.004  0.195988  0.549631  -0.007003  4.20739  -0.006
C  C56  1  0.04563133  0.20697142  0.97941607  1  0.1258  -0.020343  3.711521  -0.014  0.09784  -0.006909  3.970436  -0.004  0.105793  -0.005467  3.986195  -0.003  0.041814  0.09224  -0.008233  3.960626  -0.005
C  C57  1  0.95436372  0.79303119  0.02058036  1  0.125709  -0.020345  3.711517  -0.014  0.097771  -0.006913  3.97044  -0.004  0.105724  -0.005472  3.9862  -0.003  0.041807  0.092155  -0.008264  3.960613  -0.005
C  C58  1  0.37970455  0.00904109  0.88446487  1  0.081425  -0.002993  3.772193  -0.001  0.073149  -0.001938  4.057913  -0.001  0.079157  -0.000519  4.07389  0.0  0.116836  0.068447  -0.005934  4.048246  -0.003
C  C59  1  0.62029431  0.99096077  0.11553390  1  0.081403  -0.002991  3.772416  -0.001  0.073204  -0.001938  4.058038  -0.001  0.07921  -0.000517  4.074014  0.0  0.116851  0.068506  -0.005933  4.048371  -0.003
C  C60  1  0.59846644  0.30647617  0.37592213  1  0.071734  -0.006593  3.720869  -0.005  0.08692  -0.001318  3.959762  -0.001  0.087992  -0.0004  3.983775  0.0  -0.016003  0.085778  -0.003061  3.943757  -0.002
C  C61  1  0.40153203  0.69352049  0.62407767  1  0.071825  -0.006554  3.721005  -0.004  0.087031  -0.001321  3.959787  -0.001  0.08811  -0.0004  3.983787  0.0  -0.015962  0.085895  -0.00306  3.94375  -0.002
C  C62  1  0.56923507  0.68571090  0.96835729  1  -0.144892  0.007722  3.663048  0.011  -0.167053  0.00219  3.912156  0.004  -0.173144  0.002433  3.929687  0.004  -0.082015  -0.164079  0.001239  3.902415  0.003
C  C63  1  0.43076722  0.31428502  0.03164620  1  -0.145102  0.00771  3.662633  0.011  -0.16723  0.00219  3.911807  0.004  -0.173322  0.002433  3.929344  0.004  -0.082086  -0.164249  0.001237  3.902062  0.003
C  C64  1  0.26615566  0.09910681  0.89615402  1  0.076577  -0.022401  3.821275  -0.015  0.089162  -0.009865  4.056924  -0.006  0.093189  -0.006269  4.078907  -0.004  0.00326  0.086188  -0.01495  4.042601  -0.009
C  C65  1  0.73383667  0.90089728  0.10384529  1  0.076603  -0.022406  3.821488  -0.015  0.089149  -0.009872  4.057191  -0.006  0.093176  -0.006273  4.079175  -0.004  0.003252  0.086174  -0.014958  4.042871  -0.009
C  C66  1  0.57736336  0.30085086  0.55018334  1  0.066179  -0.003214  3.725095  -0.002  0.081793  -0.000994  3.964103  -0.001  0.081824  -0.000565  3.98981  0.0  -0.017081  0.082275  -0.001437  3.945941  -0.001
C  C67  1  0.42263821  0.69914952  0.44981658  1  0.066146  -0.003191  3.725106  -0.002  0.081756  -0.000998  3.96406  -0.001  0.081774  -0.000571  3.989805  0.0  -0.017059  0.082251  -0.00144  3.945856  -0.001
C  C68  1  0.65136006  0.59094490  0.97175605  1  0.15579  -0.02152  3.665492  -0.015  0.128877  -0.008234  3.922447  -0.005  0.138479  -0.007469  3.935022  -0.005  0.053749  0.121239  -0.008833  3.916379  -0.005
C  C69  1  0.34863299  0.40905473  0.02824615  1  0.155854  -0.021508  3.665139  -0.015  0.128976  -0.008234  3.922064  -0.005  0.138577  -0.007469  3.934639  -0.005  0.053826  0.121336  -0.008823  3.915994  -0.005
C  C70  1  0.54620419  0.34078770  0.70991861  1  -0.058459  -0.002319  3.736116  -0.001  -0.081769  -0.000321  3.987135  0.0  -0.082596  -0.000208  4.008664  0.0  -0.080344  -0.080535  -0.000356  3.972101  0.0
C  C71  1  0.45380209  0.65921417  0.29008344  1  -0.058379  -0.002299  3.736141  -0.001  -0.081759  -0.000323  3.987264  0.0  -0.082593  -0.00021  4.008785  0.0  -0.080337  -0.080528  -0.000352  3.972263  0.0
C  C72  1  0.50765188  0.26692437  0.46927126  1  -0.269809  -9.7e-05  3.6306  0.001  -0.276294  -6.6e-05  3.856689  0.0  -0.28391  -2.3e-05  3.869408  0.0  -0.010392  -0.270982  -0.000154  3.848278  0.0
C  C73  1  0.49234723  0.73307601  0.53073230  1  -0.26991  -9.9e-05  3.630768  0.001  -0.276399  -6.6e-05  3.856829  0.0  -0.284006  -2.3e-05  3.869526  0.0  -0.010403  -0.271075  -0.000155  3.848376  0.0
C  C74  1  0.17094484  0.25874021  0.83431559  1  0.13068  -0.021834  3.687365  -0.015  0.105292  -0.008728  3.934867  -0.005  0.114351  -0.006983  3.947841  -0.004  0.046688  0.097615  -0.010517  3.929218  -0.006
C  C75  1  0.82904981  0.74125720  0.16568389  1  0.130658  -0.021842  3.687252  -0.015  0.105343  -0.008735  3.934697  -0.005  0.114406  -0.00699  3.947666  -0.004  0.046729  0.097669  -0.010545  3.929043  -0.006
C  C76  1  0.75050806  0.71596788  0.82426781  1  -0.132606  0.008167  3.682183  0.011  -0.15207  0.00252  3.92762  0.004  -0.158701  0.002648  3.947408  0.004  -0.077302  -0.148353  0.001767  3.915542  0.003
C  C77  1  0.24949288  0.28402878  0.17573645  1  -0.13269  0.008164  3.682058  0.011  -0.152139  0.00252  3.92752  0.004  -0.158765  0.002649  3.947301  0.004  -0.077357  -0.148426  0.001765  3.915449  0.003
C  C78  1  0.14664800  0.11777872  0.97535304  1  -0.167998  0.007851  3.728159  0.011  -0.190987  0.002272  3.98243  0.004  -0.199164  0.00229  4.003592  0.003  -0.091984  -0.185705  0.001469  3.968558  0.004
C  C79  1  0.85334805  0.88222537  0.02464656  1  -0.167954  0.007848  3.728037  0.011  -0.190924  0.002273  3.982306  0.004  -0.199101  0.002292  4.003469  0.003  -0.09198  -0.185651  0.001482  3.968444  0.004
C  C80  1  0.47749827  0.31749050  0.63615461  1  -0.126016  0.000965  3.758125  0.001  -0.154182  0.000225  4.019919  0.0  -0.15811  0.000151  4.042628  0.0  -0.10201  -0.151045  0.000255  4.003447  0.001
C  C81  1  0.52250207  0.68250988  0.36384545  1  -0.125888  0.000952  3.75816  0.001  -0.154092  0.000226  4.020024  0.0  -0.158019  0.000153  4.042739  0.0  -0.101972  -0.150956  0.000254  4.003561  0.001
C  C82  1  0.81644009  0.33429268  0.61310747  1  -0.051859  -0.002257  3.713324  -0.001  -0.075995  -0.000288  3.962769  0.0  -0.075674  -0.000195  3.981367  0.0  -0.080424  -0.075816  -0.000278  3.950114  0.0
C  C83  1  0.18355555  0.66570622  0.38689383  1  -0.051807  -0.002235  3.713419  -0.001  -0.075988  -0.00029  3.962934  0.0  -0.075656  -0.000198  3.981526  0.0  -0.08046  -0.075809  -0.000275  3.950318  0.0
C  C84  1  0.74825426  0.30873131  0.53986974  1  -0.09829  0.00091  3.72351  0.001  -0.123462  0.000188  3.979149  0.0  -0.126538  0.000133  4.000365  0.0  -0.089611  -0.121133  0.000177  3.964013  0.0
C  C85  1  0.25174521  0.69126684  0.46012919  1  -0.09837  0.000894  3.723658  0.001  -0.123433  0.000188  3.979157  0.0  -0.126501  0.000136  4.00036  0.0  -0.089622  -0.121099  0.000177  3.964011  0.0
C  C86  1  0.27691903  0.17239649  0.82423907  1  -0.131733  0.007453  3.66892  0.011  -0.148023  0.002033  3.90638  0.003  -0.15458  0.002147  3.924359  0.003  -0.07393  -0.144904  0.000995  3.897048  0.003
C  C87  1  0.72307331  0.82760760  0.17576158  1  -0.131807  0.007452  3.668942  0.011  -0.148183  0.002034  3.906432  0.003  -0.154738  0.002149  3.924404  0.003  -0.074017  -0.145069  0.001013  3.897091  0.003
C  C88  1  0.52341218  0.15080804  0.47821207  1  0.773274  -0.000132  3.607871  0.0  0.697609  -1.1e-05  3.957636  0.0  0.728464  -8e-06  3.932931  0.0  0.300114  0.675666  -1.2e-05  3.975446  0.0
C  C89  1  0.47658828  0.84919159  0.52178869  1  0.772886  -0.000129  3.608656  0.0  0.697699  -1.2e-05  3.957538  0.0  0.728596  -8e-06  3.932782  0.0  0.300144  0.6758  -1e-05  3.975294  0.0
C  C90  1  0.32083635  0.30518638  0.47363036  1  0.771326  -0.000292  3.604609  0.0  0.699974  -2.6e-05  3.946328  0.0  0.730727  -5e-06  3.921656  0.0  0.304041  0.678134  -0.0001  3.96404  0.0
C  C91  1  0.67916646  0.69481400  0.52637079  1  0.771494  -0.000289  3.604346  0.0  0.700072  -2.6e-05  3.94619  0.0  0.730833  -5e-06  3.921501  0.0  0.304064  0.678236  -0.000101  3.963884  0.0
S  S92  1  0.36987249  0.90327331  0.95759550  1  0.086412  -0.006169  2.419384  -0.004  0.092742  -0.003548  2.7185  -0.002  0.094596  -0.001429  2.719594  -0.001  0.122726  0.088518  -0.008355  2.71972  -0.005
S  S93  1  0.63012427  0.09672633  0.04240699  1  0.086423  -0.006174  2.419596  -0.004  0.092746  -0.003551  2.718699  -0.002  0.094601  -0.001431  2.719795  -0.001  0.122725  0.08852  -0.008367  2.719926  -0.005
N  N94  1  0.50388893  0.00063184  0.81356306  1  -0.17372  -0.006723  3.013062  -0.005  -0.157247  -0.003085  3.293956  -0.002  -0.161296  -0.001632  3.303903  -0.001  -0.196871  -0.15577  -0.005499  3.289298  -0.004
N  N95  1  0.49611141  0.99936854  0.18643901  1  -0.173758  -0.006729  3.013068  -0.005  -0.157304  -0.003089  3.293941  -0.002  -0.161353  -0.001634  3.303887  -0.001  -0.196875  -0.155826  -0.005496  3.289279  -0.004
N  N96  1  0.59472886  0.91260985  0.81307405  1  -0.183215  -0.005847  3.012806  -0.004  -0.165965  -0.002912  3.296002  -0.002  -0.171383  -0.002078  3.305977  -0.001  -0.197814  -0.163124  -0.00433  3.291347  -0.003
N  N97  1  0.40527431  0.08738830  0.18692787  1  -0.183227  -0.00584  3.012768  -0.004  -0.165951  -0.00291  3.29596  -0.002  -0.171368  -0.002078  3.305934  -0.001  -0.197797  -0.163106  -0.004325  3.291307  -0.003
N  N98  1  0.77832878  0.55789154  0.90644070  1  -0.309234  0.036012  3.296966  0.07  -0.263673  0.023816  3.575041  0.044  -0.282333  0.020637  3.585067  0.038  -0.322826  -0.251594  0.026325  3.570048  0.047
N  N99  1  0.22166416  0.44210884  0.09356147  1  -0.309235  0.036  3.296923  0.07  -0.263656  0.023813  3.574983  0.044  -0.28231  0.020635  3.585007  0.038  -0.32283  -0.251578  0.026325  3.569991  0.047
N  N100  1  0.05590616  0.27705991  0.91029894  1  -0.289192  0.034063  3.260969  0.065  -0.240945  0.023362  3.533885  0.042  -0.258167  0.020361  3.542662  0.036  -0.317683  -0.230002  0.025677  3.529684  0.045
N  N101  1  0.94409024  0.72294195  0.08969874  1  -0.289153  0.034067  3.260984  0.065  -0.240894  0.023364  3.533848  0.042  -0.258112  0.020363  3.542624  0.036  -0.317673  -0.229954  0.025683  3.529663  0.045
O  O102  1  0.82532459  0.38553574  0.04406564  1  -0.602644  0.049498  2.136201  0.083  -0.571132  0.040732  2.425861  0.064  -0.608422  0.031162  2.413598  0.049  -0.303777  -0.538977  0.051735  2.431333  0.082
O  O103  1  0.17469758  0.61445944  0.95593787  1  -0.602515  0.049515  2.135889  0.083  -0.571085  0.040737  2.425614  0.064  -0.608378  0.031166  2.413355  0.049  -0.303688  -0.538929  0.051744  2.431073  0.082
O  O104  1  0.93155313  0.40661683  0.76438311  1  -0.611371  0.043295  1.987526  0.076  -0.582372  0.032632  2.237953  0.056  -0.620953  0.022865  2.232954  0.04  -0.312543  -0.548872  0.043949  2.236956  0.074
O  O105  1  0.06846311  0.59339990  0.23559341  1  -0.611467  0.043324  1.987471  0.076  -0.58254  0.032648  2.238037  0.056  -0.621128  0.022876  2.23303  0.04  -0.312715  -0.549024  0.043972  2.237029  0.074
O  O106  1  0.87418361  0.52038410  0.11238625  1  -0.632698  0.039752  2.174239  0.068  -0.611849  0.029434  2.480138  0.045  -0.65045  0.019424  2.468009  0.029  -0.313592  -0.575752  0.043713  2.484045  0.069
O  O107  1  0.12579825  0.47962370  0.88761931  1  -0.632662  0.039752  2.174636  0.068  -0.611853  0.029432  2.48046  0.045  -0.650455  0.019423  2.468326  0.029  -0.313559  -0.57573  0.043709  2.48432  0.069
O  O108  1  0.70929799  0.36195200  0.86041186  1  -0.605669  0.043824  1.958919  0.077  -0.58064  0.032843  2.209467  0.057  -0.619557  0.022735  2.20503  0.04  -0.312358  -0.545789  0.044666  2.207105  0.075
O  O109  1  0.29070725  0.63804095  0.13958882  1  -0.605925  0.043832  1.95879  0.077  -0.580841  0.032848  2.209345  0.057  -0.619762  0.022736  2.20491  0.04  -0.312444  -0.545983  0.044681  2.206985  0.075
F  F110  1  0.43718905  0.10951344  0.42281687  1  -0.243223  -1.3e-05  1.154431  0.0  -0.213066  4e-06  1.325548  0.0  -0.22232  3e-06  1.30772  0.0  -0.09824  -0.206172  5e-06  1.337938  0.0
F  F111  1  0.56281017  0.89048619  0.57718671  1  -0.24333  -1.2e-05  1.154604  0.0  -0.21316  5e-06  1.325524  0.0  -0.222403  3e-06  1.307676  0.0  -0.098276  -0.206261  0.0  1.337898  0.0
F  F112  1  0.21651905  0.25792988  0.54133222  1  -0.245379  -5.6e-05  1.157504  0.0  -0.209587  -2.5e-05  1.325654  0.0  -0.219747  -1.4e-05  1.30882  0.0  -0.089844  -0.202322  -5.1e-05  1.337355  0.0
F  F113  1  0.78348488  0.74207124  0.45866944  1  -0.245329  -5.6e-05  1.157405  0.0  -0.209575  -2.5e-05  1.325591  0.0  -0.219737  -1.4e-05  1.308755  0.0  -0.089847  -0.202316  -4.8e-05  1.337288  0.0
F  F114  1  0.29434815  0.40413277  0.48911145  1  -0.239887  6e-06  1.140311  0.0  -0.203182  3e-06  1.304987  0.0  -0.213492  2e-06  1.290363  0.0  -0.091496  -0.19603  4e-06  1.315326  0.0
F  F115  1  0.70565096  0.59586761  0.51088873  1  -0.239872  6e-06  1.14028  0.0  -0.203174  3e-06  1.304974  0.0  -0.213485  2e-06  1.290346  0.0  -0.091474  -0.196026  4e-06  1.315308  0.0
F  F116  1  0.26853273  0.29310845  0.39376228  1  -0.24426  -1.5e-05  1.157272  0.0  -0.210116  -6e-06  1.322304  0.0  -0.220199  9e-06  1.306661  0.0  -0.097052  -0.202748  -4.5e-05  1.333279  0.0
F  F117  1  0.73146538  0.70689044  0.60624079  1  -0.244307  -1.5e-05  1.15719  0.0  -0.2102  -6e-06  1.322261  0.0  -0.220284  9e-06  1.306614  0.0  -0.097092  -0.202837  -4.8e-05  1.333235  0.0
F  F118  1  0.46662445  0.11685189  0.56545722  1  -0.241135  -2e-06  1.158105  0.0  -0.210171  -4e-06  1.327563  0.0  -0.219859  -1e-06  1.310954  0.0  -0.100467  -0.203052  -1.3e-05  1.339116  0.0
F  F119  1  0.53337689  0.88314998  0.43454332  1  -0.241194  -2e-06  1.15827  0.0  -0.210189  -4e-06  1.327506  0.0  -0.219866  -1e-06  1.310879  0.0  -0.100462  -0.203064  -1e-05  1.339044  0.0
F  F120  1  0.68520894  0.11399342  0.45614245  1  -0.242289  7e-06  1.128396  0.0  -0.203209  7e-06  1.283055  0.0  -0.213339  4e-06  1.268265  0.0  -0.096933  -0.195856  4e-06  1.293358  0.0
F  F121  1  0.31478929  0.88600473  0.54385863  1  -0.241985  6e-06  1.128495  0.0  -0.203148  7e-06  1.283002  0.0  -0.213363  4e-06  1.268246  0.0  -0.09694  -0.195892  -0.0  1.293343  0.0
