# generated using pymatgen
data_Cd5H58C74(N2O11)2
_symmetry_space_group_name_H-M   'P 1'
_cell_length_a   9.91536649
_cell_length_b   15.01833100
_cell_length_c   24.92299768
_cell_angle_alpha   90.00020905
_cell_angle_beta   96.30502638
_cell_angle_gamma   90.00014306
_symmetry_Int_Tables_number   1
_chemical_formula_structural   Cd5H58C74(N2O11)2
_chemical_formula_sum   'Cd10 H116 C148 N8 O44'
_cell_volume   3688.89112019
_cell_formula_units_Z   2
loop_
 _symmetry_equiv_pos_site_id
 _symmetry_equiv_pos_as_xyz
  1  'x, y, z'
loop_
 _atom_site_type_symbol
 _atom_site_label
 _atom_site_symmetry_multiplicity
 _atom_site_fract_x
 _atom_site_fract_y
 _atom_site_fract_z
 _atom_site_occupancy
 _atom_site_pbe_bader_charge
 _atom_site_pbe_bader_spin_density
 _atom_site_pbe_cm5_charge
 _atom_site_pbe_ddec_charge
 _atom_site_pbe_ddec_spin_density
 _atom_site_pbe_ddec_sum_bond_order
 _atom_site_pbe_magmom
Cd  Cd0  1  0.16455656  0.59675659  0.53574853  1  1.345198  0  0.780887  1.042992  0  2.156753  0
Cd  Cd1  1  0.24718711  0.84415844  0.98619571  1  1.296752  0  0.766864  0.984182  0  2.086426  0
Cd  Cd2  1  0.33544128  0.09674383  0.96424989  1  1.345286  0  0.780875  1.042887  0  2.156718  0
Cd  Cd3  1  0.25279767  0.34416994  0.51380948  1  1.296798  0  0.76688  0.984227  0  2.086303  0
Cd  Cd4  1  0.83544368  0.40326405  0.46425131  1  1.345313  0  0.780903  1.042978  0  2.156737  0
Cd  Cd5  1  0.75281413  0.15584289  0.01380216  1  1.2966  0  0.766828  0.984134  0  2.086354  0
Cd  Cd6  1  0.66454375  0.90325416  0.03575090  1  1.345286  0  0.780881  1.042906  0  2.156703  0
Cd  Cd7  1  0.74719755  0.65584537  0.48619616  1  1.296687  0  0.766858  0.984136  0  2.086194  0
Cd  Cd8  1  0.99998705  0.99999201  0.99999927  1  1.318612  0  0.738642  1.040921  0  2.186708  0
Cd  Cd9  1  0.49999757  0.50000166  0.49999820  1  1.3185  0  0.738637  1.040868  0  2.18687  0
H  H10  1  0.25667860  0.62379586  0.40159531  1  0.653205  0  0.301302  0.35487  0  0.978523  0
H  H11  1  0.25640241  0.78736637  0.11529410  1  0.624042  0  0.298116  0.343785  0  0.995132  0
H  H12  1  0.84010162  0.53543614  0.34606622  1  0.054487  0  0.099021  0.100921  0  1.030241  0
H  H13  1  0.70187280  0.52748946  0.25766959  1  0.053202  0  0.092047  0.090551  0  1.028663  0
H  H14  1  0.67468410  0.55524586  0.15892946  1  0.056459  0  0.09208  0.087212  0  1.041095  0
H  H15  1  0.86467160  0.62501661  0.11535089  1  0.038577  0  0.099092  0.098338  0  1.007244  0
H  H16  1  0.07796072  0.66509715  0.16888864  1  0.087216  0  0.098415  0.106076  0  1.048844  0
H  H17  1  0.33752288  0.69391320  0.28741116  1  0.023493  0  0.096372  0.097787  0  1.041697  0
H  H18  1  0.28060148  0.66057634  0.22064930  1  0.091395  0  0.098911  0.107364  0  1.032028  0
H  H19  1  0.08351901  0.02412053  0.18745956  1  0.096935  0  0.103761  0.110559  0  1.018362  0
H  H20  1  0.05352065  0.06904724  0.28132604  1  0.058469  0  0.099933  0.098084  0  1.017457  0
H  H21  1  0.08847574  0.03987723  0.37990937  1  0.058294  0  0.099484  0.100053  0  1.020866  0
H  H22  1  0.18538133  0.89378722  0.41358430  1  0.027967  0  0.100208  0.097952  0  0.992575  0
H  H23  1  0.24287531  0.77868373  0.35037123  1  0.116437  0  0.098848  0.108079  0  1.071349  0
H  H24  1  0.97494580  0.63284547  0.62982413  1  0.151396  0  0.116992  0.089682  0  1.01329  0
H  H25  1  0.98564790  0.67684934  0.72618210  1  0.108776  0  0.109403  0.118276  0  1.019966  0
H  H26  1  0.42330201  0.68683135  0.72929724  1  0.119419  0  0.107336  0.112246  0  1.043592  0
H  H27  1  0.39289573  0.64384821  0.63243634  1  0.126873  0  0.115081  0.086503  0  1.017412  0
H  H28  1  0.02616254  0.78903830  0.78353671  1  0.088926  0  0.108088  0.111366  0  1.040715  0
H  H29  1  0.04465423  0.83933116  0.87909327  1  0.123314  0  0.120736  0.099066  0  1.005917  0
H  H30  1  0.42161232  0.71894470  0.91214433  1  0.112298  0  0.119568  0.089569  0  0.985525  0
H  H31  1  0.41383502  0.65818132  0.81936308  1  0.099639  0  0.107984  0.114397  0  1.038593  0
H  H32  1  0.90103064  0.63629983  0.00328453  1  0.036019  0  0.094843  0.146711  0  1.000618  0
H  H33  1  0.02767909  0.67521731  0.96240979  1  0.028884  0  0.096133  0.152645  0  0.99748  0
H  H34  1  0.06537169  0.66883813  0.03325695  1  0.08987  0  0.104962  0.17137  0  0.981143  0
H  H35  1  0.04389117  0.89664205  0.54745669  1  0.06419  0  0.098765  0.15415  0  0.985725  0
H  H36  1  0.16100960  0.80402401  0.55011826  1  0.117268  0  0.09485  0.156523  0  1.043196  0
H  H37  1  0.05797364  0.82213263  0.60307501  1  0.058467  0  0.101325  0.157472  0  0.9983  0
H  H38  1  0.85829707  0.02102061  0.07923002  1  0.593425  0  0.285952  0.366839  0  0.955795  0
H  H39  1  0.24331546  0.12379723  0.09840380  1  0.6532  0  0.301323  0.354874  0  0.978529  0
H  H40  1  0.24361772  0.28737559  0.38470606  1  0.623996  0  0.298171  0.34393  0  0.995042  0
H  H41  1  0.65990036  0.03543641  0.15392742  1  0.054442  0  0.099025  0.100991  0  1.030036  0
H  H42  1  0.79811904  0.02748719  0.24232923  1  0.05326  0  0.092011  0.090506  0  1.028594  0
H  H43  1  0.82530076  0.05524627  0.34106832  1  0.056212  0  0.092033  0.08716  0  1.041217  0
H  H44  1  0.63531559  0.12501166  0.38464633  1  0.038072  0  0.099036  0.098283  0  1.007228  0
H  H45  1  0.42202538  0.16508967  0.33110862  1  0.087173  0  0.09853  0.106275  0  1.048712  0
H  H46  1  0.16248368  0.19392583  0.21259023  1  0.023398  0  0.096322  0.097704  0  1.041585  0
H  H47  1  0.21939576  0.16058817  0.27934722  1  0.090718  0  0.098911  0.107243  0  1.032284  0
H  H48  1  0.41650303  0.52413083  0.31254093  1  0.09739  0  0.103772  0.110603  0  1.01834  0
H  H49  1  0.44649651  0.56906165  0.21867434  1  0.058642  0  0.100022  0.098201  0  1.017179  0
H  H50  1  0.41154026  0.53988362  0.12008890  1  0.058151  0  0.099503  0.100146  0  1.020696  0
H  H51  1  0.31463519  0.39378997  0.08641351  1  0.027788  0  0.100211  0.097856  0  0.992589  0
H  H52  1  0.25713566  0.27869145  0.14962892  1  0.116613  0  0.098846  0.107945  0  1.071431  0
H  H53  1  0.52503821  0.13283691  0.87017137  1  0.151567  0  0.117021  0.089701  0  1.013415  0
H  H54  1  0.51433632  0.17683882  0.77381590  1  0.109194  0  0.109395  0.118231  0  1.019918  0
H  H55  1  0.07668302  0.18681958  0.77069882  1  0.11953  0  0.107324  0.1122  0  1.043553  0
H  H56  1  0.10708406  0.14383711  0.86756221  1  0.126931  0  0.115056  0.086502  0  1.017426  0
H  H57  1  0.47380569  0.28903948  0.71646005  1  0.088948  0  0.108173  0.111459  0  1.040805  0
H  H58  1  0.45529498  0.33933902  0.62090640  1  0.123045  0  0.120776  0.099044  0  1.006068  0
H  H59  1  0.07835563  0.21892509  0.58785428  1  0.112458  0  0.119559  0.089644  0  0.985235  0
H  H60  1  0.08614688  0.15815566  0.68063720  1  0.114531  0  0.107944  0.11432  0  1.038487  0
H  H61  1  0.59896693  0.13630819  0.49673642  1  0.036319  0  0.094886  0.146733  0  1.000624  0
H  H62  1  0.47231522  0.17523465  0.53761151  1  0.028119  0  0.0962  0.152702  0  0.997546  0
H  H63  1  0.43461562  0.16883954  0.46676083  1  0.090329  0  0.10489  0.171202  0  0.981007  0
H  H64  1  0.45612223  0.39662409  0.95254823  1  0.06467  0  0.098754  0.154217  0  0.985679  0
H  H65  1  0.33900538  0.30401116  0.94988132  1  0.117669  0  0.094869  0.156545  0  1.043182  0
H  H66  1  0.44203739  0.32212827  0.89692764  1  0.058558  0  0.101333  0.157493  0  0.998458  0
H  H67  1  0.64169173  0.52102317  0.42077187  1  0.593563  0  0.285963  0.366801  0  0.95579  0
H  H68  1  0.74332264  0.37620414  0.59840296  1  0.653173  0  0.301307  0.354801  0  0.978618  0
H  H69  1  0.74359069  0.21262297  0.88470142  1  0.623643  0  0.298119  0.343956  0  0.994918  0
H  H70  1  0.15989963  0.46456785  0.65393285  1  0.054411  0  0.099004  0.100913  0  1.030187  0
H  H71  1  0.29812545  0.47250788  0.74233497  1  0.053253  0  0.091971  0.090412  0  1.02857  0
H  H72  1  0.32529891  0.44474614  0.84107246  1  0.056638  0  0.092011  0.087132  0  1.041304  0
H  H73  1  0.13531645  0.37497206  0.88464683  1  0.038559  0  0.09906  0.09831  0  1.007239  0
H  H74  1  0.92203339  0.33489419  0.83110692  1  0.086798  0  0.098546  0.106251  0  1.048761  0
H  H75  1  0.66248242  0.30607281  0.71258688  1  0.023179  0  0.09632  0.09773  0  1.041598  0
H  H76  1  0.71939363  0.33940967  0.77934390  1  0.090918  0  0.098898  0.107236  0  1.032343  0
H  H77  1  0.91649544  0.97586881  0.81254128  1  0.097184  0  0.103776  0.110622  0  1.018266  0
H  H78  1  0.94650496  0.93093811  0.71867567  1  0.058476  0  0.099986  0.098132  0  1.017206  0
H  H79  1  0.91154985  0.96011011  0.62008914  1  0.058031  0  0.099486  0.100146  0  1.020763  0
H  H80  1  0.81464525  0.10620278  0.58641264  1  0.027761  0  0.100281  0.097929  0  0.992563  0
H  H81  1  0.75714621  0.22130561  0.64962710  1  0.116818  0  0.098852  0.108011  0  1.071307  0
H  H82  1  0.02506864  0.36716518  0.37017591  1  0.151457  0  0.117038  0.08981  0  1.013291  0
H  H83  1  0.01436046  0.32315132  0.27381889  1  0.10877  0  0.109393  0.118263  0  1.019931  0
H  H84  1  0.57671045  0.31314600  0.27070873  1  0.119476  0  0.107421  0.11231  0  1.043566  0
H  H85  1  0.60711672  0.35612848  0.36756842  1  0.126991  0  0.115049  0.086486  0  1.017583  0
H  H86  1  0.97382959  0.21093174  0.21646519  1  0.089096  0  0.108039  0.111258  0  1.040803  0
H  H87  1  0.95533382  0.16065352  0.12090485  1  0.12351  0  0.120796  0.099079  0  1.00595  0
H  H88  1  0.57839402  0.28106662  0.08785737  1  0.11225  0  0.119595  0.089613  0  0.985287  0
H  H89  1  0.58617541  0.34181468  0.18064281  1  0.09969  0  0.108023  0.114404  0  1.03867  0
H  H90  1  0.09895844  0.36369684  0.99671523  1  0.036179  0  0.094894  0.146799  0  1.000633  0
H  H91  1  0.97230795  0.32477736  0.03758868  1  0.028756  0  0.096123  0.152641  0  0.997545  0
H  H92  1  0.93461637  0.33116186  0.96674157  1  0.089716  0  0.104955  0.171383  0  0.981259  0
H  H93  1  0.95612435  0.10337659  0.45255182  1  0.064633  0  0.098756  0.154241  0  0.985742  0
H  H94  1  0.83901300  0.19598864  0.44988774  1  0.08873  0  0.094948  0.156596  0  1.043159  0
H  H95  1  0.94203479  0.17787136  0.39693440  1  0.058693  0  0.101344  0.157486  0  0.998421  0
H  H96  1  0.14168796  0.97898404  0.92077118  1  0.593436  0  0.285992  0.366882  0  0.95567  0
H  H97  1  0.75667870  0.87621075  0.90159698  1  0.653134  0  0.301296  0.354712  0  0.978618  0
H  H98  1  0.75641198  0.71263839  0.61529984  1  0.623759  0  0.29811  0.343886  0  0.994997  0
H  H99  1  0.34009477  0.96456825  0.84606818  1  0.054401  0  0.099029  0.100931  0  1.030115  0
H  H100  1  0.20187408  0.97250948  0.75766950  1  0.053297  0  0.091989  0.09041  0  1.028556  0
H  H101  1  0.17469541  0.94474973  0.65892974  1  0.056451  0  0.092039  0.08721  0  1.041251  0
H  H102  1  0.36468465  0.87498367  0.61535431  1  0.03865  0  0.099069  0.098325  0  1.007236  0
H  H103  1  0.57797485  0.83490833  0.66889082  1  0.087171  0  0.098565  0.10633  0  1.048756  0
H  H104  1  0.83752269  0.80608215  0.78741508  1  0.023211  0  0.096344  0.097794  0  1.04165  0
H  H105  1  0.78060450  0.83941715  0.72065462  1  0.091537  0  0.098871  0.107263  0  1.032339  0
H  H106  1  0.58352356  0.47588315  0.68745641  1  0.097352  0  0.103773  0.110561  0  1.018396  0
H  H107  1  0.55351689  0.43094368  0.78132244  1  0.058216  0  0.099979  0.09816  0  1.017331  0
H  H108  1  0.58846299  0.46011637  0.87990785  1  0.058198  0  0.099495  0.100172  0  1.020722  0
H  H109  1  0.68535391  0.60621402  0.91358906  1  0.02776  0  0.100216  0.097905  0  0.992517  0
H  H110  1  0.74284432  0.72132319  0.85037407  1  0.116515  0  0.09881  0.108019  0  1.07127  0
H  H111  1  0.47495393  0.86716974  0.12983093  1  0.151432  0  0.117051  0.089768  0  1.013393  0
H  H112  1  0.48565583  0.82317050  0.22618720  1  0.109354  0  0.109484  0.118476  0  1.019819  0
H  H113  1  0.92330707  0.81316443  0.22930019  1  0.119268  0  0.107346  0.112244  0  1.043511  0
H  H114  1  0.89290502  0.85615023  0.13243796  1  0.127083  0  0.115055  0.086534  0  1.017449  0
H  H115  1  0.52617426  0.71096917  0.28354013  1  0.088989  0  0.10813  0.111384  0  1.040837  0
H  H116  1  0.54467078  0.66067429  0.37909438  1  0.122898  0  0.120795  0.099192  0  1.005822  0
H  H117  1  0.92162232  0.78106891  0.41214902  1  0.11208  0  0.119602  0.089628  0  0.985378  0
H  H118  1  0.91384933  0.84182835  0.31936608  1  0.114386  0  0.107975  0.114411  0  1.038502  0
H  H119  1  0.40104044  0.86370712  0.50326813  1  0.036492  0  0.094866  0.146638  0  1.000724  0
H  H120  1  0.52767796  0.82478000  0.46239405  1  0.028315  0  0.096129  0.152646  0  0.997663  0
H  H121  1  0.56538260  0.83117311  0.53323932  1  0.090082  0  0.104899  0.171217  0  0.981139  0
H  H122  1  0.54388407  0.60336925  0.04744906  1  0.064508  0  0.098757  0.154201  0  0.985741  0
H  H123  1  0.66099073  0.69598883  0.05011032  1  0.088705  0  0.094918  0.156537  0  1.043094  0
H  H124  1  0.55797194  0.67786973  0.10306737  1  0.05866  0  0.101298  0.157425  0  0.998549  0
H  H125  1  0.35830043  0.47899414  0.57923204  1  0.593364  0  0.28594  0.366853  0  0.955716  0
C  C126  1  0.05710340  0.56457878  0.41693085  1  1.552251  0  0.205758  0.599777  0  4.186312  0
C  C127  1  0.04360482  0.58277300  0.35777505  1  0.034937  0  -0.041105  -0.176842  0  4.026227  0
C  C128  1  0.92295801  0.56409446  0.32647016  1  -0.036169  0  -0.087183  -0.124741  0  4.005269  0
C  C129  1  0.90560151  0.58124065  0.27051506  1  0.000829  0  -0.021438  0.049938  0  4.03252  0
C  C130  1  0.78345397  0.55848425  0.23817069  1  0.000547  0  -0.097741  -0.130707  0  4.010468  0
C  C131  1  0.76847891  0.57389789  0.18332132  1  -0.126661  0  -0.108927  -0.110619  0  4.058292  0
C  C132  1  0.87643707  0.61272778  0.15876001  1  0.032057  0  -0.09414  -0.071997  0  4.020168  0
C  C133  1  0.99619716  0.63621328  0.18900653  1  -0.116791  0  -0.098325  -0.140247  0  3.965866  0
C  C134  1  0.01497963  0.62202598  0.24584748  1  -0.012153  0  -0.005974  0.04799  0  3.962519  0
C  C135  1  0.13657488  0.64590368  0.27850506  1  0.023602  0  -0.027473  -0.05165  0  3.922805  0
C  C136  1  0.15200129  0.62341402  0.33310313  1  0.444053  0  0.080849  0.237221  0  4.061492  0
C  C137  1  0.25075747  0.69534261  0.25614140  1  -0.015769  0  -0.164615  -0.217642  0  3.984177  0
C  C138  1  0.21607006  0.79040503  0.23998617  1  0.019586  0  -0.029232  -0.059926  0  3.934674  0
C  C139  1  0.21532264  0.81411721  0.18585959  1  0.475798  0  0.078211  0.227234  0  4.074554  0
C  C140  1  0.16587564  0.89933363  0.16679553  1  -0.035252  0  -0.038473  -0.173693  0  4.019025  0
C  C141  1  0.12234746  0.96007814  0.20290921  1  -0.008428  0  -0.081827  -0.120062  0  3.9779  0
C  C142  1  0.13227340  0.94161623  0.25878178  1  -0.05243  0  -0.019252  0.047486  0  4.033854  0
C  C143  1  0.09499355  0.00552295  0.29655824  1  -0.009411  0  -0.089987  -0.120378  0  3.983225  0
C  C144  1  0.11294087  0.98903989  0.35130122  1  -0.114835  0  -0.101495  -0.104533  0  4.042816  0
C  C145  1  0.16777983  0.90640831  0.37021928  1  -0.042159  0  -0.093838  -0.076926  0  4.033631  0
C  C146  1  0.20017781  0.84139101  0.33459837  1  -0.08986  0  -0.10126  -0.146775  0  3.974875  0
C  C147  1  0.18287746  0.85609817  0.27781228  1  0.022334  0  -0.008992  0.03716  0  3.980827  0
C  C148  1  0.15652225  0.92082650  0.10797288  1  1.531457  0  0.210015  0.602464  0  4.173985  0
C  C149  1  0.07212320  0.64629436  0.65334919  1  0.441447  0  0.048555  0.101191  0  3.958993  0
C  C150  1  0.07920510  0.67138121  0.70721893  1  -0.078389  0  -0.075472  -0.156973  0  3.900108  0
C  C151  1  0.20639738  0.68716213  0.73637242  1  0.056456  0  0.01713  0.104921  0  3.955352  0
C  C152  1  0.32171633  0.67489113  0.70930303  1  -0.023894  0  -0.0744  -0.157528  0  3.921279  0
C  C153  1  0.30551767  0.65103077  0.65505052  1  0.435636  0  0.048811  0.099748  0  3.947197  0
C  C154  1  0.21738505  0.71806988  0.79295052  1  -0.040517  0  0.020548  0.116556  0  3.953831  0
C  C155  1  0.11422144  0.77026207  0.81108006  1  0.028703  0  -0.077307  -0.162329  0  3.928474  0
C  C156  1  0.12534037  0.80006450  0.86407546  1  0.403906  0  0.046733  0.090538  0  3.951529  0
C  C157  1  0.33455483  0.73212842  0.88250646  1  0.556218  0  0.053943  0.108224  0  3.947245  0
C  C158  1  0.32998617  0.69882029  0.83023753  1  -0.030929  0  -0.071222  -0.154895  0  3.903422  0
C  C159  1  0.93601351  0.77839222  0.00725812  1  1.570026  0  0.212073  0.713201  0  4.108613  0
C  C160  1  0.98421345  0.68360008  0.00070278  1  -0.063642  0  -0.246246  -0.531776  0  3.891097  0
C  C161  1  0.94843356  0.76963729  0.53217127  1  1.510386  0  0.199025  0.679278  0  4.125686  0
C  C162  1  0.06094114  0.82684806  0.55916425  1  -0.112595  0  -0.247313  -0.53089  0  3.891726  0
C  C163  1  0.44288325  0.06457905  0.08306261  1  1.552078  0  0.205729  0.599803  0  4.186309  0
C  C164  1  0.45638498  0.08277834  0.14222139  1  0.032742  0  -0.041183  -0.176992  0  4.026236  0
C  C165  1  0.57703907  0.06409471  0.17352896  1  -0.035857  0  -0.087167  -0.124729  0  4.005038  0
C  C166  1  0.59439161  0.08124462  0.22948633  1  0.000844  0  -0.021397  0.049903  0  4.032416  0
C  C167  1  0.71654005  0.05848197  0.26182949  1  0.00063  0  -0.097747  -0.130734  0  4.010489  0
C  C168  1  0.73151313  0.07389599  0.31667639  1  -0.126717  0  -0.108879  -0.110466  0  4.058408  0
C  C169  1  0.62355411  0.11272453  0.34123574  1  0.033157  0  -0.094087  -0.072007  0  4.020317  0
C  C170  1  0.50379314  0.13621163  0.31099284  1  -0.11697  0  -0.098433  -0.140425  0  3.966107  0
C  C171  1  0.48500529  0.12202610  0.25415164  1  -0.012081  0  -0.005999  0.048  0  3.962638  0
C  C172  1  0.36341926  0.14590538  0.22149210  1  0.020351  0  -0.027584  -0.051931  0  3.923035  0
C  C173  1  0.34798463  0.12341467  0.16689363  1  0.445891  0  0.080794  0.237262  0  4.061634  0
C  C174  1  0.24924705  0.19535492  0.24385750  1  -0.012382  0  -0.164557  -0.217303  0  3.983937  0
C  C175  1  0.28393691  0.29041417  0.26001464  1  0.019826  0  -0.029151  -0.059885  0  3.934851  0
C  C176  1  0.28469964  0.31412271  0.31414031  1  0.475654  0  0.078064  0.227299  0  4.074801  0
C  C177  1  0.33414904  0.39933934  0.33320384  1  -0.034744  0  -0.038425  -0.173552  0  4.018922  0
C  C178  1  0.37768054  0.46008502  0.29709203  1  -0.009312  0  -0.081904  -0.120216  0  3.977786  0
C  C179  1  0.36774132  0.44161940  0.24121806  1  -0.052468  0  -0.019253  0.047634  0  4.033596  0
C  C180  1  0.40502537  0.50552987  0.20344329  1  -0.009907  0  -0.090126  -0.120585  0  3.982985  0
C  C181  1  0.38707609  0.48904249  0.14869922  1  -0.114876  0  -0.101489  -0.104649  0  4.042588  0
C  C182  1  0.33224084  0.40640870  0.12978275  1  -0.042285  0  -0.093869  -0.076854  0  4.033422  0
C  C183  1  0.29982939  0.34139491  0.16540336  1  -0.089326  0  -0.10128  -0.146525  0  3.974689  0
C  C184  1  0.31714198  0.35609847  0.22219040  1  0.022322  0  -0.008948  0.036918  0  3.981042  0
C  C185  1  0.34348933  0.42084192  0.39202599  1  1.531981  0  0.209949  0.602302  0  4.174314  0
C  C186  1  0.42787281  0.14628565  0.84664605  1  0.44168  0  0.048543  0.101062  0  3.9592  0
C  C187  1  0.42078290  0.17136682  0.79277681  1  -0.079227  0  -0.075449  -0.156819  0  3.900276  0
C  C188  1  0.29360288  0.18714667  0.76362509  1  0.055994  0  0.017097  0.104804  0  3.955332  0
C  C189  1  0.17828184  0.17487899  0.79069315  1  -0.023715  0  -0.074319  -0.157391  0  3.920883  0
C  C190  1  0.19447433  0.15102167  0.84494857  1  0.435339  0  0.048721  0.099552  0  3.947002  0
C  C191  1  0.28260521  0.21806403  0.70704783  1  -0.039837  0  0.020664  0.116798  0  3.953648  0
C  C192  1  0.38575789  0.27026360  0.68891953  1  0.028717  0  -0.077386  -0.162358  0  3.928958  0
C  C193  1  0.37462999  0.30006833  0.63592702  1  0.404288  0  0.046627  0.090526  0  3.951714  0
C  C194  1  0.16542433  0.23211580  0.61749265  1  0.555834  0  0.054032  0.108205  0  3.947078  0
C  C195  1  0.17000302  0.19880335  0.66976434  1  -0.04626  0  -0.071251  -0.154918  0  3.903103  0
C  C196  1  0.56399269  0.27840117  0.49275065  1  1.570478  0  0.211803  0.712843  0  4.108692  0
C  C197  1  0.51578533  0.18361099  0.49931711  1  -0.063608  0  -0.246294  -0.531646  0  3.890997  0
C  C198  1  0.55157231  0.26962342  0.96781941  1  1.510165  0  0.199005  0.679114  0  4.125374  0
C  C199  1  0.43906786  0.32683932  0.94083591  1  -0.113526  0  -0.247249  -0.530814  0  3.891939  0
C  C200  1  0.94289581  0.43542988  0.58306814  1  1.551926  0  0.205863  0.59993  0  4.186321  0
C  C201  1  0.95639745  0.41723099  0.64222528  1  0.033308  0  -0.041119  -0.176817  0  4.026206  0
C  C202  1  0.07704529  0.43590953  0.67353262  1  -0.036267  0  -0.087136  -0.124737  0  4.00527  0
C  C203  1  0.09440180  0.41875469  0.72948771  1  0.000447  0  -0.021469  0.049921  0  4.032758  0
C  C204  1  0.21653818  0.44151109  0.76183201  1  0.001119  0  -0.097649  -0.130572  0  4.010898  0
C  C205  1  0.23151829  0.42609278  0.81667918  1  -0.12665  0  -0.108835  -0.11039  0  4.058365  0
C  C206  1  0.12355504  0.38726090  0.84123827  1  0.032181  0  -0.094144  -0.072138  0  4.019947  0
C  C207  1  0.00379189  0.36377806  0.81099002  1  -0.116581  0  -0.098485  -0.140435  0  3.965767  0
C  C208  1  0.98500840  0.37797002  0.75414862  1  -0.012344  0  -0.005929  0.048098  0  3.962486  0
C  C209  1  0.86342126  0.35409366  0.72148979  1  0.023672  0  -0.027576  -0.051882  0  3.923114  0
C  C210  1  0.84799182  0.37658665  0.66689359  1  0.446008  0  0.080833  0.237128  0  4.061401  0
C  C211  1  0.74924578  0.30464406  0.74385415  1  -0.015634  0  -0.164538  -0.217328  0  3.984075  0
C  C212  1  0.78393419  0.20958565  0.76000902  1  0.02029  0  -0.029151  -0.059934  0  3.934784  0
C  C213  1  0.78468872  0.18587613  0.81413590  1  0.475311  0  0.078125  0.227291  0  4.074421  0
C  C214  1  0.83412661  0.10065704  0.83320278  1  -0.035007  0  -0.038434  -0.17348  0  4.018571  0
C  C215  1  0.87766902  0.03991386  0.79709171  1  -0.008639  0  -0.081931  -0.120297  0  3.977896  0
C  C216  1  0.86774916  0.05837511  0.74121860  1  -0.052189  0  -0.019257  0.047617  0  4.033563  0
C  C217  1  0.90502800  0.99446705  0.70344330  1  -0.009701  0  -0.090061  -0.120443  0  3.982976  0
C  C218  1  0.88708878  0.01095544  0.64869866  1  -0.114865  0  -0.101423  -0.104602  0  4.042535  0
C  C219  1  0.83225084  0.09358702  0.62978104  1  -0.042118  0  -0.093946  -0.076985  0  4.03338  0
C  C220  1  0.79984068  0.15860166  0.66540104  1  -0.089912  0  -0.101315  -0.146631  0  3.974625  0
C  C221  1  0.81714103  0.14389450  0.72218753  1  0.021853  0  -0.009017  0.036923  0  3.980732  0
C  C222  1  0.84347088  0.07916217  0.89202545  1  1.531795  0  0.210055  0.602457  0  4.173835  0
C  C223  1  0.92788720  0.35370764  0.34665228  1  0.441175  0  0.048461  0.101078  0  3.958895  0
C  C224  1  0.92079920  0.32861346  0.29278147  1  -0.079307  0  -0.075431  -0.156963  0  3.900044  0
C  C225  1  0.79360592  0.31282189  0.26363036  1  0.05715  0  0.01707  0.104868  0  3.955393  0
C  C226  1  0.67829207  0.32508756  0.29070236  1  -0.024134  0  -0.0744  -0.157527  0  3.921707  0
C  C227  1  0.69448766  0.34895391  0.34495194  1  0.435931  0  0.048681  0.099671  0  3.947527  0
C  C228  1  0.78261014  0.28191547  0.20705231  1  -0.039991  0  0.020728  0.11694  0  3.953851  0
C  C229  1  0.88577274  0.22971662  0.18892353  1  0.028727  0  -0.077336  -0.162321  0  3.928394  0
C  C230  1  0.87465784  0.19992218  0.13592509  1  0.40289  0  0.046619  0.090396  0  3.951595  0
C  C231  1  0.66544847  0.26787624  0.11749591  1  0.556305  0  0.053986  0.108205  0  3.947071  0
C  C232  1  0.67001511  0.30117239  0.16976596  1  -0.030928  0  -0.071425  -0.155153  0  3.903964  0
C  C233  1  0.06397554  0.22160578  0.99273803  1  1.570762  0  0.21223  0.713502  0  4.10821  0
C  C234  1  0.01577867  0.31639925  0.99929711  1  -0.063482  0  -0.24631  -0.531939  0  3.891217  0
C  C235  1  0.05156866  0.23037136  0.46782263  1  1.510084  0  0.198977  0.679264  0  4.125206  0
C  C236  1  0.93906623  0.17315859  0.44084030  1  -0.084663  0  -0.247321  -0.530926  0  3.892039  0
C  C237  1  0.55709768  0.93542561  0.91693319  1  1.552633  0  0.205821  0.599839  0  4.186521  0
C  C238  1  0.54360611  0.91723430  0.85777645  1  0.033075  0  -0.041072  -0.176691  0  4.026065  0
C  C239  1  0.42295608  0.93591327  0.82646946  1  -0.036215  0  -0.087143  -0.124684  0  4.005254  0
C  C240  1  0.40560864  0.91875738  0.77051471  1  0.000816  0  -0.021378  0.049857  0  4.032687  0
C  C241  1  0.28346628  0.94151403  0.73817101  1  0.000692  0  -0.097688  -0.130502  0  4.010363  0
C  C242  1  0.26848404  0.92609734  0.68332090  1  -0.126546  0  -0.108925  -0.110691  0  4.058377  0
C  C243  1  0.37644914  0.88727347  0.65876101  1  0.032187  0  -0.094139  -0.072007  0  4.020202  0
C  C244  1  0.49620710  0.86378437  0.68900619  1  -0.117111  0  -0.09845  -0.140504  0  3.966064  0
C  C245  1  0.51498985  0.87797989  0.74584517  1  -0.011984  0  -0.005999  0.048128  0  3.962538  0
C  C246  1  0.63656982  0.85410128  0.77850767  1  0.022928  0  -0.027637  -0.051959  0  3.923166  0
C  C247  1  0.65201053  0.87659531  0.83310559  1  0.445934  0  0.080834  0.237128  0  4.061483  0
C  C248  1  0.75075222  0.80466238  0.75614751  1  -0.015543  0  -0.164578  -0.217573  0  3.984218  0
C  C249  1  0.71606537  0.70959781  0.73998689  1  0.019631  0  -0.02915  -0.059779  0  3.934519  0
C  C250  1  0.71531886  0.68588461  0.68586030  1  0.47567  0  0.078151  0.227216  0  4.074923  0
C  C251  1  0.66587350  0.60066798  0.66679373  1  -0.035254  0  -0.038396  -0.173508  0  4.018801  0
C  C252  1  0.62234200  0.53992097  0.70290634  1  -0.008631  0  -0.081923  -0.120193  0  3.97822  0
C  C253  1  0.63225584  0.55838126  0.75877804  1  -0.052686  0  -0.019252  0.047449  0  4.034077  0
C  C254  1  0.59498093  0.49447212  0.79655440  1  -0.009412  0  -0.090042  -0.120261  0  3.983096  0
C  C255  1  0.61292107  0.51095684  0.85129687  1  -0.114685  0  -0.101498  -0.10485  0  4.042628  0
C  C256  1  0.66774519  0.59359329  0.87021688  1  -0.042312  0  -0.093827  -0.076785  0  4.033276  0
C  C257  1  0.70014752  0.65861174  0.83459629  1  -0.089498  0  -0.101335  -0.146863  0  3.974682  0
C  C258  1  0.68285622  0.64390419  0.77780815  1  0.022509  0  -0.008924  0.037151  0  3.980837  0
C  C259  1  0.65653218  0.57918338  0.60797074  1  1.531102  0  0.210113  0.602625  0  4.173826  0
C  C260  1  0.57212238  0.85372167  0.15335638  1  0.441498  0  0.048483  0.101042  0  3.959118  0
C  C261  1  0.57920924  0.82863517  0.20722589  1  -0.078949  0  -0.075436  -0.157157  0  3.900243  0
C  C262  1  0.70639738  0.81284933  0.23637756  1  0.057147  0  0.01703  0.104925  0  3.955131  0
C  C263  1  0.82171738  0.82511102  0.20930544  1  -0.024617  0  -0.074474  -0.15764  0  3.920916  0
C  C264  1  0.80552389  0.84897367  0.15505239  1  0.435173  0  0.048844  0.099635  0  3.946891  0
C  C265  1  0.71738795  0.78193597  0.29295452  1  -0.039974  0  0.020677  0.116758  0  3.953701  0
C  C266  1  0.61422613  0.72974305  0.31108202  1  0.028504  0  -0.077387  -0.162414  0  3.928726  0
C  C267  1  0.62534796  0.69993832  0.36407588  1  0.404423  0  0.046691  0.090432  0  3.951609  0
C  C268  1  0.83456070  0.76788086  0.38250895  1  0.556511  0  0.053912  0.10808  0  3.947427  0
C  C269  1  0.82999116  0.80119198  0.33023965  1  -0.046232  0  -0.07126  -0.154973  0  3.903306  0
C  C270  1  0.43601464  0.72161880  0.50724868  1  1.570829  0  0.212063  0.713236  0  4.108793  0
C  C271  1  0.48421797  0.81640632  0.50068606  1  -0.064013  0  -0.246226  -0.531546  0  3.891357  0
C  C272  1  0.44841472  0.73036725  0.03217745  1  1.510459  0  0.198946  0.678999  0  4.125782  0
C  C273  1  0.56093234  0.67315602  0.05915950  1  -0.08438  0  -0.247334  -0.530784  0  3.891937  0
N  N274  1  0.18325915  0.63728005  0.62728840  1  -1.222861  0  -0.328661  -0.26265  0  3.519027  0
N  N275  1  0.23434791  0.78159527  0.89950115  1  -1.251249  0  -0.32651  -0.2609  0  3.520833  0
N  N276  1  0.31674190  0.13726800  0.87270863  1  -1.222624  0  -0.32864  -0.262433  0  3.518714  0
N  N277  1  0.26562338  0.28159603  0.60050094  1  -1.25118  0  -0.326568  -0.261045  0  3.520936  0
N  N278  1  0.81674719  0.36271595  0.37271370  1  -1.222813  0  -0.328548  -0.262638  0  3.518964  0
N  N279  1  0.76565032  0.21840406  0.10050101  1  -1.251092  0  -0.326402  -0.260688  0  3.520672  0
N  N280  1  0.68325631  0.86272867  0.12729112  1  -1.222526  0  -0.328676  -0.26245  0  3.518644  0
N  N281  1  0.73435151  0.71841195  0.39950103  1  -1.251242  0  -0.326498  -0.260791  0  3.520882  0
O  O282  1  0.16852147  0.59126634  0.44451273  1  -1.156666  0  -0.321933  -0.55436  0  2.313202  0
O  O283  1  0.96240596  0.52793038  0.43826787  1  -1.203959  0  -0.332333  -0.589805  0  2.349233  0
O  O284  1  0.27106038  0.64192825  0.36308639  1  -1.182299  0  -0.351899  -0.452223  0  2.38476  0
O  O285  1  0.07828267  0.98289053  0.09015527  1  -1.172746  0  -0.318136  -0.553697  0  2.321858  0
O  O286  1  0.22925765  0.87280915  0.07911048  1  -1.17181  0  -0.323987  -0.573139  0  2.300709  0
O  O287  1  0.25829746  0.75395132  0.15080377  1  -1.149779  0  -0.356894  -0.451541  0  2.342497  0
O  O288  1  0.83388846  0.79113664  0.03240159  1  -1.19499  0  -0.32873  -0.590669  0  2.236826  0
O  O289  1  0.00460899  0.84077305  0.98725047  1  -1.187556  0  -0.342392  -0.618154  0  2.313487  0
O  O290  1  0.97450884  0.68798972  0.51943232  1  -1.162446  0  -0.339986  -0.601285  0  2.312953  0
O  O291  1  0.82947862  0.79984824  0.52268571  1  -1.162305  0  -0.331264  -0.562974  0  2.103445  0
O  O292  1  0.81359605  0.01859076  0.04239256  1  -1.171996  0  -0.592406  -0.84651  0  2.198106  0
O  O293  1  0.33147040  0.09127691  0.05548462  1  -1.155699  0  -0.321853  -0.554185  0  2.313555  0
O  O294  1  0.53757979  0.02792119  0.06172869  1  -1.2041  0  -0.332301  -0.589873  0  2.349  0
O  O295  1  0.22893072  0.14192985  0.13691264  1  -1.182667  0  -0.351719  -0.451997  0  2.384764  0
O  O296  1  0.42172208  0.48290620  0.40984423  1  -1.173316  0  -0.318114  -0.553712  0  2.322306  0
O  O297  1  0.27077503  0.37281798  0.42088958  1  -1.171746  0  -0.323917  -0.573047  0  2.300944  0
O  O298  1  0.24172150  0.25396430  0.34919386  1  -1.149577  0  -0.356851  -0.451697  0  2.342492  0
O  O299  1  0.66610965  0.29114493  0.46760245  1  -1.195525  0  -0.328594  -0.590511  0  2.236778  0
O  O300  1  0.49537884  0.34077961  0.51275766  1  -1.187438  0  -0.342249  -0.61795  0  2.313181  0
O  O301  1  0.52550990  0.18797589  0.98056275  1  -1.162377  0  -0.339936  -0.60122  0  2.31248  0
O  O302  1  0.67052949  0.29982664  0.97731436  1  -1.162074  0  -0.331311  -0.562981  0  2.10348  0
O  O303  1  0.68639578  0.51859629  0.45760904  1  -1.172229  0  -0.592476  -0.846549  0  2.198207  0
O  O304  1  0.83149292  0.40873299  0.55548209  1  -1.156082  0  -0.322007  -0.554362  0  2.313269  0
O  O305  1  0.03759023  0.47208759  0.56173260  1  -1.203986  0  -0.332355  -0.589922  0  2.34935  0
O  O306  1  0.72893171  0.35807041  0.63690949  1  -1.182456  0  -0.351792  -0.451992  0  2.384686  0
O  O307  1  0.92170438  0.01709814  0.90984520  1  -1.173177  0  -0.318118  -0.553723  0  2.321974  0
O  O308  1  0.77072935  0.12717686  0.92088277  1  -1.171593  0  -0.323956  -0.573177  0  2.300921  0
O  O309  1  0.74170983  0.24603669  0.84918954  1  -1.14904  0  -0.356847  -0.451725  0  2.342238  0
O  O310  1  0.16610058  0.20886269  0.96759336  1  -1.195719  0  -0.328747  -0.590785  0  2.236763  0
O  O311  1  0.99537902  0.15922362  0.01274163  1  -1.187605  0  -0.342507  -0.61828  0  2.313418  0
O  O312  1  0.02552080  0.31202160  0.48056555  1  -1.162305  0  -0.339943  -0.601347  0  2.312469  0
O  O313  1  0.17052877  0.20017839  0.47732005  1  -1.16207  0  -0.331338  -0.563028  0  2.103299  0
O  O314  1  0.18638493  0.98140857  0.95760886  1  -1.172247  0  -0.592491  -0.84662  0  2.198161  0
O  O315  1  0.66850450  0.90873973  0.94451735  1  -1.156378  0  -0.322022  -0.554307  0  2.313363  0
O  O316  1  0.46240014  0.97207614  0.93826868  1  -1.204046  0  -0.332312  -0.589905  0  2.349517  0
O  O317  1  0.77106649  0.85807547  0.86308908  1  -1.182285  0  -0.351736  -0.451868  0  2.384844  0
O  O318  1  0.57829029  0.51712310  0.59015131  1  -1.172411  0  -0.318175  -0.553792  0  2.321719  0
O  O319  1  0.72927595  0.62719733  0.57911401  1  -1.171776  0  -0.323981  -0.573179  0  2.30092  0
O  O320  1  0.75829297  0.74604835  0.65081059  1  -1.149427  0  -0.356871  -0.45166  0  2.34278  0
O  O321  1  0.33388751  0.70887704  0.53239324  1  -1.195649  0  -0.328595  -0.590598  0  2.236736  0
O  O322  1  0.50461338  0.65922904  0.48725427  1  -1.187481  0  -0.342477  -0.618229  0  2.313429  0
O  O323  1  0.47447814  0.81201146  0.01943295  1  -1.162167  0  -0.339968  -0.601205  0  2.31287  0
O  O324  1  0.32946062  0.70016004  0.02268785  1  -1.162742  0  -0.331205  -0.562858  0  2.103453  0
O  O325  1  0.31360043  0.48142102  0.54239463  1  -1.171836  0  -0.592408  -0.846562  0  2.19817  0
