# generated using pymatgen
data_V2CdH8C13(N2O3)2
_symmetry_space_group_name_H-M   'P 1'
_cell_length_a   7.84974021
_cell_length_b   12.54538845
_cell_length_c   16.15800000
_cell_angle_alpha   108.37492638
_cell_angle_beta   90.00000000
_cell_angle_gamma   90.00000000
_symmetry_Int_Tables_number   1
_chemical_formula_structural   V2CdH8C13(N2O3)2
_chemical_formula_sum   'V8 Cd4 H32 C52 N16 O24'
_cell_volume   1510.07891896
_cell_formula_units_Z   4
loop_
 _symmetry_equiv_pos_site_id
 _symmetry_equiv_pos_as_xyz
  1  'x, y, z'
loop_
 _atom_site_type_symbol
 _atom_site_label
 _atom_site_symmetry_multiplicity
 _atom_site_fract_x
 _atom_site_fract_y
 _atom_site_fract_z
 _atom_site_occupancy
 _atom_site_hle17_bader_spin_density
 _atom_site_hle17_ddec_charge
 _atom_site_hle17_ddec_spin_density
 _atom_site_hle17_ddec_sum_bond_order
 _atom_site_hle17_magmom
 _atom_site_hse06_10hf_bader_spin_density
 _atom_site_hse06_10hf_ddec_charge
 _atom_site_hse06_10hf_ddec_spin_density
 _atom_site_hse06_10hf_ddec_sum_bond_order
 _atom_site_hse06_10hf_magmom
 _atom_site_hse06_bader_spin_density
 _atom_site_hse06_ddec_charge
 _atom_site_hse06_ddec_spin_density
 _atom_site_hse06_ddec_sum_bond_order
 _atom_site_hse06_magmom
 _atom_site_pbe_bader_charge
 _atom_site_pbe_bader_spin_density
 _atom_site_pbe_cm5_charge
 _atom_site_pbe_ddec_charge
 _atom_site_pbe_ddec_spin_density
 _atom_site_pbe_ddec_sum_bond_order
 _atom_site_pbe_magmom
V  V0  1  0.11099730  0.39230624  0.80559755  1  0  1.974979  0  3.018841  0  0  2.022946  0  3.431404  0  0  2.124791  0  3.391785  0  2.107387  0  1.426832  1.942059  0  3.479532  0
V  V1  1  0.61099729  0.60769376  0.69440245  1  0  1.974948  0  3.018822  0  0  2.022906  0  3.431409  0  0  2.124757  0  3.391779  0  2.107387  0  1.426812  1.94203  0  3.479534  0
V  V2  1  0.88900394  0.60769376  0.19440245  1  0  1.974905  0  3.018882  0  0  2.022902  0  3.431416  0  0  2.124712  0  3.391841  0  2.107392  0  1.426799  1.942016  0  3.479547  0
V  V3  1  0.38900396  0.39230624  0.30559817  1  0  1.97501  0  3.018823  0  0  2.022942  0  3.431441  0  0  2.124809  0  3.391787  0  2.107383  0  1.426845  1.942081  0  3.479544  0
V  V4  1  0.48411156  0.47232388  0.84292384  1  0  1.995284  0  3.045198  0  0  2.05233  0  3.439705  0  0  2.147486  0  3.417129  0  2.117212  0  1.448618  1.973768  0  3.482117  0
V  V5  1  0.98411155  0.52767612  0.65707554  1  0  1.995263  0  3.045237  0  0  2.052331  0  3.43972  0  0  2.147497  0  3.417126  0  2.117209  0  1.448633  1.973766  0  3.482129  0
V  V6  1  0.51588968  0.52767696  0.15707637  1  0  1.995295  0  3.045213  0  0  2.052369  0  3.439681  0  0  2.147519  0  3.417115  0  2.117213  0  1.448637  1.973786  0  3.482119  0
V  V7  1  0.01588842  0.47232472  0.34292528  1  0  1.995263  0  3.045241  0  0  2.052333  0  3.439726  0  0  2.147513  0  3.41711  0  2.117218  0  1.448612  1.973773  0  3.482121  0
Cd  Cd8  1  0.83435373  0.38793188  0.98565143  1  0  1.27535  0  1.712667  0  0  1.128492  0  2.166883  0  0  1.18874  0  2.105849  0  1.316598  0  0.795208  1.085521  0  2.207193  0
Cd  Cd9  1  0.33435501  0.61206812  0.51434857  1  0  1.275348  0  1.712665  0  0  1.128477  0  2.166892  0  0  1.188725  0  2.105862  0  1.316572  0  0.795209  1.085506  0  2.207204  0
Cd  Cd10  1  0.16564625  0.61206728  0.01434836  1  0  1.27534  0  1.712674  0  0  1.128493  0  2.166866  0  0  1.188744  0  2.105831  0  1.31659  0  0.795204  1.085523  0  2.207175  0
Cd  Cd11  1  0.66564496  0.38793188  0.48565143  1  0  1.275369  0  1.712657  0  0  1.128513  0  2.166874  0  0  1.188759  0  2.105847  0  1.316571  0  0.795216  1.085542  0  2.207185  0
H  H12  1  0.94170378  0.76475737  0.78466821  1  0  0.318914  0  0.909732  0  0  0.305448  0  0.964913  0  0  0.314011  0  0.957951  0  0.519714  0  0.313054  0.299325  0  0.969827  0
H  H13  1  0.44170379  0.23524264  0.71533117  1  0  0.318929  0  0.909725  0  0  0.305453  0  0.964913  0  0  0.314014  0  0.957952  0  0.519736  0  0.313053  0.299329  0  0.969827  0
H  H14  1  0.05829620  0.23524348  0.21533200  1  0  0.318886  0  0.909757  0  0  0.30542  0  0.96494  0  0  0.313983  0  0.957979  0  0.519731  0  0.313045  0.299297  0  0.969855  0
H  H15  1  0.55829618  0.76475737  0.28466821  1  0  0.318903  0  0.909741  0  0  0.305436  0  0.964921  0  0  0.313998  0  0.957961  0  0.519713  0  0.313052  0.299312  0  0.969836  0
H  H16  1  0.19262930  0.40088613  0.09213618  1  0  0.077564  0  0.970784  0  0  0.083727  0  1.042537  0  0  0.08654  0  1.039538  0  0.13592  0  0.115352  0.081825  0  1.044354  0
H  H17  1  0.69262929  0.59911304  0.40786300  1  0  0.077548  0  0.97078  0  0  0.083707  0  1.042543  0  0  0.086522  0  1.039543  0  0.135908  0  0.115344  0.081805  0  1.044361  0
H  H18  1  0.80736939  0.59911304  0.90786300  1  0  0.07754  0  0.970792  0  0  0.083675  0  1.042586  0  0  0.086489  0  1.039587  0  0.135902  0  0.115337  0.081775  0  1.044399  0
H  H19  1  0.30736813  0.40088613  0.59213680  1  0  0.077529  0  0.970823  0  0  0.083688  0  1.042588  0  0  0.086503  0  1.039588  0  0.135925  0  0.115343  0.081788  0  1.044402  0
H  H20  1  0.44362742  0.27627659  0.09623402  1  0  0.116634  0  0.9746  0  0  0.12382  0  1.039617  0  0  0.127356  0  1.038113  0  0.09689  0  0.110674  0.121467  0  1.040386  0
H  H21  1  0.94362741  0.72372257  0.40376577  1  0  0.116628  0  0.974608  0  0  0.123809  0  1.039632  0  0  0.127346  0  1.038126  0  0.096873  0  0.110668  0.121455  0  1.040401  0
H  H22  1  0.55637255  0.72372425  0.90376680  1  0  0.116604  0  0.97467  0  0  0.123805  0  1.039667  0  0  0.127342  0  1.038162  0  0.096887  0  0.110673  0.121452  0  1.040436  0
H  H23  1  0.05637257  0.27627575  0.59623320  1  0  0.116629  0  0.974676  0  0  0.123826  0  1.039676  0  0  0.127363  0  1.038169  0  0.096892  0  0.110675  0.121472  0  1.040445  0
H  H24  1  0.43069706  0.07483359  0.01038784  1  0  0.104171  0  0.959502  0  0  0.110125  0  1.031305  0  0  0.11377  0  1.027745  0  0.12127  0  0.108109  0.107482  0  1.033924  0
H  H25  1  0.93069704  0.92516473  0.48961175  1  0  0.104155  0  0.959566  0  0  0.110113  0  1.031359  0  0  0.113758  0  1.027798  0  0.121314  0  0.108094  0.10747  0  1.033976  0
H  H26  1  0.56930419  0.92516557  0.98961196  1  0  0.104164  0  0.959523  0  0  0.110128  0  1.031312  0  0  0.113772  0  1.027752  0  0.121323  0  0.108106  0.107486  0  1.033931  0
H  H27  1  0.06930420  0.07483359  0.51038784  1  0  0.104155  0  0.959542  0  0  0.110125  0  1.031327  0  0  0.11377  0  1.027766  0  0.121278  0  0.108103  0.107482  0  1.033944  0
H  H28  1  0.67593957  0.88414086  0.79190855  1  0  0.118548  0  0.946012  0  0  0.132069  0  1.001702  0  0  0.135571  0  0.998809  0  0.137934  0  0.111978  0.129422  0  1.003956  0
H  H29  1  0.17593958  0.11585914  0.70809145  1  0  0.118564  0  0.945994  0  0  0.132079  0  1.001693  0  0  0.135581  0  0.9988  0  0.137942  0  0.111982  0.129433  0  1.003945  0
H  H30  1  0.32405786  0.11585746  0.20809042  1  0  0.118522  0  0.946144  0  0  0.132036  0  1.001835  0  0  0.135538  0  0.998941  0  0.137961  0  0.11196  0.1294  0  1.004075  0
H  H31  1  0.82406039  0.88414086  0.29190917  1  0  0.118574  0  0.945997  0  0  0.132096  0  1.001688  0  0  0.135598  0  0.998794  0  0.137944  0  0.111984  0.129448  0  1.003942  0
H  H32  1  0.45114869  0.02702728  0.80574301  1  0  0.105787  0  0.954748  0  0  0.115913  0  1.01319  0  0  0.118495  0  1.013567  0  0.093076  0  0.107366  0.114059  0  1.013041  0
H  H33  1  0.95114868  0.97297273  0.69425699  1  0  0.105773  0  0.95475  0  0  0.115898  0  1.013188  0  0  0.118482  0  1.013566  0  0.093076  0  0.107366  0.114039  0  1.013053  0
H  H34  1  0.54885129  0.97297273  0.19425699  1  0  0.105784  0  0.954747  0  0  0.115911  0  1.013184  0  0  0.118494  0  1.013563  0  0.093079  0  0.107363  0.114055  0  1.013043  0
H  H35  1  0.04885130  0.02702812  0.30574384  1  0  0.105764  0  0.954773  0  0  0.115888  0  1.013214  0  0  0.118471  0  1.013594  0  0.093095  0  0.107356  0.114032  0  1.013074  0
H  H36  1  0.51956114  0.23139156  0.88002235  1  0  0.08289  0  0.941229  0  0  0.092495  0  1.003344  0  0  0.095128  0  1.000834  0  0.098709  0  0.117927  0.090565  0  1.005094  0
H  H37  1  0.01956116  0.76860845  0.61997765  1  0  0.082892  0  0.94123  0  0  0.092498  0  1.003343  0  0  0.095133  0  1.000831  0  0.098707  0  0.117926  0.090568  0  1.005092  0
H  H38  1  0.48044138  0.76860761  0.11997806  1  0  0.082853  0  0.94126  0  0  0.09246  0  1.003375  0  0  0.095092  0  1.000867  0  0.098682  0  0.117911  0.090531  0  1.005123  0
H  H39  1  0.98043754  0.23139240  0.38002256  1  0  0.082892  0  0.941208  0  0  0.092492  0  1.003337  0  0  0.095128  0  1.000822  0  0.098703  0  0.117918  0.090563  0  1.005086  0
H  H40  1  0.23332747  0.70955211  0.82551164  1  0  0.094857  0  0.939849  0  0  0.105822  0  1.000228  0  0  0.10844  0  0.996565  0  0.168846  0  0.136165  0.103796  0  1.002962  0
H  H41  1  0.73332745  0.29044789  0.67448836  1  0  0.09486  0  0.939849  0  0  0.105822  0  1.000234  0  0  0.108439  0  0.99657  0  0.168852  0  0.136164  0.103794  0  1.002969  0
H  H42  1  0.76667123  0.29044705  0.17448816  1  0  0.094868  0  0.939855  0  0  0.105838  0  1.000233  0  0  0.108426  0  0.996609  0  0.168883  0  0.13617  0.103834  0  1.00294  0
H  H43  1  0.26667252  0.70955211  0.32551102  1  0  0.094888  0  0.939864  0  0  0.105853  0  1.000238  0  0  0.10847  0  0.996576  0  0.168878  0  0.136175  0.103826  0  1.002972  0
C  C44  1  0.19283696  0.31173761  0.05495470  1  0  0.138025  0  3.701692  0  0  0.102949  0  3.961325  0  0  0.110682  0  3.978585  0  0.472922  0  0.050641  0.097962  0  3.949321  0
C  C45  1  0.69283567  0.68826240  0.44504468  1  0  0.13808  0  3.701663  0  0  0.103  0  3.961294  0  0  0.110733  0  3.978553  0  0.472937  0  0.050665  0.098012  0  3.949291  0
C  C46  1  0.80716302  0.68826156  0.94504447  1  0  0.138083  0  3.701632  0  0  0.103017  0  3.961263  0  0  0.11075  0  3.978521  0  0.471732  0  0.05066  0.09803  0  3.949259  0
C  C47  1  0.30716303  0.31173677  0.55495450  1  0  0.138108  0  3.701736  0  0  0.103026  0  3.961361  0  0  0.11076  0  3.978619  0  0.472951  0  0.050671  0.098039  0  3.949358  0
C  C48  1  0.33143135  0.24229889  0.05748154  1  0  -0.1152  0  3.719935  0  0  -0.130333  0  3.978939  0  0  -0.136876  0  3.999285  0  -0.073452  0  -0.079613  -0.12597  0  3.964879  0
C  C49  1  0.83143134  0.75770111  0.44251784  1  0  -0.115209  0  3.719936  0  0  -0.130336  0  3.978938  0  0  -0.136878  0  3.999279  0  -0.073436  0  -0.07961  -0.125975  0  3.964878  0
C  C50  1  0.66856862  0.75770111  0.94251784  1  0  -0.115189  0  3.719952  0  0  -0.130327  0  3.978946  0  0  -0.13687  0  3.999287  0  -0.07226  0  -0.079611  -0.125965  0  3.964886  0
C  C51  1  0.16856736  0.24229805  0.55748195  1  0  -0.115241  0  3.720031  0  0  -0.130383  0  3.979036  0  0  -0.136924  0  3.999376  0  -0.073474  0  -0.079613  -0.126021  0  3.964975  0
C  C52  1  0.32447698  0.12992042  0.00900669  1  0  -0.031305  0  3.691983  0  0  -0.058573  0  3.946488  0  0  -0.055839  0  3.963501  0  0.057557  0  -0.0623  -0.060136  0  3.934871  0
C  C53  1  0.82447697  0.87007959  0.49099331  1  0  -0.031316  0  3.692043  0  0  -0.058559  0  3.946564  0  0  -0.055824  0  3.963576  0  0.057536  0  -0.062291  -0.060121  0  3.934944  0
C  C54  1  0.67552427  0.87007959  0.99099269  1  0  -0.031319  0  3.692001  0  0  -0.058584  0  3.946507  0  0  -0.05585  0  3.963522  0  0.057552  0  -0.062298  -0.060151  0  3.9349  0
C  C55  1  0.17552301  0.12992042  0.50900669  1  0  -0.031279  0  3.692002  0  0  -0.058544  0  3.94651  0  0  -0.05581  0  3.963523  0  0.057534  0  -0.062298  -0.060111  0  3.934906  0
C  C56  1  0.17865050  0.08752578  0.95877403  1  0  -0.02311  0  3.787433  0  0  -0.011867  0  4.02186  0  0  -0.014342  0  4.044814  0  0.018934  0  0.00157  -0.0104  0  4.006482  0
C  C57  1  0.67865049  0.91247423  0.54122535  1  0  -0.023036  0  3.787281  0  0  -0.011844  0  4.021858  0  0  -0.01432  0  4.044813  0  0.018944  0  0.001598  -0.010378  0  4.006479  0
C  C58  1  0.82134948  0.91247507  0.04122617  1  0  -0.023053  0  3.787378  0  0  -0.011803  0  4.021858  0  0  -0.014278  0  4.044812  0  0.01895  0  0.001574  -0.010336  0  4.006478  0
C  C59  1  0.32134949  0.08752578  0.45877341  1  0  -0.023123  0  3.787352  0  0  -0.011898  0  4.021864  0  0  -0.014374  0  4.044819  0  0.018928  0  0.001566  -0.010431  0  4.006484  0
C  C60  1  0.15580133  0.97217563  0.90876607  1  0  0.076231  0  3.857759  0  0  0.070085  0  4.119901  0  0  0.070956  0  4.144235  0  0.455047  0  0.080476  0.0695  0  4.103448  0
C  C61  1  0.65580005  0.02782437  0.59123393  1  0  0.076336  0  3.8576  0  0  0.070116  0  4.119887  0  0  0.070987  0  4.144223  0  0.455082  0  0.080491  0.069531  0  4.103432  0
C  C62  1  0.84420119  0.02782437  0.09123517  1  0  0.076371  0  3.857661  0  0  0.070175  0  4.119902  0  0  0.071047  0  4.144237  0  0.455029  0  0.080522  0.06959  0  4.103446  0
C  C63  1  0.34419993  0.97217647  0.40876504  1  0  0.076345  0  3.857624  0  0  0.070149  0  4.119851  0  0  0.071021  0  4.144185  0  0.455112  0  0.080499  0.069564  0  4.103396  0
C  C64  1  0.00336189  0.93485165  0.86374340  1  0  0.089571  0  3.81508  0  0  0.071812  0  4.072348  0  0  0.073891  0  4.097468  0  0.334394  0  0.088061  0.070494  0  4.055371  0
C  C65  1  0.50336188  0.06514835  0.63625598  1  0  0.089537  0  3.815118  0  0  0.071794  0  4.072398  0  0  0.07387  0  4.097519  0  0.334379  0  0.088071  0.070474  0  4.055422  0
C  C66  1  0.99663808  0.06514751  0.13625763  1  0  0.089423  0  3.815035  0  0  0.071663  0  4.072367  0  0  0.073741  0  4.097489  0  0.33446  0  0.088039  0.070343  0  4.05539  0
C  C67  1  0.49663809  0.93485165  0.36374340  1  0  0.089471  0  3.815113  0  0  0.071744  0  4.072398  0  0  0.073821  0  4.09752  0  0.334384  0  0.08805  0.070425  0  4.055423  0
C  C68  1  0.86320054  0.00723516  0.86442772  1  0  -0.031208  0  3.795634  0  0  -0.019203  0  4.035228  0  0  -0.02202  0  4.057631  0  0.04578  0  0.001962  -0.017533  0  4.020177  0
C  C69  1  0.36320056  0.99276484  0.63557228  1  0  -0.031193  0  3.795632  0  0  -0.019185  0  4.035226  0  0  -0.022003  0  4.057629  0  0.045781  0  0.001964  -0.017517  0  4.020176  0
C  C70  1  0.13679943  0.99276316  0.13557311  1  0  -0.031126  0  3.795543  0  0  -0.019127  0  4.035177  0  0  -0.021944  0  4.057582  0  0.045698  0  0.001984  -0.017459  0  4.020132  0
C  C71  1  0.63679942  0.00723600  0.36442793  1  0  -0.03111  0  3.795598  0  0  -0.019145  0  4.035262  0  0  -0.02196  0  4.057664  0  0.045794  0  0.001969  -0.017477  0  4.020213  0
C  C72  1  0.70309588  0.97262500  0.82554953  1  0  -0.039224  0  3.656825  0  0  -0.063318  0  3.904566  0  0  -0.060385  0  3.919821  0  -0.028837  0  -0.06335  -0.065011  0  3.894305  0
C  C73  1  0.20309589  0.02737417  0.67445027  1  0  -0.03929  0  3.656913  0  0  -0.06339  0  3.904667  0  0  -0.060457  0  3.919922  0  -0.028834  0  -0.063382  -0.065084  0  3.894405  0
C  C74  1  0.29690282  0.02737417  0.17445027  1  0  -0.039226  0  3.657026  0  0  -0.063314  0  3.904768  0  0  -0.06038  0  3.920024  0  -0.028853  0  -0.06334  -0.065013  0  3.894502  0
C  C75  1  0.79690535  0.97262584  0.32555035  1  0  -0.039354  0  3.656961  0  0  -0.063447  0  3.904724  0  0  -0.060515  0  3.919979  0  -0.028827  0  -0.06339  -0.065139  0  3.894463  0
C  C76  1  0.57740892  0.05218739  0.83247042  1  0  -0.100492  0  3.721555  0  0  -0.115434  0  3.98025  0  0  -0.120939  0  4.000114  0  -0.010522  0  -0.0795  -0.111929  0  3.966913  0
C  C77  1  0.07740893  0.94781262  0.66752958  1  0  -0.100389  0  3.721603  0  0  -0.115322  0  3.980284  0  0  -0.120828  0  4.000149  0  -0.010533  0  -0.079463  -0.111822  0  3.966945  0
C  C78  1  0.42259106  0.94781262  0.16752896  1  0  -0.100439  0  3.721588  0  0  -0.115376  0  3.980275  0  0  -0.120882  0  4.000142  0  -0.010513  0  -0.079459  -0.111876  0  3.966941  0
C  C79  1  0.92259104  0.05218739  0.33247104  1  0  -0.100358  0  3.721638  0  0  -0.115276  0  3.980307  0  0  -0.120783  0  4.000177  0  -0.010545  0  -0.079433  -0.111776  0  3.96697  0
C  C80  1  0.61356043  0.16577452  0.87540559  1  0  0.14626  0  3.694347  0  0  0.113944  0  3.949689  0  0  0.122325  0  3.966408  0  0.505337  0  0.054897  0.108447  0  3.938371  0
C  C81  1  0.11356045  0.83422548  0.62459503  1  0  0.146242  0  3.694331  0  0  0.113923  0  3.949673  0  0  0.122302  0  3.96639  0  0.505333  0  0.054899  0.108426  0  3.938355  0
C  C82  1  0.38644081  0.83422464  0.12459483  1  0  0.146294  0  3.694287  0  0  0.113981  0  3.949623  0  0  0.122361  0  3.966342  0  0.505292  0  0.05491  0.108486  0  3.938304  0
C  C83  1  0.88643953  0.16577536  0.37540517  1  0  0.146249  0  3.694202  0  0  0.113926  0  3.949565  0  0  0.122306  0  3.966282  0  0.505293  0  0.054884  0.10843  0  3.938247  0
C  C84  1  0.88673763  0.12364362  0.91095786  1  0  0.147496  0  3.730607  0  0  0.137496  0  3.974903  0  0  0.142789  0  3.996219  0  0.49553  0  0.122375  0.133925  0  3.960543  0
C  C85  1  0.38673764  0.87635639  0.58904152  1  0  0.147507  0  3.73061  0  0  0.137518  0  3.974908  0  0  0.142813  0  3.996223  0  0.495513  0  0.122377  0.133947  0  3.960548  0
C  C86  1  0.11326362  0.87635387  0.08904152  1  0  0.147577  0  3.730571  0  0  0.13756  0  3.974923  0  0  0.142856  0  3.99624  0  0.495623  0  0.122387  0.133989  0  3.960562  0
C  C87  1  0.61326233  0.12364446  0.41095745  1  0  0.147461  0  3.730598  0  0  0.137463  0  3.974947  0  0  0.142756  0  3.996264  0  0.495506  0  0.122367  0.133893  0  3.960585  0
C  C88  1  0.04336067  0.16338660  0.95941700  1  0  0.130627  0  3.749469  0  0  0.1205  0  3.995186  0  0  0.125106  0  4.017235  0  0.500474  0  0.116147  0.117375  0  3.980283  0
C  C89  1  0.54336066  0.83661340  0.54058238  1  0  0.13056  0  3.749483  0  0  0.120414  0  3.99527  0  0  0.125021  0  4.017319  0  0.500478  0  0.11611  0.11729  0  3.980365  0
C  C90  1  0.95663930  0.83661172  0.04058197  1  0  0.130494  0  3.749506  0  0  0.120337  0  3.99529  0  0  0.124941  0  4.017342  0  0.500503  0  0.116112  0.117213  0  3.980385  0
C  C91  1  0.45663804  0.16338576  0.45941618  1  0  0.130611  0  3.749443  0  0  0.120477  0  3.9952  0  0  0.125084  0  4.017247  0  0.500463  0  0.116135  0.117352  0  3.980296  0
C  C92  1  0.18406851  0.79470760  0.84784466  1  0  0.257531  0  3.636939  0  0  0.202869  0  3.917521  0  0  0.216527  0  3.928075  0  0.986454  0  0.155026  0.194033  0  3.910186  0
C  C93  1  0.68406850  0.20529240  0.65215534  1  0  0.257511  0  3.637039  0  0  0.202837  0  3.917605  0  0  0.216497  0  3.928161  0  0.986454  0  0.155005  0.194002  0  3.910271  0
C  C94  1  0.81593146  0.20529240  0.15215596  1  0  0.257458  0  3.636985  0  0  0.202784  0  3.917578  0  0  0.216463  0  3.928145  0  0.986432  0  0.15501  0.193933  0  3.910233  0
C  C95  1  0.31593147  0.79470760  0.34784404  1  0  0.257408  0  3.637022  0  0  0.202739  0  3.917604  0  0  0.216398  0  3.92816  0  0.986437  0  0.154999  0.193903  0  3.910267  0
N  N96  1  0.05422727  0.27323100  0.00727038  1  0  -0.375521  0  3.290578  0  0  -0.307671  0  3.559308  0  0  -0.327671  0  3.578064  0  -1.25273  0  -0.327585  -0.293917  0  3.546238  0
N  N97  1  0.55422599  0.72676816  0.49272941  1  0  -0.375548  0  3.290589  0  0  -0.307677  0  3.55933  0  0  -0.327675  0  3.578083  0  -1.252749  0  -0.327591  -0.293922  0  3.546259  0
N  N98  1  0.94577398  0.72676816  0.99272941  1  0  -0.375547  0  3.290588  0  0  -0.307674  0  3.559321  0  0  -0.327674  0  3.578077  0  -1.252756  0  -0.327598  -0.293921  0  3.546251  0
N  N99  1  0.44577144  0.27323184  0.50726997  1  0  -0.375542  0  3.290579  0  0  -0.307681  0  3.559313  0  0  -0.327681  0  3.578066  0  -1.252719  0  -0.327602  -0.293926  0  3.546242  0
N  N100  1  0.76309022  0.19959683  0.91341079  1  0  -0.355723  0  3.258924  0  0  -0.286642  0  3.522243  0  0  -0.30631  0  3.53955  0  -1.231177  0  -0.319254  -0.273193  0  3.510322  0
N  N101  1  0.26309024  0.80040317  0.58658921  1  0  -0.355736  0  3.258891  0  0  -0.286648  0  3.5222  0  0  -0.306313  0  3.539504  0  -1.231149  0  -0.319259  -0.273198  0  3.510279  0
N  N102  1  0.23690975  0.80040317  0.08658921  1  0  -0.355785  0  3.258908  0  0  -0.28669  0  3.522231  0  0  -0.306358  0  3.539537  0  -1.231141  0  -0.319277  -0.27324  0  3.510309  0
N  N103  1  0.73690846  0.19959767  0.41341038  1  0  -0.355734  0  3.258792  0  0  -0.28665  0  3.522126  0  0  -0.306317  0  3.539434  0  -1.231131  0  -0.319247  -0.2732  0  3.510204  0
N  N104  1  0.26684068  0.88368226  0.89850506  1  0  -0.381885  0  2.941027  0  0  -0.351302  0  3.217361  0  0  -0.364828  0  3.232171  0  -1.165639  0  -0.335932  -0.342006  0  3.207116  0
N  N105  1  0.76684194  0.11631691  0.60149536  1  0  -0.381902  0  2.940937  0  0  -0.351281  0  3.217285  0  0  -0.364807  0  3.232096  0  -1.165674  0  -0.335926  -0.341986  0  3.20704  0
N  N106  1  0.73315930  0.11631691  0.10149536  1  0  -0.381903  0  2.940948  0  0  -0.351293  0  3.217294  0  0  -0.364818  0  3.232095  0  -1.165668  0  -0.335942  -0.341997  0  3.207054  0
N  N107  1  0.23315803  0.88368310  0.39850465  1  0  -0.381889  0  2.940921  0  0  -0.351279  0  3.217255  0  0  -0.364803  0  3.232065  0  -1.165677  0  -0.335939  -0.341982  0  3.207009  0
N  N108  1  0.02461228  0.82101758  0.82538636  1  0  -0.342177  0  3.396886  0  0  -0.280557  0  3.630937  0  0  -0.298949  0  3.646498  0  -1.270508  0  -0.378268  -0.268132  0  3.62033  0
N  N109  1  0.52461227  0.17898159  0.67461343  1  0  -0.342232  0  3.397062  0  0  -0.280571  0  3.631074  0  0  -0.298962  0  3.646635  0  -1.270507  0  -0.378287  -0.268149  0  3.62047  0
N  N110  1  0.97538769  0.17898243  0.17461426  1  0  -0.342078  0  3.396939  0  0  -0.280442  0  3.630989  0  0  -0.298834  0  3.646542  0  -1.27053  0  -0.378246  -0.268019  0  3.620388  0
N  N111  1  0.47538771  0.82101758  0.32538636  1  0  -0.342085  0  3.396964  0  0  -0.280454  0  3.630995  0  0  -0.298846  0  3.646559  0  -1.270523  0  -0.378248  -0.26803  0  3.620389  0
O  O112  1  0.04440657  0.45227978  0.91025216  1  0  -0.954917  0  1.581185  0  0  -0.925106  0  1.895934  0  0  -0.971785  0  1.880397  0  -0.984476  0  -0.623867  -0.890002  0  1.907812  0
O  O113  1  0.54440655  0.54772022  0.58974784  1  0  -0.95492  0  1.581196  0  0  -0.925099  0  1.895935  0  0  -0.971779  0  1.880399  0  -0.984425  0  -0.623871  -0.89  0  1.907814  0
O  O114  1  0.95559341  0.54772022  0.08974784  1  0  -0.954919  0  1.581227  0  0  -0.925115  0  1.895972  0  0  -0.971784  0  1.880439  0  -0.984446  0  -0.623874  -0.890014  0  1.907851  0
O  O115  1  0.45559342  0.45227978  0.41025216  1  0  -0.954952  0  1.58122  0  0  -0.925133  0  1.895975  0  0  -0.971816  0  1.880432  0  -0.984467  0  -0.623887  -0.890039  0  1.907847  0
O  O116  1  0.33823030  0.35551477  0.79939256  1  0  -1.00395  0  1.573089  0  0  -1.017162  0  1.864082  0  0  -1.061859  0  1.854961  0  -1.068226  0  -0.67849  -0.980124  0  1.873051  0
O  O117  1  0.83822901  0.64448439  0.70060600  1  0  -1.003936  0  1.573115  0  0  -1.017157  0  1.864116  0  0  -1.061857  0  1.854993  0  -1.068202  0  -0.678485  -0.980119  0  1.873084  0
O  O118  1  0.66176967  0.64448523  0.20060621  1  0  -1.00393  0  1.573108  0  0  -1.017157  0  1.864095  0  0  -1.061843  0  1.854977  0  -1.068213  0  -0.678494  -0.980114  0  1.873066  0
O  O119  1  0.16176968  0.35551561  0.29939400  1  0  -1.003936  0  1.573103  0  0  -1.017149  0  1.864098  0  0  -1.061859  0  1.85497  0  -1.068192  0  -0.678472  -0.980116  0  1.87306  0
O  O120  1  0.07648279  0.48829095  0.74440827  1  0  -1.01017  0  1.572209  0  0  -1.035702  0  1.883463  0  0  -1.084704  0  1.874484  0  -1.045157  0  -0.695917  -0.9951  0  1.893225  0
O  O121  1  0.57648405  0.51170821  0.75559090  1  0  -1.010198  0  1.572225  0  0  -1.035722  0  1.883484  0  0  -1.084718  0  1.874504  0  -1.045167  0  -0.695932  -0.99512  0  1.893247  0
O  O122  1  0.92351719  0.51170905  0.25559173  1  0  -1.010166  0  1.572214  0  0  -1.035713  0  1.883467  0  0  -1.084708  0  1.874486  0  -1.045152  0  -0.695919  -0.995111  0  1.893228  0
O  O123  1  0.42351593  0.48829179  0.24440910  1  0  -1.010222  0  1.572191  0  0  -1.035756  0  1.883455  0  0  -1.084758  0  1.874473  0  -1.045151  0  -0.695942  -0.995153  0  1.893219  0
O  O124  1  0.00879774  0.27575163  0.76332549  1  0  -0.733177  0  1.258395  0  0  -0.747819  0  1.503795  0  0  -0.777835  0  1.495131  0  -0.811435  0  -0.591131  -0.724884  0  1.513097  0
O  O125  1  0.50879646  0.72424837  0.73667451  1  0  -0.733144  0  1.258324  0  0  -0.747807  0  1.503749  0  0  -0.777823  0  1.495082  0  -0.811446  0  -0.591117  -0.724875  0  1.513051  0
O  O126  1  0.99120223  0.72424921  0.23667472  1  0  -0.733132  0  1.258367  0  0  -0.747797  0  1.503771  0  0  -0.777801  0  1.495114  0  -0.811448  0  -0.591103  -0.724863  0  1.513074  0
O  O127  1  0.49120097  0.27575163  0.26332549  1  0  -0.733184  0  1.258394  0  0  -0.747815  0  1.503804  0  0  -0.777835  0  1.495129  0  -0.811436  0  -0.591142  -0.724894  0  1.513106  0
O  O128  1  0.63692681  0.43487223  0.89898578  1  0  -0.867546  0  1.438335  0  0  -0.861279  0  1.730551  0  0  -0.89835  0  1.715555  0  -0.920863  0  -0.617443  -0.832375  0  1.743591  0
O  O129  1  0.13692682  0.56512778  0.60101484  1  0  -0.867514  0  1.438313  0  0  -0.861269  0  1.730532  0  0  -0.898336  0  1.715528  0  -0.920862  0  -0.617452  -0.832364  0  1.743572  0
O  O130  1  0.36307444  0.56512778  0.10101484  1  0  -0.86754  0  1.43835  0  0  -0.861294  0  1.730574  0  0  -0.898358  0  1.715568  0  -0.920858  0  -0.617449  -0.832383  0  1.743617  0
O  O131  1  0.86307188  0.43487223  0.39898516  1  0  -0.867544  0  1.438331  0  0  -0.861304  0  1.730557  0  0  -0.898371  0  1.71554  0  -0.92087  0  -0.617461  -0.832401  0  1.743592  0
O  O132  1  0.63285534  0.42296622  0.09414452  1  0  -0.885076  0  1.480335  0  0  -0.880836  0  1.779959  0  0  -0.919868  0  1.768345  0  -0.923007  0  -0.609763  -0.850261  0  1.789731  0
O  O133  1  0.13285280  0.57703379  0.40585795  1  0  -0.885119  0  1.480449  0  0  -0.88082  0  1.779959  0  0  -0.919894  0  1.768413  0  -0.923026  0  -0.609773  -0.850251  0  1.789721  0
O  O134  1  0.36714463  0.57703379  0.90585548  1  0  -0.885088  0  1.480348  0  0  -0.880836  0  1.779963  0  0  -0.919885  0  1.768379  0  -0.923008  0  -0.609769  -0.850268  0  1.78973  0
O  O135  1  0.86714717  0.42296622  0.59414266  1  0  -0.885134  0  1.480405  0  0  -0.88086  0  1.779952  0  0  -0.919928  0  1.768409  0  -0.923014  0  -0.609791  -0.850289  0  1.789718  0
