# generated using pymatgen
data_NiH24C26(S2N3)2
_symmetry_space_group_name_H-M   'P 1'
_cell_length_a   7.24652427
_cell_length_b   9.99556195
_cell_length_c   9.98968914
_cell_angle_alpha   111.66839364
_cell_angle_beta   99.98322449
_cell_angle_gamma   100.01130911
_symmetry_Int_Tables_number   1
_chemical_formula_structural   NiH24C26(S2N3)2
_chemical_formula_sum   'Ni1 H24 C26 S4 N6'
_cell_volume   639.51718031
_cell_formula_units_Z   1
loop_
 _symmetry_equiv_pos_site_id
 _symmetry_equiv_pos_as_xyz
  1  'x, y, z'
loop_
 _atom_site_type_symbol
 _atom_site_label
 _atom_site_symmetry_multiplicity
 _atom_site_fract_x
 _atom_site_fract_y
 _atom_site_fract_z
 _atom_site_occupancy
 _atom_site_pbe_cm5_charge
 _atom_site_pbe_ddec_charge
 _atom_site_pbe_ddec_spin_density
 _atom_site_pbe_ddec_sum_bond_order
 _atom_site_pbe_magmom
Ni  Ni0  1  0.50000158  0.49999904  0.49999990  1  0.63486  0.659025  -0.007033  2.698906  -0.006
H  H1  1  0.32934756  0.58587801  0.72007885  1  0.273687  0.258719  0.000213  1.026746  0.0
H  H2  1  0.67056429  0.27828932  0.41365910  1  0.273135  0.257885  -0.00019  1.027347  0.0
H  H3  1  0.67065499  0.41412232  0.27991970  1  0.273701  0.258768  0.000213  1.026699  0.0
H  H4  1  0.32943989  0.72170765  0.58634041  1  0.273142  0.257902  -0.00019  1.027367  0.0
H  H5  1  0.33909656  0.41073162  0.67441432  1  0.290197  0.272318  -0.000231  0.990751  -0.001
H  H6  1  0.66071498  0.32402703  0.58895096  1  0.290255  0.272945  0.000223  0.990193  0.001
H  H7  1  0.66090639  0.58926983  0.32558368  1  0.290239  0.272405  -0.000231  0.990705  -0.001
H  H8  1  0.33928755  0.67597329  0.41104958  1  0.290241  0.272924  0.000223  0.99021  0.001
H  H9  1  0.81114848  0.88098952  0.15439930  1  0.097636  0.102486  -0.000163  1.031876  0.0
H  H10  1  0.18803196  0.84448063  0.11846310  1  0.097027  0.102109  0.000159  1.032592  0.0
H  H11  1  0.18884807  0.11900971  0.84560006  1  0.097632  0.102478  -0.000163  1.031838  0.0
H  H12  1  0.81196255  0.15552084  0.88153782  1  0.097031  0.102138  0.000159  1.032624  0.0
H  H13  1  0.56519618  0.79581263  0.91671031  1  0.097936  0.106522  2.5e-05  1.02228  0.0
H  H14  1  0.43514436  0.08139089  0.20371263  1  0.097766  0.105575  -4.2e-05  1.022588  0.0
H  H15  1  0.43480319  0.20418660  0.08328741  1  0.097952  0.106532  2.5e-05  1.022269  0.0
H  H16  1  0.56485815  0.91860943  0.79629091  1  0.097795  0.105666  -4.2e-05  1.022626  0.0
H  H17  1  0.60518778  0.34396754  0.80838534  1  0.097084  0.099674  0.000178  1.049564  0.0
H  H18  1  0.39409401  0.19026771  0.65569847  1  0.09651  0.098496  -0.000181  1.050305  0.0
H  H19  1  0.39481194  0.65603279  0.19161584  1  0.097088  0.099683  0.000178  1.04951  0.0
H  H20  1  0.60590329  0.80973375  0.34430382  1  0.096463  0.098397  -0.000181  1.050289  0.0
H  H21  1  0.84927389  0.42810060  0.04555153  1  0.094776  0.09714  -3.1e-05  1.039353  0.0
H  H22  1  0.14927664  0.95362972  0.57151468  1  0.094671  0.097097  3.8e-05  1.038988  0.0
H  H23  1  0.15072482  0.57190086  0.95444893  1  0.09476  0.097091  -3.1e-05  1.039362  0.0
H  H24  1  0.85072003  0.04637397  0.42848735  1  0.094679  0.097044  3.8e-05  1.039033  0.0
C  C25  1  0.76653291  0.76304541  0.07879409  1  -0.092726  -0.114384  -0.005116  4.003094  -0.005
C  C26  1  0.23268699  0.91999471  0.23646884  1  -0.092496  -0.1151  0.004924  4.003546  0.005
C  C27  1  0.23346681  0.23695493  0.92120709  1  -0.092728  -0.114395  -0.005116  4.003  -0.005
C  C28  1  0.76730712  0.08000564  0.76353262  1  -0.092503  -0.115167  0.004923  4.003723  0.005
C  C29  1  0.62932415  0.71528438  0.94384841  1  -0.095071  -0.161889  0.014499  3.944562  0.01
C  C30  1  0.37047643  0.05460923  0.28427511  1  -0.095373  -0.160635  -0.013515  3.945187  -0.01
C  C31  1  0.37067598  0.28471707  0.05615123  1  -0.095094  -0.161873  0.014499  3.944616  0.01
C  C32  1  0.62952327  0.94539109  0.71572807  1  -0.095419  -0.160738  -0.013515  3.945393  -0.01
C  C33  1  0.56605388  0.56398744  0.84492718  1  0.086048  0.279076  -0.003612  4.010092  -0.005
C  C34  1  0.43372896  0.15361956  0.43560834  1  0.085255  0.277658  0.003469  4.013385  0.005
C  C35  1  0.43394726  0.43601288  0.15507318  1  0.08606  0.279057  -0.003612  4.010132  -0.005
C  C36  1  0.56627217  0.84638077  0.56439202  1  0.085279  0.277676  0.00347  4.013511  0.005
C  C37  1  0.65009482  0.46214961  0.88196726  1  -0.101974  -0.183334  0.016338  3.978047  0.012
C  C38  1  0.34913415  0.11677759  0.53744930  1  -0.101384  -0.182573  -0.015071  3.979281  -0.011
C  C39  1  0.34990173  0.53784961  0.11803210  1  -0.101999  -0.183333  0.016339  3.978037  0.012
C  C40  1  0.65086672  0.88322608  0.46255427  1  -0.101375  -0.182539  -0.015069  3.979316  -0.011
C  C41  1  0.78802257  0.50901205  0.01655062  1  -0.094836  -0.110741  -0.004608  4.022561  -0.005
C  C42  1  0.21077304  0.98246086  0.49054787  1  -0.094482  -0.110306  0.004468  4.024494  0.004
C  C43  1  0.21197857  0.49098828  0.98344874  1  -0.094801  -0.110638  -0.004608  4.02255  -0.005
C  C44  1  0.78922287  0.01754060  0.50945323  1  -0.094439  -0.110172  0.004469  4.024459  0.004
C  C45  1  0.84595160  0.65934077  0.11685489  1  -0.023523  0.031553  0.016733  4.04324  0.012
C  C46  1  0.15270426  0.88218736  0.34016153  1  -0.024277  0.03076  -0.015387  4.045136  -0.012
C  C47  1  0.15404675  0.34065957  0.88314411  1  -0.023488  0.03156  0.016735  4.043176  0.012
C  C48  1  0.84729101  0.11781633  0.65984132  1  -0.024275  0.030817  -0.015388  4.045082  -0.012
C  C49  1  0.07335921  0.32909505  0.32868617  1  0.148126  0.283025  -0.000229  4.292791  -0.001
C  C50  1  0.92667003  0.67090964  0.67132145  1  0.148084  0.28296  -0.000229  4.292572  -0.001
S  S51  1  0.99905126  0.70541762  0.29384415  1  0.028049  -0.022226  0.000502  2.876486  0.0
S  S52  1  0.00094465  0.29458384  0.70615695  1  0.02803  -0.022251  0.000502  2.876577  0.0
S  S53  1  0.85529037  0.22943627  0.22861776  1  -0.162705  -0.351844  -2.8e-05  2.293852  0.0
S  S54  1  0.14470992  0.77055738  0.77137402  1  -0.162602  -0.351647  -2.8e-05  2.294544  0.0
N  N55  1  0.42216899  0.51735200  0.71008995  1  -0.589305  -0.563831  0.075082  3.441241  0.068
N  N56  1  0.57779139  0.28819143  0.48224178  1  -0.58879  -0.564945  -0.071138  3.435828  -0.065
N  N57  1  0.57783496  0.48264833  0.28990877  1  -0.589348  -0.563943  0.075084  3.441313  0.068
N  N58  1  0.42221216  0.71180777  0.51775848  1  -0.588798  -0.564957  -0.071133  3.435869  -0.065
N  N59  1  0.23262740  0.39994484  0.39972305  1  -0.40863  -0.460746  -0.003797  3.420528  -0.003
N  N60  1  0.76735059  0.60004107  0.60026496  1  -0.408751  -0.460954  -0.003799  3.419939  -0.003
