# generated using pymatgen
data_H6RuC19N2O5F8
_symmetry_space_group_name_H-M   'P 1'
_cell_length_a   10.56763207
_cell_length_b   10.74820832
_cell_length_c   15.26456950
_cell_angle_alpha   89.85227384
_cell_angle_beta   67.55118058
_cell_angle_gamma   91.06720692
_symmetry_Int_Tables_number   1
_chemical_formula_structural   H6RuC19N2O5F8
_chemical_formula_sum   'H12 Ru2 C38 N4 O10 F16'
_cell_volume   1602.04581168
_cell_formula_units_Z   2
loop_
 _symmetry_equiv_pos_site_id
 _symmetry_equiv_pos_as_xyz
  1  'x, y, z'
loop_
 _atom_site_type_symbol
 _atom_site_label
 _atom_site_symmetry_multiplicity
 _atom_site_fract_x
 _atom_site_fract_y
 _atom_site_fract_z
 _atom_site_occupancy
 _atom_site_pbe_bader_charge
 _atom_site_pbe_bader_spin_density
 _atom_site_pbe_cm5_charge
 _atom_site_pbe_ddec_charge
 _atom_site_pbe_ddec_spin_density
 _atom_site_pbe_ddec_sum_bond_order
 _atom_site_pbe_magmom
H  H0  1  0.57700251  0.93603586  0.33063275  1  0.101071  1.5e-05  0.111714  0.137478  1.7e-05  1.01807  0.0
H  H1  1  0.42301442  0.06391561  0.66936370  1  0.100842  -1.5e-05  0.111836  0.137633  -1.7e-05  1.018078  0.0
H  H2  1  0.66536909  0.70958684  0.81331377  1  0.188324  5.6e-05  0.130013  0.182856  -2.6e-05  0.972504  0.0
H  H3  1  0.33465330  0.29043166  0.18667857  1  0.188432  -5.6e-05  0.130036  0.182882  2.6e-05  0.972535  0.0
H  H4  1  0.73564759  0.22251043  0.09546172  1  0.163355  7e-06  0.127726  0.179165  -3e-06  0.974391  0.0
H  H5  1  0.26433300  0.77751570  0.90453760  1  0.163175  -7e-06  0.127717  0.179074  3e-06  0.974657  0.0
H  H6  1  0.20613057  0.31400773  0.65885292  1  0.087656  5e-06  0.11622  0.126489  4e-06  0.958867  0.0
H  H7  1  0.79386824  0.68589397  0.34118662  1  0.08963  -5e-06  0.116128  0.126353  -4e-06  0.958747  0.0
H  H8  1  0.35754269  0.26763199  0.67600200  1  0.079398  2e-06  0.100757  0.106736  -1e-06  0.99946  0.0
H  H9  1  0.64246564  0.73226225  0.32402674  1  0.079165  -2e-06  0.10083  0.106699  1e-06  0.999435  0.0
H  H10  1  0.21459955  0.16036919  0.70244302  1  0.078852  -1e-06  0.098503  0.101682  -3e-06  1.007435  0.0
H  H11  1  0.78542098  0.83952106  0.29755916  1  0.078489  1e-06  0.098438  0.101621  4e-06  1.007843  0.0
Ru  Ru12  1  0.49071548  0.03198607  0.07487636  1  1.291269  -0.003472  0.790711  0.826082  -0.005285  4.028299  -0.003
Ru  Ru13  1  0.50928771  0.96803386  0.92511482  1  1.289024  0.003473  0.790751  0.826154  0.005286  4.028594  0.003
C  C14  1  0.57520701  0.22844446  0.93215961  1  1.558394  -0.00055  0.220051  0.577561  -0.000643  4.123045  -0.001
C  C15  1  0.42479295  0.77156898  0.06783573  1  1.558854  0.000548  0.219986  0.57755  0.000641  4.123312  0.001
C  C16  1  0.24644813  0.06799949  0.03390593  1  1.52834  -0.000159  0.218432  0.573627  -0.000221  4.128626  0.0
C  C17  1  0.75354396  0.93204815  0.96608636  1  1.529539  0.000158  0.218538  0.573721  0.000221  4.128433  0.0
C  C18  1  0.43642890  0.10798634  0.29229665  1  1.538738  0.001613  0.313362  0.43761  0.001833  4.242585  0.001
C  C19  1  0.56360031  0.89198398  0.70769851  1  1.537714  -0.001617  0.313074  0.43732  -0.001837  4.242113  -0.001
C  C20  1  0.60307215  0.35947810  0.89786321  1  0.050826  -6.2e-05  -0.02857  -0.216748  -8.4e-05  4.009974  0.0
C  C21  1  0.39692356  0.64053627  0.10213709  1  0.05015  6.2e-05  -0.028493  -0.216683  8.4e-05  4.009935  0.0
C  C22  1  0.10605098  0.10965003  0.05093607  1  0.113788  0.000159  -0.030621  -0.223579  0.000138  4.041671  0.0
C  C23  1  0.89394915  0.89037357  0.94905583  1  0.11457  -0.000159  -0.03063  -0.223817  -0.000138  4.041835  0.0
C  C24  1  0.66603420  0.44573343  0.93829962  1  0.582715  3.5e-05  0.094373  0.157139  4.8e-05  4.078655  0.0
C  C25  1  0.33395149  0.55428813  0.06169850  1  0.582727  -3.5e-05  0.094398  0.157111  -4.8e-05  4.078666  0.0
C  C26  1  0.56269252  0.40434108  0.82595017  1  0.52406  5.8e-05  0.100541  0.169021  7.5e-05  4.043817  0.0
C  C27  1  0.43728595  0.59568039  0.17405104  1  0.525031  -5.8e-05  0.100556  0.168967  -7.5e-05  4.044128  0.0
C  C28  1  0.00109755  0.10308902  0.14155910  1  0.594693  -7e-06  0.098708  0.1663  -1.1e-05  4.057903  0.0
C  C29  1  0.99891390  0.89692355  0.85842749  1  0.59374  7e-06  0.09847  0.166133  1.1e-05  4.057629  0.0
C  C30  1  0.07344254  0.15899565  0.97703389  1  0.552103  6e-06  0.094826  0.158547  2.1e-05  4.071058  0.0
C  C31  1  0.92654513  0.84103623  0.02296623  1  0.551321  -7e-06  0.094878  0.158749  -2.2e-05  4.070853  0.0
C  C32  1  0.45484301  0.06347409  0.43626505  1  0.551484  0.000205  0.125157  0.201751  0.000251  4.068018  0.0
C  C33  1  0.54517724  0.93650061  0.56372638  1  0.551843  -0.000202  0.125163  0.202155  -0.000249  4.067659  0.0
C  C34  1  0.69033186  0.56858532  0.90636796  1  0.608929  -9.6e-05  0.086075  0.178464  -0.000121  4.11089  0.0
C  C35  1  0.30967287  0.43144234  0.09363585  1  0.609247  9.6e-05  0.086144  0.178604  0.000121  4.110619  0.0
C  C36  1  0.58515235  0.52869520  0.79640831  1  0.580597  -5.7e-05  0.092941  0.18743  -5.2e-05  4.102209  0.0
C  C37  1  0.41483886  0.47132582  0.20360352  1  0.5805  5.7e-05  0.092983  0.187619  5.2e-05  4.101858  0.0
C  C38  1  0.87022057  0.14456758  0.15683778  1  0.481658  0.000131  0.091587  0.186877  0.000136  4.100243  0.0
C  C39  1  0.12979167  0.85544699  0.84315449  1  0.482312  -0.00013  0.091492  0.186782  -0.000136  4.100191  0.0
C  C40  1  0.94191464  0.19940364  0.99353960  1  0.534801  0.000191  0.085597  0.179267  0.000195  4.107325  0.0
C  C41  1  0.05808977  0.80064604  0.00644896  1  0.535381  -0.000191  0.085396  0.178758  -0.000195  4.107364  0.0
C  C42  1  0.54449014  0.96205110  0.40476102  1  0.030876  8.5e-05  -0.117961  -0.326366  9.3e-05  4.004546  0.0
C  C43  1  0.45552515  0.03791184  0.59525208  1  0.030858  -8.5e-05  -0.11799  -0.326519  -9.3e-05  4.003883  0.0
C  C44  1  0.41010480  0.10095763  0.53429872  1  0.508129  -8e-06  0.099017  0.203869  -5e-06  4.031641  0.0
C  C45  1  0.58990147  0.89900786  0.46571200  1  0.507096  1e-05  0.099025  0.203733  7e-06  4.032388  0.0
C  C46  1  0.65023800  0.61220624  0.83551036  1  -0.017719  -7.1e-05  -0.088753  -0.256006  -0.000139  3.969058  0.0
C  C47  1  0.34976902  0.38780829  0.16448583  1  -0.017396  7.1e-05  -0.088873  -0.256159  0.000139  3.96892  0.0
C  C48  1  0.83895588  0.19332021  0.08338734  1  0.081565  0.000102  -0.091299  -0.258439  0.000191  3.987706  0.0
C  C49  1  0.16104523  0.80669691  0.91660504  1  0.081838  -0.000102  -0.091253  -0.25813  -0.000191  3.987658  0.0
C  C50  1  0.27339173  0.23635204  0.65515084  1  0.348064  3e-06  -0.129955  -0.175832  1e-06  3.88611  0.0
C  C51  1  0.72660893  0.76356512  0.34486905  1  0.346575  -3e-06  -0.130057  -0.175748  -1e-06  3.886812  0.0
N  N52  1  0.45692622  0.09903056  0.21009612  1  -1.199726  0.001202  -0.406889  -0.494282  0.000962  3.2131  0.0
N  N53  1  0.54308970  0.90095817  0.78990341  1  -1.19956  -0.001204  -0.406737  -0.494033  -0.000966  3.212836  0.0
N  N54  1  0.40798647  0.12781429  0.37944613  1  -1.262981  0.002222  -0.287252  -0.309049  0.002104  3.455892  0.002
N  N55  1  0.59202366  0.87214900  0.62054400  1  -1.262507  -0.002226  -0.287167  -0.309188  -0.002108  3.455367  -0.002
O  O56  1  0.55395168  0.20704360  0.01932804  1  -1.077877  0.005097  -0.293605  -0.469028  0.005122  2.478875  0.004
O  O57  1  0.44605726  0.79297848  0.98067152  1  -1.07797  -0.005095  -0.293589  -0.469082  -0.005116  2.479218  -0.004
O  O58  1  0.29235490  0.08213090  0.09939607  1  -1.058768  0.002925  -0.28725  -0.453541  0.002876  2.441469  0.002
O  O59  1  0.70763424  0.91789426  0.90059197  1  -1.058581  -0.002929  -0.287248  -0.453502  -0.002881  2.441172  -0.002
O  O60  1  0.42831725  0.85532901  0.12611816  1  -1.061634  -0.004251  -0.287639  -0.439814  -0.004111  2.409131  -0.004
O  O61  1  0.57168969  0.14468090  0.87387941  1  -1.060973  0.004256  -0.287595  -0.439783  0.004114  2.409429  0.004
O  O62  1  0.68562383  0.98014938  0.04687499  1  -1.061422  -0.002676  -0.291511  -0.451696  -0.002773  2.483355  -0.002
O  O63  1  0.31437446  0.01989180  0.95311388  1  -1.059817  0.002682  -0.291446  -0.451705  0.002779  2.482771  0.002
O  O64  1  0.32446847  0.19763970  0.55817454  1  -1.053552  5.4e-05  -0.168248  -0.123525  5.9e-05  2.579361  0.0
O  O65  1  0.67553002  0.80231054  0.44182649  1  -1.054264  -5.3e-05  -0.168034  -0.123328  -5.9e-05  2.579758  0.0
F  F66  1  0.70529382  0.41293254  0.00941787  1  -0.619068  -0.000151  -0.081149  -0.101655  -0.000166  1.438049  0.0
F  F67  1  0.29469052  0.58707703  0.99058727  1  -0.619236  0.000151  -0.081116  -0.10152  0.000166  1.438275  0.0
F  F68  1  0.49597007  0.32955568  0.78622048  1  -0.623099  0.000269  -0.080775  -0.099233  0.000261  1.399571  0.0
F  F69  1  0.50396285  0.67046623  0.21380446  1  -0.623938  -0.00027  -0.080684  -0.09913  -0.000261  1.399669  0.0
F  F70  1  0.02337127  0.05287700  0.21528559  1  -0.609801  -0.000202  -0.083508  -0.094642  -0.000217  1.370537  0.0
F  F71  1  0.97661477  0.94712668  0.78470216  1  -0.609855  0.000202  -0.083362  -0.094544  0.000217  1.370243  0.0
F  F72  1  0.16931939  0.17128787  0.88828929  1  -0.617797  0.000334  -0.080407  -0.098349  0.000315  1.406495  0.0
F  F73  1  0.83067652  0.82877022  0.11170979  1  -0.617761  -0.000334  -0.080264  -0.098193  -0.000315  1.406485  0.0
F  F74  1  0.75232491  0.64644668  0.94822014  1  -0.638844  -0.000102  -0.091179  -0.111655  -9.2e-05  1.395358  0.0
F  F75  1  0.24769064  0.35357249  0.05176602  1  -0.638469  0.000102  -0.091283  -0.11188  9.2e-05  1.394955  0.0
F  F76  1  0.54023812  0.56772583  0.72932174  1  -0.614975  -2e-06  -0.089038  -0.109649  4e-06  1.339964  0.0
F  F77  1  0.45973658  0.43229965  0.27069805  1  -0.615017  2e-06  -0.089073  -0.109722  -4e-06  1.340022  0.0
F  F78  1  0.77203498  0.13444731  0.24506277  1  -0.625095  1e-06  -0.085721  -0.109439  -9e-06  1.371772  0.0
F  F79  1  0.22796918  0.86554097  0.75492657  1  -0.625359  -0.0  -0.085688  -0.109408  9e-06  1.371814  0.0
F  F80  1  0.91554822  0.24261881  0.91879738  1  -0.617476  2.6e-05  -0.095144  -0.115534  1e-05  1.355212  0.0
F  F81  1  0.08444684  0.75741774  0.08119561  1  -0.617208  -2.6e-05  -0.095095  -0.115433  -1e-05  1.355261  0.0
