# generated using pymatgen
data_Tl2H6C7(N2O)2
_symmetry_space_group_name_H-M   'P 1'
_cell_length_a   8.28593336
_cell_length_b   9.67488160
_cell_length_c   13.34709726
_cell_angle_alpha   89.99973903
_cell_angle_beta   90.00024349
_cell_angle_gamma   103.44538332
_symmetry_Int_Tables_number   1
_chemical_formula_structural   Tl2H6C7(N2O)2
_chemical_formula_sum   'Tl8 H24 C28 N16 O8'
_cell_volume   1040.64982775
_cell_formula_units_Z   4
loop_
 _symmetry_equiv_pos_site_id
 _symmetry_equiv_pos_as_xyz
  1  'x, y, z'
loop_
 _atom_site_type_symbol
 _atom_site_label
 _atom_site_symmetry_multiplicity
 _atom_site_fract_x
 _atom_site_fract_y
 _atom_site_fract_z
 _atom_site_occupancy
 _atom_site_pbe_bader_spin_density
 _atom_site_pbe_cm5_charge
 _atom_site_pbe_ddec_charge
 _atom_site_pbe_ddec_spin_density
 _atom_site_pbe_ddec_sum_bond_order
 _atom_site_pbe_magmom
Tl  Tl0  1  0.79461530  0.58216803  0.04518518  1  0  0.384923  0.599693  0  1.13102  0
Tl  Tl1  1  0.20538215  0.91783242  0.54518620  1  0  0.384919  0.599704  0  1.131031  0
Tl  Tl2  1  0.20538542  0.41783061  0.95481393  1  0  0.384907  0.599697  0  1.131014  0
Tl  Tl3  1  0.79461946  0.08217366  0.45481441  1  0  0.384919  0.599721  0  1.131015  0
Tl  Tl4  1  0.90026607  0.50471536  0.70998393  1  0  0.408557  0.625112  0  1.11862  0
Tl  Tl5  1  0.09972958  0.99528319  0.20998496  1  0  0.408566  0.625136  0  1.118614  0
Tl  Tl6  1  0.09973103  0.49528756  0.29001518  1  0  0.408563  0.625115  0  1.118607  0
Tl  Tl7  1  0.90026994  0.00471545  0.79001640  1  0  0.408552  0.625112  0  1.118625  0
H  H8  1  0.02803306  0.84516955  0.00395530  1  0  0.087242  0.077186  0  1.087085  0
H  H9  1  0.97196779  0.65482682  0.50395396  1  0  0.087213  0.077166  0  1.087132  0
H  H10  1  0.97196916  0.15483014  0.99604081  1  0  0.087222  0.077144  0  1.087145  0
H  H11  1  0.02803323  0.34517714  0.49604590  1  0  0.087229  0.077184  0  1.087116  0
H  H12  1  0.24335975  0.06842592  0.00074194  1  0  0.0991  0.100749  0  1.061473  0
H  H13  1  0.75664116  0.43157112  0.50074211  1  0  0.09909  0.100724  0  1.061594  0
H  H14  1  0.75664549  0.93157162  0.99925267  1  0  0.099058  0.100661  0  1.061543  0
H  H15  1  0.24335956  0.56843178  0.49925774  1  0  0.099072  0.100653  0  1.061653  0
H  H16  1  0.48024286  0.91270537  0.75168765  1  0  0.098388  0.092975  0  1.031514  0
H  H17  1  0.51974971  0.58729407  0.25169264  1  0  0.098378  0.092978  0  1.031491  0
H  H18  1  0.51976690  0.08728680  0.24831071  1  0  0.098415  0.09304  0  1.031539  0
H  H19  1  0.48024257  0.41271316  0.74831247  1  0  0.098404  0.093003  0  1.031572  0
H  H20  1  0.26928523  0.68607154  0.75723727  1  0  0.08846  0.087086  0  1.081788  0
H  H21  1  0.73070707  0.81392681  0.25723981  1  0  0.088483  0.087107  0  1.081835  0
H  H22  1  0.73071941  0.31392387  0.24276483  1  0  0.088504  0.087119  0  1.081781  0
H  H23  1  0.26928763  0.18607614  0.74276529  1  0  0.08847  0.087069  0  1.081762  0
H  H24  1  0.58823873  0.74831966  0.93350662  1  0  0.273417  0.332671  0  1.036601  0
H  H25  1  0.41176025  0.75168093  0.43350628  1  0  0.273426  0.332687  0  1.03658  0
H  H26  1  0.41176109  0.25167579  0.06649548  1  0  0.273427  0.332747  0  1.0365  0
H  H27  1  0.58823626  0.24831987  0.56649432  1  0  0.273446  0.332728  0  1.036516  0
H  H28  1  0.64424709  0.69830761  0.82511018  1  0  0.280165  0.346519  0  1.010208  0
H  H29  1  0.35575069  0.80169567  0.32511102  1  0  0.280185  0.346545  0  1.010167  0
H  H30  1  0.35575032  0.30169211  0.17489043  1  0  0.280175  0.346557  0  1.010151  0
H  H31  1  0.64424732  0.19830619  0.67489033  1  0  0.280156  0.346515  0  1.010212  0
C  C32  1  0.13229675  0.74429472  0.88286131  1  0  0.073291  0.337821  0  4.177833  0
C  C33  1  0.86770015  0.75570402  0.38285991  1  0  0.073248  0.337815  0  4.177925  0
C  C34  1  0.86770397  0.25570392  0.11713705  1  0  0.073308  0.337902  0  4.177939  0
C  C35  1  0.13230027  0.24429782  0.61714145  1  0  0.073246  0.337737  0  4.178009  0
C  C36  1  0.12766246  0.85920619  0.94872338  1  0  -0.1208  -0.238784  0  4.032612  0
C  C37  1  0.87234261  0.64079427  0.44872387  1  0  -0.120766  -0.238742  0  4.032475  0
C  C38  1  0.87234398  0.14079133  0.05127274  1  0  -0.120801  -0.23884  0  4.032708  0
C  C39  1  0.12765750  0.35921077  0.55127524  1  0  -0.120825  -0.238733  0  4.032375  0
C  C40  1  0.24846534  0.98518299  0.94662924  1  0  -0.097493  -0.119412  0  4.044672  0
C  C41  1  0.75153431  0.51481113  0.44662908  1  0  -0.097456  -0.119403  0  4.044683  0
C  C42  1  0.75154050  0.01481240  0.05336762  1  0  -0.097409  -0.11921  0  4.044474  0
C  C43  1  0.24846550  0.48519284  0.55337153  1  0  -0.097434  -0.119322  0  4.04461  0
C  C44  1  0.37930607  0.00722956  0.87678514  1  0  -0.032991  -0.026613  0  4.05894  0
C  C45  1  0.62069478  0.49276662  0.37678754  1  0  -0.032975  -0.026681  0  4.059082  0
C  C46  1  0.62070097  0.99276583  0.12321097  1  0  -0.032955  -0.026777  0  4.059143  0
C  C47  1  0.37930262  0.50723737  0.62321456  1  0  -0.032998  -0.026741  0  4.059131  0
C  C48  1  0.38094501  0.89824904  0.80713930  1  0  -0.092467  -0.094444  0  4.026203  0
C  C49  1  0.61904696  0.60174692  0.30714150  1  0  -0.092483  -0.094442  0  4.026019  0
C  C50  1  0.61906324  0.10174634  0.19286131  1  0  -0.092534  -0.094568  0  4.026359  0
C  C51  1  0.38094503  0.39825498  0.69286210  1  0  -0.092484  -0.0945  0  4.026324  0
C  C52  1  0.26143431  0.77082979  0.80972194  1  0  -0.123856  -0.260291  0  4.02451  0
C  C53  1  0.73856097  0.72916932  0.30972403  1  0  -0.123874  -0.260306  0  4.024483  0
C  C54  1  0.73857303  0.22916665  0.19027492  1  0  -0.123928  -0.260369  0  4.024652  0
C  C55  1  0.26143492  0.27083787  0.69027583  1  0  -0.12385  -0.260228  0  4.024577  0
C  C56  1  0.50958177  0.13701073  0.87963815  1  0  0.213554  0.256468  0  4.051722  0
C  C57  1  0.49041428  0.36298548  0.37964064  1  0  0.21358  0.256587  0  4.051665  0
C  C58  1  0.49042467  0.86298679  0.12036096  1  0  0.213582  0.256728  0  4.051636  0
C  C59  1  0.50958192  0.63701852  0.62036146  1  0  0.213582  0.256595  0  4.051718  0
N  N60  1  0.52370918  0.23949296  0.95063246  1  0  -0.207827  -0.274463  0  3.298132  0
N  N61  1  0.47628455  0.26050183  0.45063301  1  0  -0.207803  -0.274376  0  3.298109  0
N  N62  1  0.47629125  0.76050035  0.04936740  1  0  -0.207823  -0.274481  0  3.298214  0
N  N63  1  0.52371255  0.73950109  0.54936760  1  0  -0.207821  -0.2744  0  3.298195  0
N  N64  1  0.65904823  0.33944786  0.92590724  1  0  -0.086503  -0.074162  0  3.387926  0
N  N65  1  0.34094446  0.16054813  0.42590702  1  0  -0.086547  -0.074298  0  3.387924  0
N  N66  1  0.34094888  0.66055080  0.07409336  1  0  -0.086549  -0.074257  0  3.387968  0
N  N67  1  0.65905475  0.83945371  0.57409284  1  0  -0.086562  -0.074332  0  3.388017  0
N  N68  1  0.72637286  0.30087813  0.84436607  1  0  -0.101229  -0.115348  0  3.39613  0
N  N69  1  0.27362239  0.19912040  0.34436629  1  0  -0.101265  -0.115357  0  3.396084  0
N  N70  1  0.27362786  0.69912477  0.15563454  1  0  -0.101204  -0.115278  0  3.396139  0
N  N71  1  0.72637682  0.80088145  0.65563431  1  0  -0.101244  -0.115329  0  3.396119  0
N  N72  1  0.63476931  0.17400074  0.81255175  1  0  -0.224228  -0.308663  0  3.321787  0
N  N73  1  0.36522788  0.32599686  0.31255179  1  0  -0.224213  -0.308678  0  3.321597  0
N  N74  1  0.36523653  0.82599891  0.18744810  1  0  -0.224219  -0.308775  0  3.32181  0
N  N75  1  0.63476922  0.67400606  0.68744881  1  0  -0.224174  -0.308629  0  3.321618  0
O  O76  1  0.02562980  0.62053018  0.89025774  1  0  -0.335098  -0.572273  0  2.237018  0
O  O77  1  0.97436713  0.87946851  0.39025921  1  0  -0.335073  -0.572288  0  2.237043  0
O  O78  1  0.97437423  0.37946736  0.10974062  1  0  -0.335089  -0.57226  0  2.236956  0
O  O79  1  0.02562907  0.12053548  0.60974215  1  0  -0.335045  -0.572235  0  2.237045  0
O  O80  1  0.68454574  0.74238440  0.89016625  1  0  -0.58462  -0.771818  0  2.127299  0
O  O81  1  0.31545299  0.75761641  0.39016639  1  0  -0.584646  -0.771847  0  2.127234  0
O  O82  1  0.31545197  0.25760787  0.10983585  1  0  -0.584627  -0.77193  0  2.127192  0
O  O83  1  0.68454471  0.24238438  0.60983422  1  0  -0.584636  -0.771876  0  2.127261  0
