# generated using pymatgen
data_ZnH18C20N3O5
_symmetry_space_group_name_H-M   'P 1'
_cell_length_a   7.61198223
_cell_length_b   11.28107281
_cell_length_c   13.40393521
_cell_angle_alpha   63.01677882
_cell_angle_beta   72.51162739
_cell_angle_gamma   82.52532492
_symmetry_Int_Tables_number   1
_chemical_formula_structural   ZnH18C20N3O5
_chemical_formula_sum   'Zn2 H36 C40 N6 O10'
_cell_volume   978.27653968
_cell_formula_units_Z   2
loop_
 _symmetry_equiv_pos_site_id
 _symmetry_equiv_pos_as_xyz
  1  'x, y, z'
loop_
 _atom_site_type_symbol
 _atom_site_label
 _atom_site_symmetry_multiplicity
 _atom_site_fract_x
 _atom_site_fract_y
 _atom_site_fract_z
 _atom_site_occupancy
 _atom_site_hle17_bader_spin_density
 _atom_site_hle17_ddec_charge
 _atom_site_hle17_ddec_spin_density
 _atom_site_hle17_ddec_sum_bond_order
 _atom_site_hle17_magmom
 _atom_site_hse06_10hf_bader_spin_density
 _atom_site_hse06_10hf_ddec_charge
 _atom_site_hse06_10hf_ddec_spin_density
 _atom_site_hse06_10hf_ddec_sum_bond_order
 _atom_site_hse06_10hf_magmom
 _atom_site_hse06_bader_spin_density
 _atom_site_hse06_ddec_charge
 _atom_site_hse06_ddec_spin_density
 _atom_site_hse06_ddec_sum_bond_order
 _atom_site_hse06_magmom
 _atom_site_pbe_bader_spin_density
 _atom_site_pbe_cm5_charge
 _atom_site_pbe_ddec_charge
 _atom_site_pbe_ddec_spin_density
 _atom_site_pbe_ddec_sum_bond_order
 _atom_site_pbe_magmom
Zn  Zn0  1  0.32545386  0.39708192  0.76692882  1  0  1.056319  0  1.856024  0  0  0.879267  0  2.333404  0  0  0.927148  0  2.275565  0  0  0.690074  0.845581  0  2.373157  0
Zn  Zn1  1  0.67454539  0.60291812  0.23307078  1  0  1.056406  0  1.855882  0  0  0.879384  0  2.333236  0  0  0.927268  0  2.275396  0  0  0.690086  0.845691  0  2.372991  0
H  H2  1  0.16370617  0.64622904  0.03099911  1  0  0.116327  0  0.92404  0  0  0.126387  0  0.983607  0  0  0.13021  0  0.9794  0  0  0.115971  0.123804  0  0.986106  0
H  H3  1  0.83629449  0.35377500  0.96899805  1  0  0.116356  0  0.924085  0  0  0.126419  0  0.98364  0  0  0.130242  0  0.979434  0  0  0.115984  0.123835  0  0.986138  0
H  H4  1  0.17967722  0.49035447  0.23267065  1  0  0.116338  0  0.950952  0  0  0.124357  0  1.014882  0  0  0.128389  0  1.013651  0  0  0.108668  0.121506  0  1.015966  0
H  H5  1  0.82031930  0.50964757  0.76732791  1  0  0.11624  0  0.950976  0  0  0.124282  0  1.014886  0  0  0.12831  0  1.013667  0  0  0.108666  0.121435  0  1.015968  0
H  H6  1  0.31752966  0.26266669  0.26767603  1  0  0.090137  0  0.935493  0  0  0.10092  0  0.997461  0  0  0.104063  0  0.994077  0  0  0.12799  0.098551  0  0.999937  0
H  H7  1  0.68246962  0.73733735  0.73232135  1  0  0.090203  0  0.935527  0  0  0.100987  0  0.997474  0  0  0.104126  0  0.994094  0  0  0.128049  0.098618  0  0.999951  0
H  H8  1  0.46900239  0.12318257  0.20225181  1  0  0.097954  0  0.910182  0  0  0.115988  0  0.967112  0  0  0.117376  0  0.965168  0  0  0.120608  0.114877  0  0.968594  0
H  H9  1  0.53099822  0.87682044  0.79774723  1  0  0.097929  0  0.910156  0  0  0.115987  0  0.967096  0  0  0.117373  0  0.965154  0  0  0.120587  0.114875  0  0.968577  0
H  H10  1  0.54686240  0.16429408  0.05249407  1  0  0.107672  0  0.914663  0  0  0.122784  0  0.975735  0  0  0.123923  0  0.974809  0  0  0.124279  0.121902  0  0.976286  0
H  H11  1  0.45313959  0.83570893  0.94750475  1  0  0.107661  0  0.914652  0  0  0.122818  0  0.975718  0  0  0.123957  0  0.97479  0  0  0.124276  0.121935  0  0.976269  0
H  H12  1  0.47860410  0.91696354  0.12394084  1  0  0.116904  0  0.96722  0  0  0.126815  0  1.027472  0  0  0.130139  0  1.026371  0  0  0.103492  0.124363  0  1.028438  0
H  H13  1  0.52140340  0.08303948  0.87605708  1  0  0.116884  0  0.967245  0  0  0.126815  0  1.027466  0  0  0.130139  0  1.026365  0  0  0.103488  0.124362  0  1.028433  0
H  H14  1  0.24520527  0.75912344  0.15775525  1  0  0.098272  0  0.956397  0  0  0.107157  0  1.022431  0  0  0.110224  0  1.020492  0  0  0.099993  0.10505  0  1.02352  0
H  H15  1  0.75480500  0.24087763  0.84224219  1  0  0.098264  0  0.956389  0  0  0.107125  0  1.02248  0  0  0.110191  0  1.020542  0  0  0.099981  0.105019  0  1.023566  0
H  H16  1  0.81839907  0.04296383  0.18354232  1  0  0.107807  0  0.95589  0  0  0.116189  0  1.019458  0  0  0.120107  0  1.015896  0  0  0.103491  0.113366  0  1.022021  0
H  H17  1  0.18160423  0.95703021  0.81646031  1  0  0.107795  0  0.955892  0  0  0.116179  0  1.019464  0  0  0.1201  0  1.015897  0  0  0.103486  0.113356  0  1.022028  0
H  H18  1  0.04606902  0.19946822  0.15048675  1  0  0.097421  0  0.978495  0  0  0.10402  0  1.04561  0  0  0.106772  0  1.045147  0  0  0.097256  0.101952  0  1.046221  0
H  H19  1  0.95393163  0.80053184  0.84951187  1  0  0.097438  0  0.978542  0  0  0.104046  0  1.045639  0  0  0.106799  0  1.045176  0  0  0.097256  0.101979  0  1.046251  0
H  H20  1  0.61830374  0.63082984  0.56565595  1  0  0.107735  0  0.936769  0  0  0.120688  0  0.9896  0  0  0.123404  0  0.988098  0  0  0.121516  0.118633  0  0.990853  0
H  H21  1  0.38168309  0.36916818  0.43434639  1  0  0.107781  0  0.936939  0  0  0.120735  0  0.98975  0  0  0.123448  0  0.988246  0  0  0.121559  0.118671  0  0.991014  0
H  H22  1  0.90777062  0.56849037  0.41031324  1  0  0.12519  0  0.964214  0  0  0.134117  0  1.022799  0  0  0.137126  0  1.021461  0  0  0.124259  0.131873  0  1.024004  0
H  H23  1  0.09222035  0.43151161  0.58968773  1  0  0.125161  0  0.964288  0  0  0.134105  0  1.022852  0  0  0.137116  0  1.021511  0  0  0.124277  0.131862  0  1.02406  0
H  H24  1  0.57677889  0.22639742  0.64938159  1  0  0.108884  0  0.964749  0  0  0.115365  0  1.030841  0  0  0.118102  0  1.027551  0  0  0.139971  0.113305  0  1.033272  0
H  H25  1  0.42322034  0.77359964  0.35061910  1  0  0.108834  0  0.964737  0  0  0.115323  0  1.030829  0  0  0.118058  0  1.02754  0  0  0.139963  0.113263  0  1.03326  0
H  H26  1  0.04460484  0.32800577  0.44133950  1  0  0.060214  0  0.937278  0  0  0.077488  0  1.001273  0  0  0.077051  0  1.002507  0  0  0.104706  0.077731  0  1.000467  0
H  H27  1  0.95539159  0.67199718  0.55866173  1  0  0.060213  0  0.937256  0  0  0.077499  0  1.001234  0  0  0.077062  0  1.002467  0  0  0.104701  0.077746  0  1.000429  0
H  H28  1  0.87610101  0.33171367  0.37158332  1  0  0.09414  0  0.952816  0  0  0.107782  0  1.016623  0  0  0.109221  0  1.015599  0  0  0.109614  0.106513  0  1.017676  0
H  H29  1  0.12389817  0.66828335  0.62841889  1  0  0.094139  0  0.952811  0  0  0.107752  0  1.016657  0  0  0.109193  0  1.01563  0  0  0.109591  0.106484  0  1.017716  0
H  H30  1  0.73569589  0.12206077  0.53917589  1  0  0.070542  0  0.918749  0  0  0.092495  0  0.970373  0  0  0.09318  0  0.970455  0  0  0.095938  0.091885  0  0.97044  0
H  H31  1  0.26430727  0.87793710  0.46083059  1  0  0.070477  0  0.918724  0  0  0.092502  0  0.970325  0  0  0.093194  0  0.9704  0  0  0.095921  0.091892  0  0.970396  0
H  H32  1  0.89296117  0.11854321  0.61488886  1  0  0.071662  0  0.955793  0  0  0.08679  0  1.021556  0  0  0.086293  0  1.025174  0  0  0.091316  0.087057  0  1.019135  0
H  H33  1  0.10704208  0.88146069  0.38511316  1  0  0.071658  0  0.955633  0  0  0.086792  0  1.021477  0  0  0.086292  0  1.025098  0  0  0.091295  0.087074  0  1.019041  0
H  H34  1  0.99874922  0.10887744  0.37827597  1  0  0.070236  0  0.935647  0  0  0.089192  0  0.994909  0  0  0.089643  0  0.99618  0  0  0.09144  0.088743  0  0.99419  0
H  H35  1  0.00125670  0.89112144  0.62172969  1  0  0.070342  0  0.935647  0  0  0.089295  0  0.994892  0  0  0.089752  0  0.996152  0  0  0.09146  0.088846  0  0.994174  0
H  H36  1  0.15501227  0.10024465  0.45630795  1  0  0.05212  0  0.928859  0  0  0.073822  0  0.983794  0  0  0.074324  0  0.984018  0  0  0.085999  0.073353  0  0.983735  0
H  H37  1  0.84498809  0.89975418  0.54370013  1  0  0.052112  0  0.928912  0  0  0.073814  0  0.983833  0  0  0.074316  0  0.984056  0  0  0.086002  0.073347  0  0.983771  0
C  C38  1  0.27584582  0.61404906  0.83799194  1  0  0.658689  0  3.947448  0  0  0.609909  0  4.245859  0  0  0.644675  0  4.238477  0  0  0.196381  0.586235  0  4.250359  0
C  C39  1  0.72415487  0.38595104  0.16200517  1  0  0.658739  0  3.947437  0  0  0.609972  0  4.245857  0  0  0.644739  0  4.238475  0  0  0.196427  0.586297  0  4.250359  0
C  C40  1  0.27787680  0.50932655  0.95954110  1  0  -0.252241  0  3.710582  0  0  -0.230457  0  3.956825  0  0  -0.249617  0  3.980142  0  0  -0.030637  -0.21833  0  3.941534  0
C  C41  1  0.72211559  0.49067152  0.04045884  1  0  -0.25221  0  3.710577  0  0  -0.230448  0  3.956865  0  0  -0.24961  0  3.980188  0  0  -0.030632  -0.21832  0  3.941574  0
C  C42  1  0.21760887  0.54622680  0.04986766  1  0  0.042657  0  3.685195  0  0  0.004532  0  3.947898  0  0  0.017173  0  3.959072  0  0  -0.057121  -0.003145  0  3.939405  0
C  C43  1  0.78238902  0.45377425  0.95013105  1  0  0.042528  0  3.685159  0  0  0.004407  0  3.947883  0  0  0.017046  0  3.959062  0  0  -0.057143  -0.00327  0  3.939391  0
C  C44  1  0.22686525  0.45933654  0.16320322  1  0  -0.145313  0  3.761312  0  0  -0.166823  0  4.03988  0  0  -0.177009  0  4.058899  0  0  -0.099064  -0.160566  0  4.026785  0
C  C45  1  0.77313130  0.54066552  0.83679458  1  0  -0.145093  0  3.761155  0  0  -0.166619  0  4.039711  0  0  -0.176805  0  4.05873  0  0  -0.099066  -0.160363  0  4.026617  0
C  C46  1  0.29989050  0.33527970  0.18364721  1  0  0.101824  0  3.671422  0  0  0.055105  0  3.934148  0  0  0.066252  0  3.949842  0  0  0.054801  0.048292  0  3.923275  0
C  C47  1  0.70010600  0.66472232  0.81635211  1  0  0.101612  0  3.671483  0  0  0.054922  0  3.934228  0  0  0.066072  0  3.949916  0  0  0.054687  0.048108  0  3.923357  0
C  C48  1  0.34701170  0.37714207  0.98388140  1  0  0.473847  0  3.805074  0  0  0.427637  0  4.074702  0  0  0.454459  0  4.082264  0  0  0.223628  0.409794  0  4.069001  0
C  C49  1  0.65298343  0.62285599  0.01611885  1  0  0.473901  0  3.804988  0  0  0.427698  0  4.074645  0  0  0.45452  0  4.082207  0  0  0.223613  0.409854  0  4.068943  0
C  C50  1  0.42418815  0.15945810  0.12280460  1  0  -0.036508  0  3.619325  0  0  -0.110263  0  3.877992  0  0  -0.104223  0  3.885146  0  0  -0.0445  -0.114119  0  3.872969  0
C  C51  1  0.57581243  0.84054390  0.87719556  1  0  -0.036409  0  3.619073  0  0  -0.110316  0  3.877882  0  0  -0.104273  0  3.88503  0  0  -0.044473  -0.114168  0  3.872858  0
C  C52  1  0.27999148  0.06891836  0.13603589  1  0  0.086832  0  3.727869  0  0  0.105007  0  3.970091  0  0  0.106311  0  3.99323  0  0  -0.006438  0.10417  0  3.954339  0
C  C53  1  0.72001052  0.93108368  0.86396253  1  0  0.086805  0  3.727761  0  0  0.10513  0  3.969836  0  0  0.106432  0  3.992977  0  0  -0.006398  0.104293  0  3.954085  0
C  C54  1  0.33380691  0.94500840  0.13635300  1  0  -0.130405  0  3.719644  0  0  -0.148716  0  3.969483  0  0  -0.153821  0  3.990872  0  0  -0.09356  -0.145283  0  3.955027  0
C  C55  1  0.66619645  0.05499362  0.86364596  1  0  -0.130419  0  3.719577  0  0  -0.148762  0  3.969381  0  0  -0.153867  0  3.99077  0  0  -0.093601  -0.145329  0  3.954927  0
C  C56  1  0.20243553  0.85596141  0.15587030  1  0  -0.068984  0  3.744205  0  0  -0.09509  0  3.997608  0  0  -0.093586  0  4.017561  0  0  -0.089015  -0.095846  0  3.983927  0
C  C57  1  0.79757610  0.14403866  0.84412729  1  0  -0.068898  0  3.744164  0  0  -0.095049  0  3.997618  0  0  -0.093544  0  4.017571  0  0  -0.089005  -0.095803  0  3.983939  0
C  C58  1  0.01520551  0.88985924  0.17412603  1  0  -0.08361  0  3.796513  0  0  -0.058822  0  4.024623  0  0  -0.068867  0  4.04977  0  0  -0.0272  -0.052548  0  4.008005  0
C  C59  1  0.98480337  0.11013587  0.82587307  1  0  -0.083728  0  3.796672  0  0  -0.058883  0  4.024713  0  0  -0.068928  0  4.049859  0  0  -0.027113  -0.052615  0  4.008106  0
C  C60  1  0.96286194  0.01512057  0.17051027  1  0  -0.052167  0  3.732095  0  0  -0.07478  0  3.974733  0  0  -0.073222  0  3.994034  0  0  -0.082824  -0.075647  0  3.961973  0
C  C61  1  0.03714282  0.98487553  0.82948914  1  0  -0.052029  0  3.732095  0  0  -0.074665  0  3.97471  0  0  -0.073107  0  3.994012  0  0  -0.082804  -0.075531  0  3.961953  0
C  C62  1  0.09382418  0.10357600  0.15184736  1  0  -0.131993  0  3.753671  0  0  -0.152628  0  4.006023  0  0  -0.157078  0  4.027215  0  0  -0.099495  -0.149843  0  3.992008  0
C  C63  1  0.90617781  0.89642305  0.84815216  1  0  -0.132037  0  3.75374  0  0  -0.152711  0  4.00604  0  0  -0.157162  0  4.027234  0  0  -0.099506  -0.149926  0  3.992025  0
C  C64  1  0.86923209  0.79651158  0.19892407  1  0  0.628298  0  3.929627  0  0  0.583722  0  4.211903  0  0  0.617912  0  4.205711  0  0  0.195388  0.560636  0  4.215253  0
C  C65  1  0.13077548  0.20348655  0.80107265  1  0  0.628291  0  3.929868  0  0  0.583733  0  4.212067  0  0  0.617925  0  4.205874  0  0  0.195377  0.56065  0  4.215417  0
C  C66  1  0.65602884  0.53726814  0.56065498  1  0  0.002013  0  3.757887  0  0  -0.034337  0  4.030453  0  0  -0.032178  0  4.050282  0  0  -0.004032  -0.035745  0  4.017102  0
C  C67  1  0.34396216  0.46272695  0.43934627  1  0  0.002029  0  3.75783  0  0  -0.034315  0  4.030385  0  0  -0.032154  0  4.05021  0  0  -0.004027  -0.035712  0  4.017035  0
C  C68  1  0.79945478  0.50785331  0.48446536  1  0  -0.079435  0  3.690796  0  0  -0.121311  0  3.959167  0  0  -0.120123  0  3.977151  0  0  -0.002233  -0.122097  0  3.947239  0
C  C69  1  0.20053348  0.49214871  0.51553454  1  0  -0.079293  0  3.69079  0  0  -0.121174  0  3.959112  0  0  -0.119983  0  3.977093  0  0  -0.002157  -0.121962  0  3.947183  0
C  C70  1  0.62915700  0.32719772  0.60606231  1  0  0.166863  0  3.657502  0  0  0.103984  0  3.921941  0  0  0.117802  0  3.93528  0  0  0.146869  0.095051  0  3.912658  0
C  C71  1  0.37084223  0.67279834  0.39393875  1  0  0.167019  0  3.657473  0  0  0.104119  0  3.921927  0  0  0.117943  0  3.935258  0  0  0.146911  0.095185  0  3.912645  0
C  C72  1  0.90283316  0.29935543  0.45648533  1  0  -0.002612  0  3.614635  0  0  -0.065464  0  3.872549  0  0  -0.061347  0  3.883862  0  0  -0.055227  -0.068068  0  3.864812  0
C  C73  1  0.09716738  0.70064157  0.54351742  1  0  -0.002648  0  3.614589  0  0  -0.065459  0  3.872542  0  0  -0.061342  0  3.883857  0  0  -0.055214  -0.068079  0  3.864834  0
C  C74  1  0.87670869  0.14959190  0.52750042  1  0  -0.127984  0  3.6958  0  0  -0.169027  0  3.959043  0  0  -0.170295  0  3.973201  0  0  -0.161693  -0.167963  0  3.949098  0
C  C75  1  0.12329176  0.85040601  0.47250499  1  0  -0.127743  0  3.695364  0  0  -0.168967  0  3.958786  0  0  -0.170238  0  3.972957  0  0  -0.161663  -0.167909  0  3.94884  0
C  C76  1  0.01310196  0.07535226  0.46652266  1  0  -0.096693  0  3.68685  0  0  -0.134515  0  3.947142  0  0  -0.135459  0  3.962223  0  0  -0.161251  -0.133566  0  3.936535  0
C  C77  1  0.98689982  0.92465057  0.53348298  1  0  -0.096983  0  3.686908  0  0  -0.134725  0  3.947217  0  0  -0.13567  0  3.962298  0  0  -0.161275  -0.133778  0  3.936611  0
N  N78  1  0.35723868  0.29563046  0.09733655  1  0  -0.126354  0  3.487668  0  0  -0.031703  0  3.700807  0  0  -0.051163  0  3.725086  0  0  -0.225536  -0.019016  0  3.684175  0
N  N79  1  0.64275781  0.70436957  0.90266350  1  0  -0.126386  0  3.487596  0  0  -0.031767  0  3.700846  0  0  -0.051225  0  3.725119  0  0  -0.225522  -0.01908  0  3.684215  0
N  N80  1  0.55077969  0.42374292  0.63563967  1  0  -0.395859  0  3.350313  0  0  -0.315536  0  3.653054  0  0  -0.336895  0  3.666746  0  0  -0.364532  -0.301082  0  3.643545  0
N  N81  1  0.44921267  0.57625414  0.36436139  1  0  -0.396061  0  3.350389  0  0  -0.315747  0  3.653174  0  0  -0.337108  0  3.666862  0  0  -0.364614  -0.301291  0  3.643657  0
N  N82  1  0.78065456  0.37438213  0.51501238  1  0  -0.055193  0  3.546295  0  0  0.041891  0  3.762995  0  0  0.027397  0  3.788882  0  0  -0.238584  0.051442  0  3.745331  0
N  N83  1  0.21934055  0.62561691  0.48498825  1  0  -0.055311  0  3.546526  0  0  0.041782  0  3.763222  0  0  0.027286  0  3.789109  0  0  -0.238641  0.05134  0  3.745562  0
O  O84  1  0.27247835  0.73284173  0.81980666  1  0  -0.599559  0  1.910873  0  0  -0.5643  0  2.13973  0  0  -0.586546  0  2.130357  0  0  -0.325008  -0.548616  0  2.145649  0
O  O85  1  0.72752372  0.26715838  0.18019022  1  0  -0.599591  0  1.910934  0  0  -0.564317  0  2.139772  0  0  -0.586564  0  2.1304  0  0  -0.325005  -0.548635  0  2.145695  0
O  O86  1  0.27734004  0.57718535  0.75913420  1  0  -0.672944  0  2.069502  0  0  -0.602068  0  2.344718  0  0  -0.629892  0  2.326793  0  0  -0.346153  -0.58238  0  2.356396  0
O  O87  1  0.72265788  0.42281572  0.24086374  1  0  -0.67295  0  2.069372  0  0  -0.602117  0  2.344628  0  0  -0.629939  0  2.326704  0  0  -0.346192  -0.582427  0  2.356307  0
O  O88  1  0.40386280  0.32548108  0.91295543  1  0  -0.582804  0  2.119086  0  0  -0.515772  0  2.391607  0  0  -0.541748  0  2.380994  0  0  -0.305334  -0.497527  0  2.397908  0
O  O89  1  0.59612679  0.67451595  0.08704683  1  0  -0.582804  0  2.11899  0  0  -0.51577  0  2.391538  0  0  -0.541752  0  2.380935  0  0  -0.305304  -0.497524  0  2.397837  0
O  O90  1  0.70258479  0.83046598  0.21528534  1  0  -0.623981  0  1.947371  0  0  -0.57207  0  2.174715  0  0  -0.596405  0  2.165237  0  0  -0.31906  -0.555087  0  2.180606  0
O  O91  1  0.29742136  0.16953310  0.78471275  1  0  -0.624049  0  1.947598  0  0  -0.572147  0  2.174921  0  0  -0.596483  0  2.165446  0  0  -0.319106  -0.55516  0  2.180802  0
O  O92  1  0.91860639  0.67878464  0.20510742  1  0  -0.662272  0  2.000794  0  0  -0.589747  0  2.262069  0  0  -0.619224  0  2.248025  0  0  -0.335177  -0.569212  0  2.271039  0
O  O93  1  0.08140526  0.32121247  0.79489050  1  0  -0.662162  0  2.000877  0  0  -0.589647  0  2.262152  0  0  -0.619125  0  2.248107  0  0  -0.335155  -0.569115  0  2.271123  0
