# generated using pymatgen
data_RbH4C8N2(ClO2)2
_symmetry_space_group_name_H-M   'P 1'
_cell_length_a   6.44114118
_cell_length_b   9.62494544
_cell_length_c   18.05085693
_cell_angle_alpha   90.00038009
_cell_angle_beta   89.99969634
_cell_angle_gamma   89.99991275
_symmetry_Int_Tables_number   1
_chemical_formula_structural   RbH4C8N2(ClO2)2
_chemical_formula_sum   'Rb4 H16 C32 N8 Cl8 O16'
_cell_volume   1119.07429135
_cell_formula_units_Z   4
loop_
 _symmetry_equiv_pos_site_id
 _symmetry_equiv_pos_as_xyz
  1  'x, y, z'
loop_
 _atom_site_type_symbol
 _atom_site_label
 _atom_site_symmetry_multiplicity
 _atom_site_fract_x
 _atom_site_fract_y
 _atom_site_fract_z
 _atom_site_occupancy
 _atom_site_pbe_bader_spin_density
 _atom_site_pbe_cm5_charge
 _atom_site_pbe_ddec_charge
 _atom_site_pbe_ddec_spin_density
 _atom_site_pbe_ddec_sum_bond_order
 _atom_site_pbe_magmom
Rb  Rb0  1  0.59757733  0.48066949  0.34648578  1  0  0.699848  0.86185  0  0.707017  0
Rb  Rb1  1  0.40242485  0.48067046  0.65351128  1  0  0.699828  0.861846  0  0.707011  0
Rb  Rb2  1  0.09757415  0.51933164  0.15351155  1  0  0.699852  0.861847  0  0.707034  0
Rb  Rb3  1  0.90242794  0.51932927  0.84648675  1  0  0.699831  0.861862  0  0.707007  0
H  H4  1  0.21347681  0.40241239  0.47696568  1  0  0.293031  0.380423  0  0.955167  0
H  H5  1  0.78652089  0.40241134  0.52303220  1  0  0.293069  0.380484  0  0.955061  0
H  H6  1  0.71347677  0.59758758  0.02303087  1  0  0.293064  0.38047  0  0.955074  0
H  H7  1  0.28652205  0.59758539  0.97696715  1  0  0.293042  0.380442  0  0.955133  0
H  H8  1  0.21562066  0.56663151  0.47710447  1  0  0.291005  0.381066  0  0.959816  0
H  H9  1  0.78438444  0.56663046  0.52289400  1  0  0.291033  0.3811  0  0.959761  0
H  H10  1  0.71561943  0.43336846  0.02289208  1  0  0.291018  0.38105  0  0.95983  0
H  H11  1  0.28438286  0.43336628  0.97710647  1  0  0.29106  0.38113  0  0.959701  0
H  H12  1  0.60823998  0.52163675  0.13943750  1  0  0.283598  0.395789  0  0.939324  0
H  H13  1  0.39176522  0.52163925  0.86056081  1  0  0.283608  0.39576  0  0.939357  0
H  H14  1  0.10824158  0.47836229  0.36056092  1  0  0.283581  0.395762  0  0.939353  0
H  H15  1  0.89176371  0.47836361  0.63943613  1  0  0.283615  0.395845  0  0.939243  0
H  H16  1  0.56459813  0.64803468  0.18862103  1  0  0.280906  0.35546  0  0.989624  0
H  H17  1  0.43540677  0.64803756  0.81137773  1  0  0.280875  0.355419  0  0.989681  0
H  H18  1  0.06460230  0.35196649  0.31137581  1  0  0.280886  0.355477  0  0.989607  0
H  H19  1  0.93540482  0.35196733  0.68862023  1  0  0.280909  0.355501  0  0.989561  0
C  C20  1  0.78825820  0.82690579  0.45330441  1  0  0.120673  0.295093  0  4.147667  0
C  C21  1  0.21175407  0.82690666  0.54669443  1  0  0.120709  0.29502  0  4.147627  0
C  C22  1  0.28824962  0.17309411  0.04669976  1  0  0.120673  0.294865  0  4.148009  0
C  C23  1  0.71174238  0.17309430  0.95330507  1  0  0.120748  0.295039  0  4.147803  0
C  C24  1  0.76039298  0.90852850  0.52071579  1  0  -0.007444  -0.096492  0  4.062248  0
C  C25  1  0.23960824  0.90853163  0.47928279  1  0  -0.007495  -0.096672  0  4.062566  0
C  C26  1  0.26039524  0.09147345  0.97929137  1  0  -0.007416  -0.096529  0  4.062527  0
C  C27  1  0.73959850  0.09147351  0.02071039  1  0  -0.007424  -0.096558  0  4.062292  0
C  C28  1  0.76119039  0.05404676  0.51952042  1  0  -0.008599  -0.101112  0  4.06417  0
C  C29  1  0.23881120  0.05404679  0.48048066  1  0  -0.00853  -0.100898  0  4.063992  0
C  C30  1  0.26119227  0.94595415  0.98048453  1  0  -0.00855  -0.100985  0  4.063927  0
C  C31  1  0.73879955  0.94594796  0.01951252  1  0  -0.008526  -0.101087  0  4.063755  0
C  C32  1  0.78734766  0.13310547  0.45097143  1  0  0.119563  0.298424  0  4.143976  0
C  C33  1  0.21263977  0.13310950  0.54903214  1  0  0.119362  0.298199  0  4.144102  0
C  C34  1  0.28735147  0.86689442  0.04903274  1  0  0.119443  0.298308  0  4.144011  0
C  C35  1  0.71263742  0.86689251  0.95096846  1  0  0.119363  0.298351  0  4.144087  0
C  C36  1  0.80475201  0.04977366  0.38302214  1  0  0.003041  -0.024834  0  4.02065  0
C  C37  1  0.19524648  0.04976919  0.61697615  1  0  0.003074  -0.024607  0  4.02061  0
C  C38  1  0.30475307  0.95023452  0.11698643  1  0  0.003092  -0.024716  0  4.02081  0
C  C39  1  0.69524029  0.95023490  0.88301895  1  0  0.003041  -0.024792  0  4.020884  0
C  C40  1  0.80731270  0.90692346  0.38429895  1  0  0.005134  -0.020403  0  4.033528  0
C  C41  1  0.19269939  0.90693249  0.61570350  1  0  0.005063  -0.02038  0  4.033648  0
C  C42  1  0.30730483  0.09307537  0.11570685  1  0  0.005214  -0.02018  0  4.033673  0
C  C43  1  0.69268735  0.09307057  0.88429271  1  0  0.00514  -0.020265  0  4.033872  0
C  C44  1  0.71662704  0.83349058  0.58635192  1  0  0.184158  0.269069  0  4.019472  0
C  C45  1  0.28337901  0.83349701  0.41364640  1  0  0.184077  0.268966  0  4.019432  0
C  C46  1  0.21662545  0.16650311  0.91365145  1  0  0.184092  0.269043  0  4.01918  0
C  C47  1  0.78336812  0.16650393  0.08635280  1  0  0.184029  0.268928  0  4.019485  0
C  C48  1  0.72135216  0.13289958  0.58401227  1  0  0.187185  0.27789  0  4.022872  0
C  C49  1  0.27864304  0.13290084  0.41599186  1  0  0.187102  0.277775  0  4.023011  0
C  C50  1  0.22135517  0.86710034  0.91599607  1  0  0.187024  0.27765  0  4.022884  0
C  C51  1  0.77864148  0.86709594  0.08400624  1  0  0.187046  0.277788  0  4.02273  0
N  N52  1  0.67593207  0.76802042  0.63897649  1  0  -0.311564  -0.354351  0  2.807285  0
N  N53  1  0.32409431  0.76802408  0.36102381  1  0  -0.311446  -0.354171  0  2.807152  0
N  N54  1  0.17592646  0.23197123  0.86102363  1  0  -0.31146  -0.354256  0  2.806917  0
N  N55  1  0.82407318  0.23197370  0.13897752  1  0  -0.311432  -0.354162  0  2.807143  0
N  N56  1  0.68514694  0.20261875  0.63546483  1  0  -0.321155  -0.374718  0  2.868817  0
N  N57  1  0.31485432  0.20262246  0.36454120  1  0  -0.321041  -0.374603  0  2.86892  0
N  N58  1  0.18514932  0.79737704  0.86454247  1  0  -0.320989  -0.374518  0  2.868792  0
N  N59  1  0.81484750  0.79737637  0.13545737  1  0  -0.321031  -0.374619  0  2.868912  0
Cl  Cl60  1  0.81753131  0.13726871  0.30114307  1  0  0.063685  0.005866  0  1.848041  0
Cl  Cl61  1  0.18246077  0.13726838  0.69885720  1  0  0.063659  0.005719  0  1.847906  0
Cl  Cl62  1  0.31754066  0.86273219  0.19886215  1  0  0.063666  0.005801  0  1.848099  0
Cl  Cl63  1  0.68246221  0.86272845  0.80113903  1  0  0.06368  0.005823  0  1.847975  0
Cl  Cl64  1  0.82794173  0.81434581  0.30455407  1  0  0.065673  0.010445  0  1.844364  0
Cl  Cl65  1  0.17207212  0.81434961  0.69544085  1  0  0.065719  0.010447  0  1.844546  0
Cl  Cl66  1  0.32793091  0.18565508  0.19544947  1  0  0.065652  0.010359  0  1.8445  0
Cl  Cl67  1  0.67207038  0.18565036  0.80455651  1  0  0.065683  0.01042  0  1.84465  0
O  O68  1  0.78789040  0.69651232  0.45321166  1  0  -0.298982  -0.447361  0  2.237143  0
O  O69  1  0.21212837  0.69651216  0.54678394  1  0  -0.299019  -0.447304  0  2.237034  0
O  O70  1  0.28787377  0.30348758  0.04679361  1  0  -0.299109  -0.447356  0  2.237099  0
O  O71  1  0.71211950  0.30348673  0.95321223  1  0  -0.299034  -0.447297  0  2.237088  0
O  O72  1  0.78749812  0.26350829  0.44987532  1  0  -0.306156  -0.454238  0  2.221582  0
O  O73  1  0.21247350  0.26351232  0.55012429  1  0  -0.305995  -0.45418  0  2.221622  0
O  O74  1  0.28750531  0.73649161  0.05013051  1  0  -0.306086  -0.454177  0  2.221652  0
O  O75  1  0.71247456  0.73648760  0.94987133  1  0  -0.306052  -0.45425  0  2.221605  0
O  O76  1  0.23523707  0.48429005  0.44515845  1  0  -0.637581  -0.80292  0  2.042537  0
O  O77  1  0.76476665  0.48429046  0.55484083  1  0  -0.637654  -0.803011  0  2.042485  0
O  O78  1  0.73523674  0.51570990  0.05483862  1  0  -0.637649  -0.802961  0  2.042473  0
O  O79  1  0.26476846  0.51570733  0.94515857  1  0  -0.63764  -0.803005  0  2.042496  0
O  O80  1  0.55228210  0.54693074  0.18928177  1  0  -0.706021  -0.854966  0  1.976189  0
O  O81  1  0.44771682  0.54693256  0.81071497  1  0  -0.706011  -0.854914  0  1.976242  0
O  O82  1  0.05228295  0.45307044  0.31071731  1  0  -0.705984  -0.854962  0  1.976167  0
O  O83  1  0.94771929  0.45307128  0.68928076  1  0  -0.706048  -0.855061  0  1.976048  0
