# generated using pymatgen
data_CdH16C20S2(N2Cl)2
_symmetry_space_group_name_H-M   'P 1'
_cell_length_a   7.59425189
_cell_length_b   9.46011223
_cell_length_c   15.57693620
_cell_angle_alpha   90.00009398
_cell_angle_beta   90.00000020
_cell_angle_gamma   97.65820803
_symmetry_Int_Tables_number   1
_chemical_formula_structural   CdH16C20S2(N2Cl)2
_chemical_formula_sum   'Cd2 H32 C40 S4 N8 Cl4'
_cell_volume   1109.10415476
_cell_formula_units_Z   2
loop_
 _symmetry_equiv_pos_site_id
 _symmetry_equiv_pos_as_xyz
  1  'x, y, z'
loop_
 _atom_site_type_symbol
 _atom_site_label
 _atom_site_symmetry_multiplicity
 _atom_site_fract_x
 _atom_site_fract_y
 _atom_site_fract_z
 _atom_site_occupancy
 _atom_site_pbe_bader_spin_density
 _atom_site_pbe_cm5_charge
 _atom_site_pbe_ddec_charge
 _atom_site_pbe_ddec_spin_density
 _atom_site_pbe_ddec_sum_bond_order
 _atom_site_pbe_magmom
Cd  Cd0  1  0.49999862  0.49999977  0.49999973  1  0  0.658058  0.692718  0  2.448142  0
Cd  Cd1  1  0.49999917  0.99999928  0.00000050  1  0  0.658076  0.69272  0  2.44814  0
H  H2  1  0.88048992  0.58346332  0.41414784  1  0  0.105122  0.076634  0  1.046933  0
H  H3  1  0.11951463  0.91653684  0.91414877  1  0  0.10513  0.076655  0  1.046934  0
H  H4  1  0.11950768  0.41653836  0.58585226  1  0  0.105098  0.076572  0  1.047004  0
H  H5  1  0.88048787  0.08346268  0.08585197  1  0  0.105123  0.076607  0  1.04697  0
H  H6  1  0.06095871  0.55060151  0.28646033  1  0  0.102154  0.123568  0  1.019202  0
H  H7  1  0.93904316  0.94939831  0.78646193  1  0  0.102149  0.123553  0  1.019213  0
H  H8  1  0.93903794  0.44940230  0.71353849  1  0  0.102148  0.123536  0  1.019236  0
H  H9  1  0.06096084  0.05060228  0.21353881  1  0  0.10214  0.123533  0  1.019218  0
H  H10  1  0.58528259  0.32116699  0.16971389  1  0  0.102263  0.12299  0  1.023239  0
H  H11  1  0.41471657  0.17883213  0.66971330  1  0  0.102269  0.123013  0  1.023193  0
H  H12  1  0.41471559  0.67883042  0.83028685  1  0  0.102265  0.123006  0  1.0232  0
H  H13  1  0.58528593  0.82116740  0.33028744  1  0  0.102275  0.123045  0  1.023199  0
H  H14  1  0.42235938  0.37461115  0.30222843  1  0  0.115058  0.08867  0  0.994725  0
H  H15  1  0.57764379  0.12538832  0.80222650  1  0  0.11507  0.088668  0  0.994678  0
H  H16  1  0.57764143  0.62538625  0.69777167  1  0  0.115045  0.088671  0  0.99472  0
H  H17  1  0.42235889  0.87461227  0.19777424  1  0  0.115061  0.088683  0  0.994736  0
H  H18  1  0.50456393  0.66286201  0.02101345  1  0  0.101321  0.081258  0  1.038719  0
H  H19  1  0.49543441  0.83714030  0.52101109  1  0  0.101314  0.081204  0  1.03867  0
H  H20  1  0.49543970  0.33713644  0.97898922  1  0  0.101304  0.081215  0  1.038746  0
H  H21  1  0.50456355  0.16286352  0.47898773  1  0  0.101335  0.081226  0  1.038669  0
H  H22  1  0.32288457  0.43463997  0.07406292  1  0  0.0938  0.120409  0  1.051037  0
H  H23  1  0.67711736  0.06535995  0.57406286  1  0  0.093802  0.120399  0  1.051096  0
H  H24  1  0.67711493  0.56535743  0.92593911  1  0  0.093805  0.120409  0  1.051071  0
H  H25  1  0.32288550  0.93464171  0.42593788  1  0  0.093797  0.120399  0  1.051088  0
H  H26  1  0.89592660  0.68460252  0.12325886  1  0  0.107929  0.127829  0  0.990389  0
H  H27  1  0.10407201  0.81539367  0.62325840  1  0  0.107925  0.127844  0  0.990385  0
H  H28  1  0.10407177  0.31539596  0.87673804  1  0  0.107927  0.127806  0  0.990438  0
H  H29  1  0.89592749  0.18460373  0.37674106  1  0  0.107934  0.127839  0  0.990374  0
H  H30  1  0.09610572  0.89823384  0.07084108  1  0  0.101601  0.079153  0  1.051582  0
H  H31  1  0.90388928  0.60176434  0.57083913  1  0  0.101622  0.079177  0  1.051625  0
H  H32  1  0.90389301  0.10176676  0.92915838  1  0  0.101602  0.079168  0  1.051638  0
H  H33  1  0.09610568  0.39823734  0.42915969  1  0  0.1016  0.079159  0  1.051583  0
C  C34  1  0.81808157  0.52907900  0.35802189  1  0  0.03838  0.093079  0  3.967283  0
C  C35  1  0.18192051  0.97092208  0.85802159  1  0  0.038303  0.092952  0  3.96737  0
C  C36  1  0.18191471  0.47092268  0.64197757  1  0  0.038415  0.093145  0  3.967256  0
C  C37  1  0.81808236  0.02907958  0.14197916  1  0  0.038368  0.093068  0  3.967386  0
C  C38  1  0.91972416  0.50957406  0.28608219  1  0  -0.088715  -0.178064  0  3.964975  0
C  C39  1  0.08027639  0.99042577  0.78608383  1  0  -0.088719  -0.177992  0  3.96482  0
C  C40  1  0.08027607  0.49042761  0.71391599  1  0  -0.088771  -0.17811  0  3.964962  0
C  C41  1  0.91972384  0.00957590  0.21391563  1  0  -0.088739  -0.178047  0  3.964918  0
C  C42  1  0.83776000  0.43204189  0.21683361  1  0  0.005338  0.089704  0  4.030081  0
C  C43  1  0.16224105  0.06796056  0.71683420  1  0  0.005355  0.089676  0  4.030039  0
C  C44  1  0.16223742  0.56795873  0.78316585  1  0  0.005323  0.089745  0  4.029979  0
C  C45  1  0.83776163  0.93204003  0.28316655  1  0  0.005344  0.089706  0  4.03008  0
C  C46  1  0.65579052  0.38166183  0.22188272  1  0  -0.089472  -0.175127  0  3.933738  0
C  C47  1  0.34420885  0.11833850  0.72188271  1  0  -0.089511  -0.175179  0  3.933735  0
C  C48  1  0.34420803  0.61833771  0.77811738  1  0  -0.089437  -0.175148  0  3.933715  0
C  C49  1  0.65579251  0.88166209  0.27811803  1  0  -0.089496  -0.175229  0  3.933911  0
C  C50  1  0.56453116  0.40999342  0.29623240  1  0  0.046663  0.107839  0  3.942678  0
C  C51  1  0.43546938  0.09000605  0.79623236  1  0  0.046646  0.107835  0  3.942661  0
C  C52  1  0.43546721  0.59000505  0.70376834  1  0  0.046668  0.107815  0  3.942783  0
C  C53  1  0.56453312  0.90999348  0.20376902  1  0  0.04667  0.107833  0  3.942707  0
C  C54  1  0.36870296  0.66087515  0.04454118  1  0  0.037675  0.090524  0  3.972377  0
C  C55  1  0.63129751  0.83911654  0.54454139  1  0  0.03765  0.090607  0  3.972512  0
C  C56  1  0.63129522  0.33912225  0.95545956  1  0  0.037712  0.090648  0  3.972377  0
C  C57  1  0.36870104  0.16088300  0.45545743  1  0  0.037689  0.09068  0  3.972698  0
C  C58  1  0.26927802  0.53611958  0.07375867  1  0  -0.0928  -0.17909  0  3.946556  0
C  C59  1  0.73072298  0.96388286  0.57375580  1  0  -0.092731  -0.179065  0  3.946248  0
C  C60  1  0.73072185  0.46387995  0.92624207  1  0  -0.092833  -0.179154  0  3.94657  0
C  C61  1  0.26928006  0.03611986  0.42624238  1  0  -0.092832  -0.179153  0  3.946526  0
C  C62  1  0.09577958  0.54235576  0.10299806  1  0  0.009112  0.098689  0  4.018644  0
C  C63  1  0.90422201  0.95764249  0.60299775  1  0  0.009112  0.098747  0  4.018685  0
C  C64  1  0.90422028  0.45764378  0.89700268  1  0  0.009131  0.098708  0  4.018698  0
C  C65  1  0.09577917  0.04235704  0.39700300  1  0  0.009086  0.098617  0  4.018727  0
C  C66  1  0.03059104  0.67426284  0.10249610  1  0  -0.088641  -0.176005  0  3.95852  0
C  C67  1  0.96941261  0.82573967  0.60249437  1  0  -0.088682  -0.176152  0  3.958456  0
C  C68  1  0.96941033  0.32573775  0.89750400  1  0  -0.088652  -0.176  0  3.95853  0
C  C69  1  0.03058971  0.17425879  0.39750444  1  0  -0.088661  -0.176027  0  3.958484  0
C  C70  1  0.14053916  0.79321024  0.07256409  1  0  0.038119  0.08894  0  3.976841  0
C  C71  1  0.85945416  0.70678582  0.57256160  1  0  0.038153  0.08899  0  3.976583  0
C  C72  1  0.85946052  0.20678822  0.92743601  1  0  0.038118  0.088934  0  3.976817  0
C  C73  1  0.14054139  0.29321160  0.42743722  1  0  0.038146  0.088965  0  3.976558  0
S  S74  1  0.96333255  0.38155173  0.12976961  1  0  0.06121  0.043357  0  2.818168  0
S  S75  1  0.03666642  0.11844621  0.62976960  1  0  0.061197  0.043353  0  2.818235  0
S  S76  1  0.03666637  0.61844994  0.87023049  1  0  0.061244  0.043379  0  2.818175  0
S  S77  1  0.96333608  0.88155331  0.37023050  1  0  0.061245  0.043419  0  2.818257  0
N  N78  1  0.64374209  0.48047282  0.36372838  1  0  -0.330416  -0.237713  0  3.501808  0
N  N79  1  0.35626129  0.01952789  0.86372827  1  0  -0.330324  -0.237607  0  3.501804  0
N  N80  1  0.35625664  0.51952779  0.63627172  1  0  -0.330413  -0.237676  0  3.501799  0
N  N81  1  0.64374289  0.98047377  0.13627247  1  0  -0.330407  -0.237665  0  3.501686  0
N  N82  1  0.30643697  0.78747976  0.04365468  1  0  -0.334285  -0.253457  0  3.521975  0
N  N83  1  0.69356044  0.71252475  0.54365155  1  0  -0.334308  -0.253515  0  3.522546  0
N  N84  1  0.69356440  0.21252084  0.95634607  1  0  -0.334286  -0.253502  0  3.522079  0
N  N85  1  0.30644016  0.28747905  0.45634662  1  0  -0.334273  -0.253485  0  3.522333  0
Cl  Cl86  1  0.71851763  0.34351699  0.57103288  1  0  -0.370441  -0.579512  0  1.052378  0
Cl  Cl87  1  0.28148017  0.15648186  0.07103266  1  0  -0.370453  -0.579535  0  1.052383  0
Cl  Cl88  1  0.28148110  0.65648361  0.42896722  1  0  -0.370452  -0.579541  0  1.052404  0
Cl  Cl89  1  0.71851519  0.84351449  0.92896680  1  0  -0.370443  -0.579539  0  1.052384  0
