# generated using pymatgen
data_ZnH16C23Br4(NO2)2
_symmetry_space_group_name_H-M   'P 1'
_cell_length_a   10.06638292
_cell_length_b   11.42241312
_cell_length_c   12.75037084
_cell_angle_alpha   103.39109892
_cell_angle_beta   96.21628840
_cell_angle_gamma   96.06136892
_symmetry_Int_Tables_number   1
_chemical_formula_structural   ZnH16C23Br4(NO2)2
_chemical_formula_sum   'Zn2 H32 C46 Br8 N4 O8'
_cell_volume   1404.82050811
_cell_formula_units_Z   2
loop_
 _symmetry_equiv_pos_site_id
 _symmetry_equiv_pos_as_xyz
  1  'x, y, z'
loop_
 _atom_site_type_symbol
 _atom_site_label
 _atom_site_symmetry_multiplicity
 _atom_site_fract_x
 _atom_site_fract_y
 _atom_site_fract_z
 _atom_site_occupancy
 _atom_site_hle17_bader_spin_density
 _atom_site_hle17_ddec_charge
 _atom_site_hle17_ddec_spin_density
 _atom_site_hle17_ddec_sum_bond_order
 _atom_site_hle17_magmom
 _atom_site_hse06_10hf_bader_spin_density
 _atom_site_hse06_10hf_ddec_charge
 _atom_site_hse06_10hf_ddec_spin_density
 _atom_site_hse06_10hf_ddec_sum_bond_order
 _atom_site_hse06_10hf_magmom
 _atom_site_hse06_bader_spin_density
 _atom_site_hse06_ddec_charge
 _atom_site_hse06_ddec_spin_density
 _atom_site_hse06_ddec_sum_bond_order
 _atom_site_hse06_magmom
 _atom_site_pbe_bader_spin_density
 _atom_site_pbe_cm5_charge
 _atom_site_pbe_ddec_charge
 _atom_site_pbe_ddec_spin_density
 _atom_site_pbe_ddec_sum_bond_order
 _atom_site_pbe_magmom
Zn  Zn0  1  0.97232071  0.80175204  0.17402788  1  0  0.756864  0  2.168751  0  0  0.577727  0  2.659166  0  0  0.619782  0  2.613667  0  0  0.508331  0.54861  0  2.690212  0
Zn  Zn1  1  0.02768274  0.19824637  0.82597106  1  0  0.756888  0  2.168761  0  0  0.577745  0  2.659161  0  0  0.6198  0  2.613661  0  0  0.508338  0.54863  0  2.690204  0
H  H2  1  0.79971001  0.99645451  0.21503245  1  0  0.079834  0  0.957061  0  0  0.085768  0  1.024935  0  0  0.088368  0  1.022895  0  0  0.111414  0.084048  0  1.026035  0
H  H3  1  0.20029144  0.00354390  0.78496318  1  0  0.079822  0  0.956951  0  0  0.085731  0  1.024869  0  0  0.088334  0  1.022826  0  0  0.111397  0.08401  0  1.025967  0
H  H4  1  0.65430279  0.10546708  0.10664912  1  0  0.128863  0  0.940921  0  0  0.134961  0  1.004274  0  0  0.139153  0  1.001456  0  0  0.114785  0.132014  0  1.006314  0
H  H5  1  0.34570093  0.89453314  0.89334787  1  0  0.128911  0  0.940865  0  0  0.134974  0  1.00425  0  0  0.139221  0  1.001367  0  0  0.114804  0.132026  0  1.006289  0
H  H6  1  0.79646508  0.90751096  0.81834128  1  0  0.122963  0  0.94182  0  0  0.130953  0  1.003303  0  0  0.134578  0  1.001637  0  0  0.114083  0.128278  0  1.004758  0
H  H7  1  0.20354050  0.09248835  0.18165961  1  0  0.122966  0  0.94183  0  0  0.130908  0  1.003364  0  0  0.134586  0  1.001636  0  0  0.114081  0.128236  0  1.004819  0
H  H8  1  0.93184646  0.80322695  0.93828143  1  0  0.072968  0  0.969942  0  0  0.076258  0  1.042746  0  0  0.079454  0  1.039959  0  0  0.101881  0.073825  0  1.044986  0
H  H9  1  0.06815998  0.19677145  0.06171699  1  0  0.073011  0  0.969928  0  0  0.076299  0  1.042746  0  0  0.079496  0  1.039957  0  0  0.101907  0.073869  0  1.044985  0
H  H10  1  0.71260096  0.21739917  0.69916508  1  0  0.117645  0  0.963911  0  0  0.122106  0  1.03658  0  0  0.125743  0  1.034353  0  0  0.097121  0.120113  0  1.036846  0
H  H11  1  0.28739645  0.78260561  0.30083780  1  0  0.117675  0  0.963964  0  0  0.12214  0  1.036611  0  0  0.125779  0  1.034381  0  0  0.097131  0.120146  0  1.036878  0
H  H12  1  0.39086994  0.93597518  0.69313166  1  0  0.124822  0  0.952495  0  0  0.134802  0  1.012737  0  0  0.138111  0  1.011094  0  0  0.10734  0.132286  0  1.014249  0
H  H13  1  0.60913337  0.06402232  0.30686943  1  0  0.124828  0  0.952568  0  0  0.134815  0  1.012797  0  0  0.138124  0  1.011153  0  0  0.107347  0.132303  0  1.014314  0
H  H14  1  0.25189755  0.99578872  0.54409260  1  0  0.106348  0  0.953014  0  0  0.11431  0  1.016873  0  0  0.117394  0  1.015322  0  0  0.09673  0.113029  0  1.015984  0
H  H15  1  0.74810489  0.00420969  0.45591018  1  0  0.10628  0  0.952925  0  0  0.114242  0  1.016807  0  0  0.117326  0  1.015257  0  0  0.096707  0.112961  0  1.015916  0
H  H16  1  0.69337741  0.34262413  0.56012495  1  0  0.117752  0  0.944053  0  0  0.127283  0  1.005225  0  0  0.131239  0  1.002581  0  0  0.103704  0.124427  0  1.007209  0
H  H17  1  0.30661728  0.65738247  0.43987728  1  0  0.117758  0  0.944097  0  0  0.127298  0  1.005257  0  0  0.131254  0  1.002611  0  0  0.103722  0.124442  0  1.00724  0
H  H18  1  0.33340493  0.28370576  0.32967136  1  0  0.102309  0  0.976377  0  0  0.10738  0  1.048844  0  0  0.111184  0  1.046393  0  0  0.092952  0.104629  0  1.050692  0
H  H19  1  0.66658825  0.71629084  0.67032632  1  0  0.102281  0  0.976524  0  0  0.107382  0  1.04896  0  0  0.11119  0  1.046503  0  0  0.092944  0.104629  0  1.050807  0
H  H20  1  0.23011455  0.12379791  0.41344903  1  0  0.103423  0  0.972063  0  0  0.112465  0  1.035722  0  0  0.115795  0  1.033428  0  0  0.091354  0.110002  0  1.037484  0
H  H21  1  0.76988376  0.87619960  0.58655321  1  0  0.103419  0  0.971947  0  0  0.112442  0  1.03563  0  0  0.115768  0  1.033342  0  0  0.091355  0.109977  0  1.03739  0
H  H22  1  0.93466680  0.52834623  0.10124887  1  0  0.074868  0  0.989212  0  0  0.074514  0  1.069509  0  0  0.077667  0  1.066581  0  0  0.096244  0.072022  0  1.072054  0
H  H23  1  0.06533278  0.47165309  0.89875228  1  0  0.07486  0  0.989206  0  0  0.074507  0  1.069485  0  0  0.077663  0  1.066556  0  0  0.096233  0.072017  0  1.072029  0
H  H24  1  0.81446978  0.35387390  0.15747832  1  0  0.12163  0  0.948969  0  0  0.128176  0  1.011929  0  0  0.132157  0  1.009758  0  0  0.106827  0.125234  0  1.013922  0
H  H25  1  0.18552809  0.64612724  0.84252228  1  0  0.121608  0  0.948973  0  0  0.128191  0  1.011892  0  0  0.132172  0  1.009722  0  0  0.106827  0.125248  0  1.013886  0
H  H26  1  0.62200282  0.61415757  0.37209900  1  0  0.113233  0  0.983576  0  0  0.115642  0  1.056636  0  0  0.118159  0  1.057423  0  0  0.108869  0.113952  0  1.056  0
H  H27  1  0.37799092  0.38584267  0.62789635  1  0  0.113276  0  0.983628  0  0  0.115696  0  1.056644  0  0  0.118216  0  1.057429  0  0  0.108883  0.114006  0  1.056009  0
H  H28  1  0.74842901  0.77769372  0.30643958  1  0  0.078225  0  0.973042  0  0  0.083073  0  1.04353  0  0  0.084888  0  1.043252  0  0  0.110582  0.082112  0  1.042914  0
H  H29  1  0.25156345  0.22230471  0.69355607  1  0  0.078237  0  0.972944  0  0  0.083081  0  1.043447  0  0  0.084902  0  1.043163  0  0  0.110599  0.082106  0  1.042844  0
H  H30  1  0.70308261  0.46472469  0.93726798  1  0  0.119057  0  0.974235  0  0  0.12681  0  1.040449  0  0  0.128507  0  1.040023  0  0  0.087239  0.125677  0  1.040882  0
H  H31  1  0.29691897  0.53527463  0.06273335  1  0  0.119071  0  0.974247  0  0  0.126847  0  1.040437  0  0  0.128545  0  1.04001  0  0  0.087242  0.125712  0  1.040871  0
H  H32  1  0.56508946  0.43930174  0.82748587  1  0  0.117489  0  0.945625  0  0  0.127325  0  1.008122  0  0  0.128498  0  1.008531  0  0  0.097014  0.126301  0  1.008354  0
H  H33  1  0.43491329  0.56069213  0.17251364  1  0  0.117462  0  0.94561  0  0  0.127284  0  1.008138  0  0  0.128456  0  1.008547  0  0  0.096978  0.126259  0  1.008369  0
C  C34  1  0.79337767  0.97867579  0.12670259  1  0  0.135634  0  3.661181  0  0  0.105875  0  3.906121  0  0  0.112192  0  3.923686  0  0  0.051035  0.101483  0  3.894512  0
C  C35  1  0.20662633  0.02132625  0.87329716  1  0  0.135723  0  3.661206  0  0  0.105954  0  3.906152  0  0  0.112274  0  3.923726  0  0  0.051124  0.101562  0  3.89454  0
C  C36  1  0.71366609  0.03855306  0.06650070  1  0  -0.090409  0  3.664146  0  0  -0.113701  0  3.912317  0  0  -0.118083  0  3.931286  0  0  -0.066381  -0.110901  0  3.899864  0
C  C37  1  0.28634163  0.96144716  0.93349899  1  0  -0.090546  0  3.664199  0  0  -0.113806  0  3.912361  0  0  -0.118239  0  3.931311  0  0  -0.066487  -0.111004  0  3.899905  0
C  C38  1  0.71208382  0.01178855  0.95375051  1  0  -0.000857  0  3.740263  0  0  0.011873  0  3.980015  0  0  0.010091  0  3.998988  0  0  0.007887  0.013151  0  3.967371  0
C  C39  1  0.28792118  0.98821349  0.04624854  1  0  -0.000874  0  3.74016  0  0  0.011915  0  3.979893  0  0  0.010134  0  3.99888  0  0  0.007877  0.013191  0  3.967251  0
C  C40  1  0.79290110  0.92788787  0.90556996  1  0  -0.112382  0  3.687897  0  0  -0.140122  0  3.945824  0  0  -0.144648  0  3.965467  0  0  -0.074457  -0.137272  0  3.933063  0
C  C41  1  0.20710175  0.07211326  0.09443107  1  0  -0.112354  0  3.687731  0  0  -0.140072  0  3.945675  0  0  -0.144638  0  3.965287  0  0  -0.074461  -0.137222  0  3.932918  0
C  C42  1  0.86853639  0.87077125  0.97129273  1  0  0.122099  0  3.709636  0  0  0.089399  0  3.964205  0  0  0.095059  0  3.982957  0  0  0.042187  0.085628  0  3.952074  0
C  C43  1  0.13146846  0.12922988  0.02870690  1  0  0.122086  0  3.709541  0  0  0.089368  0  3.964097  0  0  0.095023  0  3.982871  0  0  0.04219  0.085596  0  3.951968  0
C  C44  1  0.62100026  0.07095981  0.88779003  1  0  0.592381  0  3.796082  0  0  0.54272  0  4.092309  0  0  0.575511  0  4.081502  0  0  0.239403  0.519998  0  4.099832  0
C  C45  1  0.37900473  0.92904223  0.11221137  1  0  0.592332  0  3.795881  0  0  0.542542  0  4.092255  0  0  0.575353  0  4.081445  0  0  0.239366  0.519819  0  4.099777  0
C  C46  1  0.61112864  0.17199457  0.66551091  1  0  -0.210993  0  3.696464  0  0  -0.241975  0  3.94921  0  0  -0.247263  0  3.968507  0  0  -0.097753  -0.237959  0  3.934481  0
C  C47  1  0.38886777  0.82801021  0.33449266  1  0  -0.211179  0  3.696548  0  0  -0.242162  0  3.949318  0  0  -0.247447  0  3.968607  0  0  -0.097844  -0.238145  0  3.934589  0
C  C48  1  0.55563528  0.07810743  0.70432842  1  0  0.285856  0  3.778219  0  0  0.274375  0  4.047984  0  0  0.284329  0  4.064489  0  0  0.07928  0.267611  0  4.036263  0
C  C49  1  0.44436744  0.92189280  0.29567162  1  0  0.285924  0  3.778167  0  0  0.274403  0  4.047943  0  0  0.284374  0  4.064445  0  0  0.079288  0.26764  0  4.036226  0
C  C50  1  0.42647108  0.01339317  0.66239408  1  0  -0.166393  0  3.742528  0  0  -0.192793  0  4.003115  0  0  -0.197533  0  4.023555  0  0  -0.096951  -0.18939  0  3.988962  0
C  C51  1  0.57353105  0.98660978  0.33760805  1  0  -0.166474  0  3.742515  0  0  -0.192878  0  4.00311  0  0  -0.197621  0  4.023558  0  0  -0.096957  -0.189483  0  3.988966  0
C  C52  1  0.35155285  0.04528907  0.57884636  1  0  -0.089603  0  3.736371  0  0  -0.106243  0  3.986827  0  0  -0.107541  0  4.00756  0  0  -0.084347  -0.104819  0  3.97052  0
C  C53  1  0.64844446  0.95470844  0.42115657  1  0  -0.089503  0  3.736298  0  0  -0.106138  0  3.986768  0  0  -0.10743  0  4.007484  0  0  -0.084336  -0.104713  0  3.970463  0
C  C54  1  0.40424392  0.14053214  0.53420607  1  0  0.031151  0  3.782719  0  0  0.047169  0  4.004963  0  0  0.045204  0  4.030743  0  0  -0.010516  0.048118  0  3.988212  0
C  C55  1  0.59575421  0.85947082  0.46579649  1  0  0.031192  0  3.782646  0  0  0.047184  0  4.004912  0  0  0.045221  0  4.030692  0  0  -0.010506  0.048133  0  3.98816  0
C  C56  1  0.53678755  0.20413065  0.57787475  1  0  0.088466  0  3.806035  0  0  0.110359  0  4.027443  0  0  0.11062  0  4.053727  0  0  -0.004137  0.10983  0  4.010395  0
C  C57  1  0.46321000  0.79587504  0.42213068  1  0  0.088556  0  3.805885  0  0  0.110458  0  4.027285  0  0  0.110716  0  4.053571  0  0  -0.004073  0.109927  0  4.010241  0
C  C58  1  0.59246197  0.29425119  0.52902906  1  0  -0.215745  0  3.71169  0  0  -0.247205  0  3.963969  0  0  -0.251999  0  3.981683  0  0  -0.097356  -0.244028  0  3.952219  0
C  C59  1  0.40753117  0.70575178  0.47097229  1  0  -0.215663  0  3.711541  0  0  -0.247107  0  3.963805  0  0  -0.251899  0  3.98152  0  0  -0.097291  -0.243932  0  3.952056  0
C  C60  1  0.51876061  0.31801375  0.44103228  1  0  0.274535  0  3.783022  0  0  0.263224  0  4.055072  0  0  0.2736  0  4.070303  0  0  0.07446  0.256144  0  4.044636  0
C  C61  1  0.48123425  0.68198739  0.55897041  1  0  0.274476  0  3.782761  0  0  0.263119  0  4.054901  0  0  0.273492  0  4.070134  0  0  0.074413  0.25604  0  4.044462  0
C  C62  1  0.38722505  0.25945865  0.39877889  1  0  -0.167897  0  3.755129  0  0  -0.193158  0  4.013797  0  0  -0.1975  0  4.032384  0  0  -0.103445  -0.190266  0  4.001364  0
C  C63  1  0.61277039  0.74053978  0.60122485  1  0  -0.167834  0  3.755136  0  0  -0.193111  0  4.013775  0  0  -0.197457  0  4.032362  0  0  -0.103425  -0.190221  0  4.001338  0
C  C64  1  0.33094131  0.17225135  0.44569977  1  0  -0.073999  0  3.715579  0  0  -0.090996  0  3.960695  0  0  -0.091724  0  3.980671  0  0  -0.083566  -0.090613  0  3.947542  0
C  C65  1  0.66905527  0.82774797  0.55430113  1  0  -0.07405  0  3.715312  0  0  -0.09101  0  3.960435  0  0  -0.091737  0  3.980413  0  0  -0.083585  -0.090628  0  3.947282  0
C  C66  1  0.64679984  0.36765996  0.30918983  1  0  0.590941  0  3.78766  0  0  0.541945  0  4.083574  0  0  0.575114  0  4.072604  0  0  0.244509  0.51944  0  4.090358  0
C  C67  1  0.35319561  0.63233846  0.69080686  1  0  0.590815  0  3.787658  0  0  0.541853  0  4.083503  0  0  0.575024  0  4.072526  0  0  0.244454  0.51935  0  4.090284  0
C  C68  1  0.86362665  0.54278820  0.16030462  1  0  0.124542  0  3.690072  0  0  0.094006  0  3.939832  0  0  0.099669  0  3.958405  0  0  0.042996  0.090034  0  3.92825  0
C  C69  1  0.13636894  0.45721113  0.83969540  1  0  0.124617  0  3.689908  0  0  0.094113  0  3.939664  0  0  0.099776  0  3.958237  0  0  0.043054  0.090144  0  3.92808  0
C  C70  1  0.79763766  0.44658631  0.19239679  1  0  -0.105842  0  3.691303  0  0  -0.128549  0  3.936285  0  0  -0.133609  0  3.956762  0  0  -0.073164  -0.125891  0  3.923959  0
C  C71  1  0.20235992  0.55341302  0.80760262  1  0  -0.105911  0  3.691218  0  0  -0.128655  0  3.936163  0  0  -0.133715  0  3.956635  0  0  -0.073207  -0.125997  0  3.92384  0
C  C72  1  0.71050317  0.47107403  0.27053755  1  0  -0.015073  0  3.75898  0  0  -0.000391  0  3.994843  0  0  -0.003026  0  4.014628  0  0  0.004546  0.001371  0  3.981603  0
C  C73  1  0.28949256  0.52892621  0.72946111  1  0  -0.015027  0  3.759078  0  0  -0.000337  0  3.994901  0  0  -0.002971  0  4.014683  0  0  0.004552  0.001427  0  3.981663  0
C  C74  1  0.68942265  0.59134557  0.31151004  1  0  -0.110414  0  3.677714  0  0  -0.132646  0  3.925454  0  0  -0.13687  0  3.945572  0  0  -0.073723  -0.129874  0  3.912156  0
C  C75  1  0.31057349  0.40865739  0.68848607  1  0  -0.110441  0  3.677682  0  0  -0.132689  0  3.925426  0  0  -0.136915  0  3.945546  0  0  -0.073708  -0.129916  0  3.912125  0
C  C76  1  0.75900471  0.68246123  0.27488609  1  0  0.136279  0  3.664891  0  0  0.106291  0  3.909802  0  0  0.112752  0  3.926983  0  0  0.050757  0.102107  0  3.898379  0
C  C77  1  0.24099288  0.31753810  0.72511019  1  0  0.136277  0  3.664741  0  0  0.106302  0  3.909661  0  0  0.11276  0  3.926836  0  0  0.050744  0.102128  0  3.898249  0
C  C78  1  0.64791728  0.50390581  0.87833721  1  0  -0.087664  0  3.470792  0  0  -0.128056  0  3.760816  0  0  -0.120016  0  3.761984  0  0  -0.153986  -0.133478  0  3.759784  0
C  C79  1  0.35208475  0.49608988  0.12166184  1  0  -0.087669  0  3.470755  0  0  -0.128065  0  3.760739  0  0  -0.120021  0  3.761898  0  0  -0.153957  -0.133498  0  3.759744  0
Br  Br80  1  0.02928495  0.93339926  0.34931413  1  0  -0.522504  0  0.965131  0  0  -0.465352  0  1.248099  0  0  -0.481852  0  1.222852  0  0  -0.286812  -0.454211  0  1.263484  0
Br  Br81  1  0.97071636  0.06659824  0.65068680  1  0  -0.522492  0  0.965154  0  0  -0.465317  0  1.248107  0  0  -0.481817  0  1.222859  0  0  -0.2868  -0.454175  0  1.263489  0
Br  Br82  1  0.12482592  0.70725859  0.06299323  1  0  -0.50935  0  1.065564  0  0  -0.450667  0  1.384916  0  0  -0.467854  0  1.360261  0  0  -0.249514  -0.437653  0  1.402281  0
Br  Br83  1  0.87518321  0.29274436  0.93701106  1  0  -0.509376  0  1.065567  0  0  -0.450703  0  1.38495  0  0  -0.467873  0  1.36026  0  0  -0.249531  -0.4377  0  1.402331  0
Br  Br84  1  0.77565117  0.54286467  0.78246954  1  0  -0.07808  0  1.178724  0  0  -0.055158  0  1.42038  0  0  -0.06187  0  1.410238  0  0  0.009312  -0.050648  0  1.428041  0
Br  Br85  1  0.22434827  0.45713374  0.21753141  1  0  -0.078079  0  1.178693  0  0  -0.055164  0  1.420343  0  0  -0.061872  0  1.410196  0  0  0.009317  -0.050649  0  1.428011  0
Br  Br86  1  0.57464110  0.64432213  0.95484498  1  0  -0.022417  0  1.275738  0  0  -0.010102  0  1.54769  0  0  -0.016512  0  1.539718  0  0  0.025673  -0.005086  0  1.553725  0
Br  Br87  1  0.42535208  0.35567448  0.04515270  1  0  -0.022413  0  1.275794  0  0  -0.010092  0  1.547735  0  0  -0.016505  0  1.539764  0  0  0.02567  -0.005072  0  1.553776  0
N  N88  1  0.86769597  0.89493578  0.07971471  1  0  -0.304238  0  3.3393  0  0  -0.215459  0  3.604984  0  0  -0.234177  0  3.622831  0  0  -0.331288  -0.203245  0  3.593389  0
N  N89  1  0.13230761  0.10506354  0.92028287  1  0  -0.304312  0  3.33944  0  0  -0.215467  0  3.605051  0  0  -0.234195  0  3.622911  0  0  -0.331309  -0.203252  0  3.593455  0
N  N90  1  0.84570480  0.65881352  0.20170270  1  0  -0.296077  0  3.314126  0  0  -0.208504  0  3.575041  0  0  -0.22645  0  3.59137  0  0  -0.324204  -0.196439  0  3.564084  0
N  N91  1  0.15429352  0.34118399  0.79829483  1  0  -0.296114  0  3.314094  0  0  -0.208595  0  3.575055  0  0  -0.226544  0  3.591388  0  0  -0.324244  -0.196531  0  3.564095  0
O  O92  1  0.54081803  0.13731724  0.92393077  1  0  -0.499152  0  1.976299  0  0  -0.462779  0  2.201306  0  0  -0.481305  0  2.195305  0  0  -0.272727  -0.450158  0  2.205793  0
O  O93  1  0.45919041  0.86268116  0.07607017  1  0  -0.499096  0  1.97608  0  0  -0.462683  0  2.201125  0  0  -0.481209  0  2.195123  0  0  -0.272682  -0.450061  0  2.20561  0
O  O94  1  0.63649159  0.03629408  0.78091730  1  0  -0.3375  0  2.36907  0  0  -0.265185  0  2.598658  0  0  -0.287854  0  2.599953  0  0  -0.135566  -0.249168  0  2.596839  0
O  O95  1  0.36351327  0.96370705  0.21908233  1  0  -0.337466  0  2.369108  0  0  -0.265049  0  2.598655  0  0  -0.287771  0  2.599996  0  0  -0.135542  -0.249033  0  2.596837  0
O  O96  1  0.57580658  0.40737325  0.39273123  1  0  -0.329616  0  2.303664  0  0  -0.261239  0  2.530962  0  0  -0.282054  0  2.528678  0  0  -0.139502  -0.246645  0  2.531478  0
O  O97  1  0.42418688  0.59262518  0.60726607  1  0  -0.329553  0  2.303596  0  0  -0.261177  0  2.530892  0  0  -0.281993  0  2.528608  0  0  -0.139461  -0.246587  0  2.531408  0
O  O98  1  0.65952726  0.26152117  0.27252625  1  0  -0.493951  0  1.948484  0  0  -0.456514  0  2.157126  0  0  -0.475089  0  2.149534  0  0  -0.25912  -0.443726  0  2.162009  0
O  O99  1  0.34046746  0.73847907  0.72747546  1  0  -0.49394  0  1.948403  0  0  -0.456512  0  2.157006  0  0  -0.475094  0  2.149428  0  0  -0.259137  -0.443722  0  2.161885  0
