# generated using pymatgen
data_CuH12C12S2(NO3)2
_symmetry_space_group_name_H-M   'P 1'
_cell_length_a   4.93570938
_cell_length_b   7.81415226
_cell_length_c   18.45926850
_cell_angle_alpha   89.99952789
_cell_angle_beta   90.21506749
_cell_angle_gamma   90.00028897
_symmetry_Int_Tables_number   1
_chemical_formula_structural   CuH12C12S2(NO3)2
_chemical_formula_sum   'Cu2 H24 C24 S4 N4 O12'
_cell_volume   711.93915159
_cell_formula_units_Z   2
loop_
 _symmetry_equiv_pos_site_id
 _symmetry_equiv_pos_as_xyz
  1  'x, y, z'
loop_
 _atom_site_type_symbol
 _atom_site_label
 _atom_site_symmetry_multiplicity
 _atom_site_fract_x
 _atom_site_fract_y
 _atom_site_fract_z
 _atom_site_occupancy
 _atom_site_hle17_ddec_charge
 _atom_site_hle17_ddec_spin_density
 _atom_site_hle17_ddec_sum_bond_order
 _atom_site_hle17_magmom
 _atom_site_hse06_10hf_ddec_charge
 _atom_site_hse06_10hf_ddec_spin_density
 _atom_site_hse06_10hf_ddec_sum_bond_order
 _atom_site_hse06_10hf_magmom
 _atom_site_hse06_ddec_charge
 _atom_site_hse06_ddec_spin_density
 _atom_site_hse06_ddec_sum_bond_order
 _atom_site_hse06_magmom
 _atom_site_pbe_cm5_charge
 _atom_site_pbe_ddec_charge
 _atom_site_pbe_ddec_spin_density
 _atom_site_pbe_ddec_sum_bond_order
 _atom_site_pbe_magmom
Cu  Cu0  1  0.99999927  0.00000158  0.99999991  1  0.909379  0.76599  1.829885  0.549  0.895231  0.83134  2.209435  0.662  0.974228  0.899368  2.151007  0.742  0.778735  0.842646  0.779565  2.253305  0.606
Cu  Cu1  1  0.50000180  0.50000155  0.49999955  1  0.9094  -0.765986  1.829856  -0.549  0.89521  -0.831337  2.209422  -0.662  0.974214  -0.899369  2.150985  -0.742  0.778726  0.842661  -0.779566  2.253245  -0.606
H  H2  1  0.42379255  0.50295854  0.79822520  1  0.118183  0.000288  0.928444  0.0  0.130898  -3.1e-05  0.983637  0.0  0.133625  -4.1e-05  0.982039  0.0  0.117002  0.12883  -6e-06  0.98501  0.0
H  H3  1  0.92379201  0.99703698  0.29822925  1  0.11813  -0.000287  0.928469  0.0  0.13091  3.1e-05  0.983584  0.0  0.133638  4.1e-05  0.98198  0.0  0.116981  0.128837  6e-06  0.984953  0.0
H  H4  1  0.57621308  0.49704199  0.20177497  1  0.118142  0.000287  0.928383  0.0  0.130852  -3e-05  0.983579  0.0  0.133577  -4.1e-05  0.981982  0.0  0.116989  0.128785  -6e-06  0.984948  0.0
H  H5  1  0.07621163  0.00295715  0.70177526  1  0.118148  -0.000285  0.92838  0.0  0.130861  3.1e-05  0.983573  0.0  0.133588  4.1e-05  0.981971  0.0  0.11698  0.12879  6e-06  0.984943  0.0
H  H6  1  0.06886004  0.58713644  0.88639005  1  0.124686  0.000592  0.954024  0.001  0.130828  0.000452  1.016149  0.001  0.134261  0.000291  1.014437  0.0  0.114007  0.12824  0.000595  1.017642  0.001
H  H7  1  0.56885273  0.91286392  0.38639222  1  0.124709  -0.000592  0.954006  -0.001  0.130837  -0.000452  1.016147  -0.001  0.134263  -0.000291  1.014453  0.0  0.114027  0.128251  -0.000595  1.017635  -0.001
H  H8  1  0.93114356  0.41286793  0.11360958  1  0.124687  0.00059  0.954027  0.001  0.130817  0.000452  1.016167  0.001  0.134252  0.000291  1.014448  0.0  0.114017  0.12823  0.000595  1.017656  0.001
H  H9  1  0.43114076  0.08713661  0.61361012  1  0.124712  -0.000589  0.954146  -0.001  0.130831  -0.000452  1.016294  -0.001  0.134265  -0.000291  1.014579  0.0  0.114019  0.128245  -0.000595  1.017785  -0.001
H  H10  1  0.88796454  0.36275683  0.97247755  1  0.095445  0.001084  0.951955  0.002  0.103851  0.000806  1.014052  0.001  0.10571  0.000586  1.012754  0.001  0.12169  0.102395  0.000977  1.015015  0.002
H  H11  1  0.38795573  0.13724060  0.47247752  1  0.095468  -0.001084  0.951946  -0.002  0.10387  -0.000806  1.014053  -0.001  0.105733  -0.000586  1.012749  -0.001  0.12167  0.102415  -0.000977  1.01502  -0.002
H  H12  1  0.11203500  0.63724626  0.02752100  1  0.095468  0.001086  0.951935  0.002  0.103864  0.000807  1.014039  0.001  0.105725  0.000586  1.012738  0.001  0.121665  0.102408  0.000977  1.015002  0.002
H  H13  1  0.61203369  0.86276761  0.52752211  1  0.095457  -0.001085  0.95198  -0.002  0.103865  -0.000806  1.014071  -0.001  0.105725  -0.000586  1.012771  -0.001  0.121684  0.102413  -0.000977  1.015038  -0.002
H  H14  1  0.72242147  0.05663175  0.78805097  1  0.12072  5.6e-05  0.97312  0.0  0.139916  6.1e-05  1.03618  0.0  0.141794  2.8e-05  1.035515  0.0  0.093372  0.138419  0.000106  1.036768  0.0
H  H15  1  0.22242929  0.44336874  0.28804988  1  0.120706  -5.4e-05  0.973151  0.0  0.139899  -6e-05  1.036217  0.0  0.141779  -2.8e-05  1.035553  0.0  0.093358  0.138401  -0.000106  1.036806  0.0
H  H16  1  0.27757404  0.94336751  0.21194975  1  0.120709  5.3e-05  0.973141  0.0  0.139902  6.1e-05  1.036203  0.0  0.141778  2.8e-05  1.035544  0.0  0.093368  0.138406  0.000106  1.036787  0.0
H  H17  1  0.77757633  0.55662539  0.71194921  1  0.120752  -5.5e-05  0.973159  0.0  0.139928  -6.1e-05  1.036249  0.0  0.141808  -2.8e-05  1.035583  0.0  0.093363  0.138427  -0.000106  1.036837  0.0
H  H18  1  0.83286517  0.27265028  0.78349486  1  0.119279  0.000331  0.963223  0.0  0.139294  0.000136  1.02889  0.0  0.1396  0.000107  1.030921  0.0  0.093129  0.139033  0.000169  1.027486  0.0
H  H19  1  0.33286925  0.22734937  0.28349561  1  0.119271  -0.000329  0.963234  0.0  0.139285  -0.000136  1.028904  0.0  0.139591  -0.000107  1.030936  0.0  0.093114  0.139022  -0.000169  1.027499  0.0
H  H20  1  0.16713640  0.72734769  0.21650423  1  0.119323  0.000326  0.963172  0.0  0.139291  0.000136  1.028894  0.0  0.139598  0.000106  1.030925  0.0  0.093123  0.139028  0.000169  1.027489  0.0
H  H21  1  0.66713435  0.77264348  0.71650403  1  0.119236  -0.000329  0.963171  0.0  0.139251  -0.000136  1.028856  0.0  0.139556  -0.000106  1.030889  0.0  0.093082  0.138986  -0.000169  1.027454  0.0
H  H22  1  0.56926206  0.20461105  0.72607423  1  0.13954  0.000383  0.950661  0.001  0.161051  0.00015  1.010551  0.0  0.162606  0.000115  1.009975  0.0  0.100216  0.159778  0.00019  1.011124  0.0
H  H23  1  0.06926667  0.29539016  0.22607420  1  0.139529  -0.000381  0.950657  -0.001  0.16101  -0.00015  1.010591  0.0  0.162561  -0.000115  1.010022  0.0  0.100198  0.159743  -0.00019  1.011156  0.0
H  H24  1  0.43073547  0.79538820  0.27392594  1  0.139523  0.000381  0.950683  0.001  0.161029  0.00015  1.01058  0.0  0.162588  0.000115  1.010002  0.0  0.100211  0.159757  0.00019  1.011152  0.0
H  H25  1  0.93073490  0.70460269  0.77392543  1  0.13953  -0.000381  0.950681  -0.001  0.161048  -0.00015  1.010568  0.0  0.162606  -0.000115  1.009991  0.0  0.100217  0.159774  -0.00019  1.011144  0.0
C  C26  1  0.33639437  0.12841404  0.88637146  1  -0.010596  -0.006233  3.646413  -0.007  -0.003778  -0.000465  3.892827  -0.001  -0.002313  -0.001364  3.914476  -0.002  0.113111  -0.004998  0.000242  3.878758  -0.001
C  C27  1  0.83639888  0.37158234  0.38637216  1  -0.010584  0.006242  3.646481  0.007  -0.003787  0.000467  3.892884  0.001  -0.002315  0.001365  3.914535  0.002  0.113076  -0.005011  -0.000242  3.878818  0.001
C  C28  1  0.66360112  0.87158649  0.11362762  1  -0.010669  -0.006233  3.646501  -0.007  -0.003849  -0.000464  3.892911  -0.001  -0.002381  -0.001364  3.914563  -0.002  0.113099  -0.005066  0.000242  3.878842  -0.001
C  C29  1  0.16360269  0.62841691  0.61362693  1  -0.010621  0.006234  3.646617  0.007  -0.003837  0.000467  3.893027  0.001  -0.002368  0.001365  3.91468  0.002  0.113091  -0.005058  -0.000242  3.878963  0.001
C  C30  1  0.44707728  0.24074295  0.83532018  1  0.130392  0.007909  3.702695  0.008  0.149871  0.002354  3.940079  0.003  0.148528  0.00234  3.963511  0.003  0.014328  0.150442  0.002428  3.924611  0.003
C  C31  1  0.94708089  0.25925733  0.33532181  1  0.130292  -0.007912  3.702784  -0.008  0.149774  -0.002355  3.940167  -0.003  0.148428  -0.002341  3.9636  -0.003  0.014349  0.15035  -0.002427  3.924692  -0.003
C  C32  1  0.55292430  0.75925758  0.16468000  1  0.130376  0.007908  3.702718  0.008  0.14985  0.002354  3.940079  0.003  0.148506  0.00234  3.963512  0.003  0.014332  0.15042  0.002427  3.92461  0.003
C  C33  1  0.05292069  0.74073936  0.66467837  1  0.13027  -0.007906  3.70297  -0.008  0.149768  -0.002355  3.940309  -0.003  0.148424  -0.002341  3.963743  -0.003  0.014352  0.150339  -0.002427  3.924838  -0.003
C  C34  1  0.34651876  0.40893633  0.83653012  1  -0.034345  -0.009898  3.616929  -0.009  -0.061202  -0.00283  3.863999  -0.003  -0.057028  -0.003018  3.878233  -0.003  -0.053576  -0.064215  -0.002704  3.85494  -0.003
C  C35  1  0.84651699  0.09106233  0.33653341  1  -0.034204  0.009898  3.61682  0.009  -0.061093  0.002831  3.863845  0.003  -0.056915  0.003019  3.878078  0.003  -0.053532  -0.064099  0.002704  3.854774  0.003
C  C36  1  0.65348687  0.59106548  0.16347006  1  -0.034275  -0.009898  3.61684  -0.009  -0.061099  -0.002832  3.863875  -0.003  -0.056924  -0.003018  3.878112  -0.003  -0.053559  -0.064112  -0.002704  3.854811  -0.003
C  C37  1  0.15348259  0.90893436  0.66346947  1  -0.034212  0.009894  3.616775  0.009  -0.061036  0.002832  3.863783  0.003  -0.056862  0.003018  3.878018  0.003  -0.053548  -0.064044  0.002704  3.854714  0.003
C  C38  1  0.14687945  0.45688188  0.88549478  1  -0.103687  0.010761  3.717552  0.011  -0.119045  0.003774  3.973968  0.005  -0.123658  0.003388  3.990937  0.004  -0.076685  -0.116255  0.004128  3.963016  0.005
C  C39  1  0.64687527  0.04311648  0.38549770  1  -0.103694  -0.010761  3.717505  -0.011  -0.119042  -0.003775  3.973954  -0.005  -0.123658  -0.003388  3.990919  -0.004  -0.076699  -0.116253  -0.004127  3.963008  -0.005
C  C40  1  0.85312415  0.54311993  0.11450486  1  -0.103609  0.010765  3.71757  0.011  -0.118983  0.003775  3.973973  0.005  -0.123596  0.003387  3.990947  0.004  -0.076663  -0.116191  0.004127  3.963015  0.005
C  C41  1  0.35312429  0.95688789  0.61450356  1  -0.103703  -0.010768  3.717647  -0.011  -0.11906  -0.003776  3.97406  -0.005  -0.123674  -0.003388  3.99103  -0.004  -0.076703  -0.116266  -0.004127  3.963107  -0.005
C  C42  1  0.04705311  0.33543238  0.93349731  1  0.126098  -0.007036  3.671183  -0.007  0.09522  -0.000798  3.93065  -0.002  0.103544  -0.001953  3.948308  -0.003  0.047885  0.089908  0.000134  3.91878  0.0
C  C43  1  0.54704988  0.16456473  0.43349818  1  0.126042  0.007036  3.671164  0.007  0.095124  0.000798  3.930652  0.002  0.103452  0.001953  3.948311  0.003  0.047899  0.089809  -0.000134  3.918795  0.0
C  C44  1  0.95294442  0.66456943  0.06650233  1  0.125925  -0.007043  3.671154  -0.007  0.095082  -0.000798  3.930585  -0.002  0.103409  -0.001952  3.94824  -0.003  0.047849  0.089764  0.000134  3.918723  0.0
C  C45  1  0.45294764  0.83543964  0.56650091  1  0.125994  0.007041  3.671171  0.007  0.095093  0.000798  3.930633  0.002  0.103421  0.001953  3.948289  0.003  0.047888  0.089778  -0.000134  3.918774  0.0
C  C46  1  0.65479169  0.18871130  0.78066141  1  -0.351087  0.001323  3.686217  0.001  -0.43878  0.000985  3.924304  0.001  -0.441331  0.000622  3.933983  0.001  -0.246361  -0.436559  0.001329  3.917763  0.001
C  C47  1  0.15479442  0.31128912  0.28066241  1  -0.351073  -0.001333  3.686379  -0.001  -0.438751  -0.000986  3.92446  -0.001  -0.441305  -0.000622  3.934149  -0.001  -0.24636  -0.436535  -0.001329  3.917911  -0.001
C  C48  1  0.34520786  0.81128796  0.21933876  1  -0.3511  0.001339  3.686265  0.001  -0.438759  0.000985  3.924355  0.001  -0.441314  0.000622  3.934039  0.001  -0.246366  -0.436541  0.001329  3.917812  0.001
C  C49  1  0.84520716  0.68870629  0.71933777  1  -0.351049  -0.001332  3.686385  -0.001  -0.438764  -0.000986  3.924463  -0.001  -0.44132  -0.000622  3.934142  -0.001  -0.246345  -0.436534  -0.001329  3.917918  -0.001
S  S50  1  0.43175105  0.90586891  0.89214666  1  1.274225  0.002976  5.615569  0.001  1.184041  0.005288  6.137764  0.003  1.234803  0.003903  6.114038  0.003  0.517818  1.148842  0.006574  6.152499  0.004
S  S51  1  0.93175535  0.59412865  0.39214670  1  1.274179  -0.002973  5.615589  -0.001  1.183988  -0.005287  6.137796  -0.003  1.234751  -0.003902  6.114067  -0.003  0.51777  1.148792  -0.006574  6.152516  -0.004
S  S52  1  0.56824648  0.09413290  0.10785351  1  1.274268  0.002972  5.615433  0.001  1.184072  0.005285  6.13764  0.003  1.234833  0.003901  6.113916  0.003  0.517802  1.148863  0.006574  6.152381  0.004
S  S53  1  0.06824825  0.40587060  0.60785239  1  1.274286  -0.002974  5.615546  -0.001  1.184081  -0.005288  6.137764  -0.003  1.234844  -0.003902  6.114035  -0.003  0.517799  1.148878  -0.006574  6.152492  -0.004
N  N54  1  0.14249816  0.17457951  0.93353775  1  -0.284898  0.084007  3.396723  0.104  -0.24968  0.051676  3.692092  0.068  -0.278062  0.041988  3.716372  0.058  -0.350862  -0.231959  0.057253  3.676971  0.073
N  N55  1  0.64249824  0.32541918  0.43353860  1  -0.284897  -0.084008  3.396615  -0.104  -0.249632  -0.051679  3.691957  -0.068  -0.278027  -0.04199  3.716248  -0.058  -0.350848  -0.231912  -0.057254  3.676841  -0.073
N  N56  1  0.85749936  0.82542358  0.06646080  1  -0.284763  0.084004  3.396674  0.104  -0.24955  0.051675  3.692013  0.068  -0.277941  0.041986  3.716301  0.058  -0.350804  -0.23183  0.057251  3.676892  0.073
N  N57  1  0.35749928  0.67458391  0.56646049  1  -0.284798  -0.084004  3.396543  -0.104  -0.24953  -0.051678  3.691857  -0.068  -0.27792  -0.041988  3.716145  -0.058  -0.350823  -0.231811  -0.057253  3.676738  -0.073
O  O58  1  0.29633022  0.84910051  0.96074643  1  -0.658664  0.058041  2.077527  0.076  -0.629874  0.038724  2.379838  0.054  -0.66085  0.03001  2.364387  0.044  -0.350826  -0.608267  0.044646  2.390104  0.06
O  O59  1  0.79634107  0.65089656  0.46074789  1  -0.658624  -0.058043  2.077486  -0.076  -0.629814  -0.038726  2.379779  -0.054  -0.660787  -0.03001  2.364325  -0.044  -0.350777  -0.608232  -0.044649  2.390088  -0.06
O  O60  1  0.70366527  0.15090258  0.03925321  1  -0.658717  0.058041  2.077518  0.076  -0.629906  0.038726  2.379798  0.054  -0.660881  0.03001  2.364345  0.044  -0.350834  -0.608308  0.044648  2.390086  0.06
O  O61  1  0.20366455  0.34910525  0.53925120  1  -0.658698  -0.058044  2.077503  -0.076  -0.629866  -0.038727  2.379751  -0.054  -0.660839  -0.03001  2.364292  -0.044  -0.350816  -0.608278  -0.044648  2.390055  -0.06
O  O62  1  0.32382512  0.82502247  0.82733228  1  -0.614159  0.004662  1.959579  0.006  -0.562881  0.002752  2.198514  0.004  -0.585955  0.00155  2.18843  0.002  -0.313284  -0.546175  0.003999  2.204613  0.005
O  O63  1  0.82382400  0.67497729  0.32733312  1  -0.614136  -0.004663  1.95958  -0.006  -0.562851  -0.002751  2.198506  -0.004  -0.585933  -0.00155  2.188439  -0.002  -0.313259  -0.546143  -0.003998  2.2046  -0.005
O  O64  1  0.67617038  0.17497807  0.17266789  1  -0.61415  0.004662  1.959546  0.006  -0.562855  0.002752  2.198479  0.004  -0.585915  0.00155  2.188367  0.002  -0.313278  -0.546147  0.003998  2.204578  0.005
O  O65  1  0.17617960  0.32502324  0.67266652  1  -0.614152  -0.004664  1.959531  -0.006  -0.562869  -0.00275  2.198455  -0.004  -0.58595  -0.00155  2.188384  -0.002  -0.313267  -0.546158  -0.003998  2.204546  -0.005
O  O66  1  0.72607841  0.89535761  0.89928429  1  -0.645825  0.012669  2.025858  0.018  -0.617356  0.00688  2.301856  0.011  -0.642396  0.003795  2.28721  0.007  -0.330335  -0.598787  0.010149  2.311024  0.015
O  O67  1  0.22608149  0.60464300  0.39928384  1  -0.645809  -0.012673  2.02586  -0.018  -0.617346  -0.00688  2.301866  -0.011  -0.642386  -0.003794  2.287222  -0.007  -0.330332  -0.598778  -0.010148  2.311032  -0.015
O  O68  1  0.27391709  0.10464420  0.10071534  1  -0.645831  0.012672  2.025775  0.018  -0.617366  0.006881  2.301774  0.011  -0.642412  0.003795  2.287131  0.007  -0.330324  -0.598792  0.01015  2.310938  0.015
O  O69  1  0.77392211  0.39535497  0.60071580  1  -0.645848  -0.012668  2.025917  -0.018  -0.617352  -0.006878  2.301887  -0.011  -0.642394  -0.003794  2.287241  -0.007  -0.330322  -0.598788  -0.010148  2.311061  -0.015
