# generated using pymatgen
data_Mn3H42C56(NO3)4
_symmetry_space_group_name_H-M   'P 1'
_cell_length_a   9.18940284
_cell_length_b   11.93241046
_cell_length_c   12.43288315
_cell_angle_alpha   61.04980045
_cell_angle_beta   86.60359591
_cell_angle_gamma   76.74686706
_symmetry_Int_Tables_number   1
_chemical_formula_structural   Mn3H42C56(NO3)4
_chemical_formula_sum   'Mn3 H42 C56 N4 O12'
_cell_volume   1159.01683938
_cell_formula_units_Z   1
loop_
 _symmetry_equiv_pos_site_id
 _symmetry_equiv_pos_as_xyz
  1  'x, y, z'
loop_
 _atom_site_type_symbol
 _atom_site_label
 _atom_site_symmetry_multiplicity
 _atom_site_fract_x
 _atom_site_fract_y
 _atom_site_fract_z
 _atom_site_occupancy
 _atom_site_pbe_bader_charge
 _atom_site_pbe_bader_spin_density
 _atom_site_pbe_cm5_charge
 _atom_site_pbe_ddec_charge
 _atom_site_pbe_ddec_spin_density
 _atom_site_pbe_ddec_sum_bond_order
 _atom_site_pbe_magmom
Mn  Mn0  1  0.99972949  0.50054890  0.99976100  1  1.570271  4.561855  0.61249  1.10528  4.679044  2.239505  4.496
Mn  Mn1  1  0.79366516  0.83509594  0.81949419  1  1.473283  -4.492542  0.61576  0.866107  -4.634273  2.437541  -4.4
Mn  Mn2  1  0.20666272  0.16419259  0.18083375  1  1.473172  4.496291  0.616664  0.867914  4.623431  2.43756  4.403
H  H3  1  0.83330032  0.11883812  0.69877423  1  0.117699  -0.001368  0.123449  0.092815  -0.000858  1.022422  -0.001
H  H4  1  0.16724193  0.88054549  0.30159459  1  0.122308  0.00143  0.123441  0.092695  0.00091  1.021654  0.001
H  H5  1  0.59893832  0.61322301  0.88729277  1  0.121026  -0.001528  0.120526  0.089693  -0.001399  1.006702  -0.001
H  H6  1  0.40091133  0.38653115  0.11277033  1  0.11781  0.001402  0.120589  0.08933  0.000675  1.00685  0.001
H  H7  1  0.72545094  0.33647208  0.51605954  1  0.066428  -0.000514  0.104532  0.105685  -0.000223  1.038754  0.0
H  H8  1  0.27517793  0.66308929  0.48447000  1  0.079304  0.000521  0.104634  0.106236  0.000218  1.038898  0.0
H  H9  1  0.80155701  0.49858776  0.66761712  1  0.094555  9.3e-05  0.102773  0.102035  5e-06  1.026836  0.0
H  H10  1  0.19844728  0.50120955  0.33212050  1  0.092989  0.000126  0.102809  0.102039  -0.000152  1.026943  0.0
H  H11  1  0.46987827  0.55600171  0.21325212  1  0.030124  3.6e-05  0.091958  0.087822  4.3e-05  1.040334  0.0
H  H12  1  0.52971528  0.44398076  0.78697162  1  0.029259  0.000111  0.092145  0.087821  2.7e-05  1.040566  0.0
H  H13  1  0.24334760  0.57581490  0.10091010  1  0.119533  -0.000144  0.103731  0.105123  -0.000378  1.061404  0.0
H  H14  1  0.75625910  0.42438606  0.89914760  1  0.120024  0.000109  0.103617  0.105397  -8e-05  1.061958  0.0
H  H15  1  0.98526180  0.84098959  0.48376978  1  0.087869  -0.000296  0.104993  0.106599  3.1e-05  1.008743  0.0
H  H16  1  0.01504319  0.15865516  0.51631026  1  0.085709  0.000302  0.10501  0.106601  -5.5e-05  1.009009  0.0
H  H17  1  0.25429840  0.02337013  0.59800697  1  0.083189  -0.000633  0.105109  0.112494  -0.000403  1.042144  0.0
H  H18  1  0.74606802  0.97665485  0.40193976  1  0.049814  0.00066  0.105067  0.112279  0.000416  1.042059  0.0
H  H19  1  0.36684419  0.17181816  0.48818290  1  0.099906  -0.000735  0.10789  0.113937  -0.000565  1.035003  0.0
H  H20  1  0.63351523  0.82814130  0.51209206  1  0.099973  0.00075  0.107865  0.113878  0.000549  1.035409  0.0
H  H21  1  0.70209793  0.55051147  0.27276688  1  0.001262  -0.000561  0.095304  0.075424  -0.000433  0.982153  0.0
H  H22  1  0.29806825  0.44954305  0.72679357  1  -0.00491  0.000983  0.095356  0.075523  0.000406  0.982377  0.0
H  H23  1  0.77478547  0.50130484  0.46889429  1  0.056064  -0.000276  0.094195  0.088943  -0.000186  1.041658  0.0
H  H24  1  0.22537669  0.49863549  0.53074092  1  0.057176  0.000256  0.094217  0.089093  0.000169  1.041569  0.0
H  H25  1  0.95938187  0.84330567  0.28388213  1  0.07444  0.00019  0.102645  0.107562  -8.1e-05  1.023872  0.0
H  H26  1  0.04097296  0.15653114  0.71609348  1  0.075072  -8.3e-05  0.1026  0.107694  0.000153  1.024033  0.0
H  H27  1  0.14775688  0.99623852  0.94109951  1  0.087309  -0.000223  0.101014  0.098871  -0.000102  1.02534  0.0
H  H28  1  0.85241827  0.00395569  0.05895091  1  0.088568  0.0004  0.100832  0.098726  0.000219  1.025256  0.0
H  H29  1  0.56004296  0.73281844  0.30030951  1  0.045822  -3e-06  0.086106  0.086123  -7e-05  1.039364  0.0
H  H30  1  0.44000136  0.26661844  0.70011494  1  0.034704  0.000282  0.086031  0.086187  0.000237  1.039531  0.0
H  H31  1  0.60992306  0.85150391  0.15907353  1  0.067298  -0.00012  0.096893  0.104068  3e-06  0.988974  0.0
H  H32  1  0.38978482  0.14842507  0.84145410  1  0.067289  0.00015  0.096937  0.104061  -1.6e-05  0.988704  0.0
H  H33  1  0.95495498  0.59316557  0.24296877  1  0.081453  5.4e-05  0.100729  0.112868  -0.000336  1.019193  0.0
H  H34  1  0.04503153  0.40716130  0.75646619  1  0.080771  3.5e-05  0.100422  0.112518  -0.000316  1.019315  0.0
H  H35  1  0.88123052  0.76432894  0.16790774  1  0.050122  -0.00019  0.098389  0.102466  0.000105  0.993505  0.0
H  H36  1  0.11856902  0.23597833  0.83184052  1  0.05309  0.000222  0.098288  0.102334  -0.000176  0.992811  0.0
H  H37  1  0.16125474  0.81657144  0.69881505  1  0.111614  -2.8e-05  0.113592  0.12141  0.000427  0.995645  0.0
H  H38  1  0.83882999  0.18358658  0.30088613  1  0.111453  7.8e-05  0.113414  0.121245  -0.00053  0.996101  0.0
H  H39  1  0.37326295  0.97811797  0.05434363  1  0.078342  0.000698  0.102788  0.106666  0.000459  1.028464  0.0
H  H40  1  0.62691181  0.02183905  0.94586899  1  0.078986  -0.000543  0.102616  0.106687  -0.000379  1.028764  0.0
H  H41  1  0.48418497  0.36255547  0.40898640  1  0.084349  -0.00011  0.106233  0.098542  -0.000135  1.013717  0.0
H  H42  1  0.51637493  0.63726669  0.59143600  1  0.081418  0.000127  0.106161  0.098289  0.00014  1.013299  0.0
H  H43  1  0.33455853  0.60678107  0.84799332  1  0.151129  -0.000416  0.10851  0.124437  -0.000797  1.034369  0.0
H  H44  1  0.66524371  0.39326122  0.15178270  1  0.150477  0.000495  0.108921  0.125262  -0.000228  1.033441  0.0
C  C45  1  0.73122283  0.13518238  0.64785458  1  0.488933  -0.016573  0.061274  0.108002  -0.013895  3.92807  -0.011
C  C46  1  0.26927259  0.86434692  0.35249746  1  0.487301  0.016919  0.061551  0.107956  0.014091  3.927346  0.011
C  C47  1  0.51892306  0.70128968  0.82239504  1  0.417898  -0.007176  0.056503  0.106664  -0.005806  3.921818  -0.004
C  C48  1  0.48102602  0.29852870  0.17765169  1  0.421997  0.007466  0.056423  0.106907  0.005851  3.922822  0.004
C  C49  1  0.66925353  0.25605779  0.54699769  1  0.011074  0.001306  -0.082853  -0.130017  0.001295  3.972027  0.001
C  C50  1  0.33130667  0.74354470  0.45344846  1  -0.006134  -0.00126  -0.083262  -0.131544  -0.001289  3.972211  -0.001
C  C51  1  0.73936334  0.65827521  0.08154844  1  1.567076  0.002313  0.226769  0.612843  0.00089  4.118985  0.001
C  C52  1  0.25995023  0.34254596  0.91794264  1  1.570702  0.02571  0.227523  0.6144  0.025548  4.116641  0.022
C  C53  1  0.47632631  0.92562895  0.68759436  1  0.511518  -0.006648  0.121988  0.159871  -0.005074  3.999506  -0.004
C  C54  1  0.52391710  0.07419212  0.31253405  1  0.512884  0.00696  0.121975  0.160182  0.0053  3.998948  0.004
C  C55  1  0.83698609  0.57362143  0.58339026  1  -0.045931  -0.001204  -0.084716  -0.090544  -0.000946  3.99051  -0.001
C  C56  1  0.16314467  0.42615652  0.41639772  1  -0.038694  0.002698  -0.084499  -0.08993  0.001822  3.989966  0.002
C  C57  1  0.39947979  0.65325951  0.15420121  1  -0.044577  -4.1e-05  -0.103895  -0.157664  5e-05  3.988964  0.0
C  C58  1  0.60020013  0.34677042  0.84601761  1  -0.040992  -0.000212  -0.104411  -0.158258  -0.000216  3.98937  0.0
C  C59  1  0.27384337  0.66344128  0.09014372  1  -0.065843  -0.000841  -0.088062  -0.090966  -0.000792  3.992232  -0.001
C  C60  1  0.72585816  0.33671169  0.90997550  1  -0.071599  0.003364  -0.087974  -0.090595  0.002316  3.991943  0.002
C  C61  1  0.90193477  0.67632003  0.70530269  1  1.566438  -0.005791  0.216911  0.577366  -0.007705  4.186947  -0.005
C  C62  1  0.09751091  0.32356206  0.29455049  1  1.569696  0.020314  0.218535  0.580063  0.020894  4.186094  0.017
C  C63  1  0.89656923  0.66916389  0.58865860  1  -0.064623  0.001077  -0.024987  -0.056213  0.001279  3.989896  0.001
C  C64  1  0.10354756  0.33055412  0.41124935  1  -0.052291  0.002253  -0.025279  -0.057648  0.001069  3.991109  0.001
C  C65  1  0.53920472  0.04389303  0.63411598  1  0.459427  -0.016648  0.128391  0.174551  -0.012917  3.962326  -0.011
C  C66  1  0.46116342  0.95584766  0.36611606  1  0.462665  0.017028  0.128414  0.174915  0.013149  3.962465  0.011
C  C67  1  0.94114121  0.76561744  0.47972648  1  -0.059116  -0.000567  -0.090524  -0.107594  -0.00022  4.026644  0.0
C  C68  1  0.05915957  0.23407643  0.52026016  1  -0.05831  0.00295  -0.090175  -0.107039  0.002116  4.02692  0.002
C  C69  1  0.32843970  0.93037229  0.66079020  1  -0.037431  -0.001324  -0.078816  -0.150819  -0.000916  3.926052  0.0
C  C70  1  0.67179192  0.06959730  0.33919178  1  0.001054  0.001315  -0.078445  -0.150117  0.000931  3.92551  0.0
C  C71  1  0.47046024  0.16281983  0.53265388  1  0.005901  0.002895  -0.076974  -0.153918  0.002309  3.942028  0.003
C  C72  1  0.52995845  0.83700777  0.46764792  1  -0.003001  -0.002902  -0.077145  -0.154492  -0.002333  3.943081  -0.003
C  C73  1  0.43947068  0.76581769  0.14087439  1  -0.059128  -0.000282  -0.005491  0.136588  4e-06  3.953895  0.0
C  C74  1  0.56037393  0.23413187  0.85940079  1  -0.054805  0.003011  -0.005275  0.136565  0.002135  3.954079  0.002
C  C75  1  0.71531672  0.65028355  0.20732827  1  0.036439  -8.6e-05  -0.087045  -0.099284  7.6e-05  3.869181  0.0
C  C76  1  0.28463382  0.34990385  0.79243401  1  0.039847  0.004253  -0.086938  -0.100762  0.002979  3.869834  0.002
C  C77  1  0.82182158  0.57587290  0.47159697  1  -0.050334  -0.000196  -0.09257  -0.138714  -0.000171  3.97631  0.0
C  C78  1  0.17836032  0.42399669  0.52814030  1  -0.068645  -0.000246  -0.092413  -0.138914  -0.000162  3.975148  0.0
C  C79  1  0.86762440  0.67100657  0.36255009  1  -0.033527  -0.000558  -0.000517  0.144456  -0.000444  3.945075  0.0
C  C80  1  0.13256862  0.32893603  0.63723179  1  -0.030913  0.002851  -0.001166  0.143701  0.002301  3.944306  0.002
C  C81  1  0.05415889  0.79667702  0.93826358  1  1.515694  0.002174  0.216345  0.584091  0.000716  4.172473  0.004
C  C82  1  0.94566467  0.20393104  0.06163644  1  1.511262  0.015769  0.216353  0.582812  0.016183  4.174459  0.014
C  C83  1  0.92673660  0.76638464  0.36852576  1  -0.081311  0.000583  -0.093848  -0.152717  0.000384  3.965742  0.0
C  C84  1  0.07358962  0.23341954  0.63140646  1  -0.082059  -0.000167  -0.093767  -0.152793  -1.9e-05  3.965405  0.0
C  C85  1  0.18360935  0.78727961  0.01099423  1  -0.042701  0.000379  -0.026485  -0.062614  0.000435  4.005933  0.001
C  C86  1  0.81627491  0.21295538  0.98904756  1  -0.046014  0.000999  -0.02658  -0.062302  4.2e-05  4.006423  0.0
C  C87  1  0.21958936  0.90014527  0.00039405  1  -0.01891  -0.000546  -0.081386  -0.072342  -0.000401  3.966361  0.0
C  C88  1  0.78045175  0.10001821  0.99970350  1  -0.019784  0.003353  -0.08167  -0.073065  0.002682  3.967114  0.002
C  C89  1  0.58029365  0.75527965  0.20451139  1  -0.049733  -0.000599  -0.163161  -0.220539  -0.000359  3.941425  0.0
C  C90  1  0.41958433  0.24457346  0.79578800  1  -0.039383  0.00073  -0.163228  -0.220014  0.000456  3.941491  0.0
C  C91  1  0.86190893  0.67045507  0.24229662  1  -0.033055  0.000356  -0.156344  -0.222432  0.000401  3.903954  0.0
C  C92  1  0.13806963  0.32973818  0.75738393  1  -0.03561  0.001766  -0.155838  -0.221073  0.001229  3.901977  0.001
C  C93  1  0.27643432  0.81519392  0.71744232  1  -0.006448  -0.005787  -0.063123  -0.015647  -0.004389  3.930421  -0.003
C  C94  1  0.72363328  0.18485789  0.28240761  1  -0.013222  0.006291  -0.062667  -0.015017  0.004605  3.930447  0.004
C  C95  1  0.34602600  0.88923703  0.06445748  1  -0.022194  0.000618  -0.09262  -0.145817  0.000708  3.954626  0.0
C  C96  1  0.65399076  0.11078075  0.93574946  1  -0.020131  -0.000745  -0.092703  -0.145534  -0.000796  3.953833  -0.001
C  C97  1  0.53653902  0.26981303  0.48834553  1  -0.04781  -0.016539  -0.066098  -0.02728  -0.012931  3.983481  -0.01
C  C98  1  0.46397850  0.72994690  0.51203320  1  -0.038977  0.01694  -0.065291  -0.025247  0.013223  3.981688  0.01
C  C99  1  0.37312718  0.69809592  0.80048260  1  -0.048333  -0.002226  -0.078661  -0.126518  -0.001612  3.935764  -0.001
C  C100  1  0.62680135  0.30188376  0.19940807  1  -0.046668  0.002238  -0.079118  -0.127143  0.001512  3.936521  0.001
N  N101  1  0.57022030  0.81177370  0.76686115  1  -1.238395  -0.051291  -0.306625  -0.275777  -0.036553  3.465308  -0.023
N  N102  1  0.42987935  0.18796438  0.23330756  1  -1.239136  0.051432  -0.306603  -0.276844  0.03639  3.465536  0.023
N  N103  1  0.66904567  0.03128409  0.68981424  1  -1.273055  -0.059422  -0.317879  -0.268785  -0.037779  3.480471  -0.015
N  N104  1  0.33138946  0.96829714  0.31042819  1  -1.272159  0.059597  -0.318163  -0.26906  0.037771  3.482052  0.014
O  O105  1  0.02831906  0.69023681  0.94949117  1  -1.22715  0.022056  -0.307546  -0.589778  0.017432  2.402356  0.004
O  O106  1  0.97089938  0.31043522  0.05051559  1  -1.217204  0.09278  -0.30732  -0.58896  0.070552  2.401876  0.047
O  O107  1  0.89452096  0.57603304  0.80795163  1  -1.204371  0.023962  -0.294417  -0.574013  0.018649  2.308946  0.006
O  O108  1  0.10363033  0.42420502  0.19187477  1  -1.207627  0.061652  -0.294337  -0.573554  0.04785  2.309732  0.032
O  O109  1  0.78989379  0.55337979  0.07481201  1  -1.21834  0.039616  -0.310933  -0.593478  0.029224  2.300294  0.013
O  O110  1  0.20875889  0.44776212  0.92397382  1  -1.216144  0.059559  -0.311156  -0.593316  0.044276  2.299736  0.027
O  O111  1  0.97074392  0.90856123  0.86592615  1  -1.185086  -0.045945  -0.310981  -0.546284  -0.031255  2.197898  -0.02
O  O112  1  0.02949256  0.09208387  0.13381907  1  -1.190732  0.065112  -0.311899  -0.546745  0.044953  2.199571  0.035
O  O113  1  0.90724842  0.78906819  0.69181602  1  -1.193884  -0.06421  -0.323969  -0.560852  -0.043293  2.319902  -0.025
O  O114  1  0.09261767  0.21071040  0.30809602  1  -1.194535  0.072613  -0.324938  -0.562342  0.0486  2.319701  0.031
O  O115  1  0.71408857  0.77455728  0.99052919  1  -1.198625  -0.061496  -0.311621  -0.537395  -0.040878  2.374716  -0.021
O  O116  1  0.28533294  0.22649610  0.00925429  1  -1.200671  0.078925  -0.311795  -0.538407  0.052974  2.373728  0.035
