# generated using pymatgen
data_CuPH8C3NO4
_symmetry_space_group_name_H-M   'P 1'
_cell_length_a   5.98468038
_cell_length_b   5.98320459
_cell_length_c   9.15595074
_cell_angle_alpha   91.80331431
_cell_angle_beta   97.99018358
_cell_angle_gamma   110.71333798
_symmetry_Int_Tables_number   1
_chemical_formula_structural   CuPH8C3NO4
_chemical_formula_sum   'Cu2 P2 H16 C6 N2 O8'
_cell_volume   302.53061150
_cell_formula_units_Z   2
loop_
 _symmetry_equiv_pos_site_id
 _symmetry_equiv_pos_as_xyz
  1  'x, y, z'
loop_
 _atom_site_type_symbol
 _atom_site_label
 _atom_site_symmetry_multiplicity
 _atom_site_fract_x
 _atom_site_fract_y
 _atom_site_fract_z
 _atom_site_occupancy
 _atom_site_pbe_cm5_charge
 _atom_site_pbe_ddec_charge
 _atom_site_pbe_ddec_spin_density
 _atom_site_pbe_ddec_sum_bond_order
 _atom_site_pbe_magmom
Cu  Cu0  1  0.15952688  0.10456376  0.37684960  1  0.737238  0.929324  0.698219  2.074082  0.567
Cu  Cu1  1  0.84047150  0.89544033  0.62314984  1  0.737219  0.929352  -0.69823  2.074095  -0.567
P  P2  1  0.61336283  0.00645228  0.29214104  1  0.327938  1.27454  0.004935  5.390954  0.002
P  P3  1  0.38664099  0.99356616  0.70786026  1  0.327923  1.274519  -0.004933  5.391416  -0.002
H  H4  1  0.29629246  0.59087906  0.33876914  1  0.281295  0.3748  -7.1e-05  0.977628  0.0
H  H5  1  0.70370858  0.40913219  0.66122740  1  0.281315  0.374889  7.1e-05  0.977476  0.0
H  H6  1  0.28169682  0.57446188  0.50689925  1  0.29379  0.401978  -0.000195  0.919551  0.0
H  H7  1  0.71830117  0.42554579  0.49309587  1  0.29375  0.401837  0.000195  0.919756  0.0
H  H8  1  0.89112535  0.35672784  0.20886874  1  0.124273  0.15745  0.000374  0.995585  0.001
H  H9  1  0.10886459  0.64325835  0.79113180  1  0.124257  0.157441  -0.000373  0.995624  -0.001
H  H10  1  0.70362177  0.15995766  0.05290451  1  0.109692  0.132575  0.00181  1.022474  0.003
H  H11  1  0.29637930  0.84003559  0.94709823  1  0.109688  0.132602  -0.00181  1.02237  -0.003
H  H12  1  0.78577942  0.71390885  0.16263167  1  0.119131  0.119734  -0.000433  0.990351  0.0
H  H13  1  0.21422975  0.28608789  0.83737401  1  0.119167  0.119777  0.000433  0.990301  0.0
H  H14  1  0.08234036  0.76611647  0.12243411  1  0.108563  0.099354  0.000462  1.05588  0.001
H  H15  1  0.91766843  0.23388387  0.87756834  1  0.108587  0.099368  -0.000461  1.055833  -0.001
H  H16  1  0.34257557  0.17088449  0.08312013  1  0.11095  0.0916  0.000754  1.023821  0.001
H  H17  1  0.65742922  0.82911412  0.91688412  1  0.110936  0.091599  -0.000755  1.023917  -0.001
H  H18  1  0.24143620  0.41173733  0.10166047  1  0.118643  0.129332  -0.00029  0.986505  0.0
H  H19  1  0.75856828  0.58826490  0.89834492  1  0.118652  0.129353  0.00029  0.986504  0.0
C  C20  1  0.80861466  0.16891597  0.16322578  1  -0.088675  -0.396208  -0.001074  3.831501  -0.004
C  C21  1  0.19138732  0.83107542  0.83677044  1  -0.088689  -0.396289  0.001075  3.831368  0.004
C  C22  1  0.92454779  0.82019898  0.10028848  1  -0.081874  -0.134619  -0.00362  3.855287  -0.006
C  C23  1  0.07545501  0.17980327  0.89971677  1  -0.081923  -0.134642  0.00362  3.855293  0.006
C  C24  1  0.18255856  0.22100168  0.06405720  1  -0.071558  -0.084189  -0.003643  3.810218  -0.006
C  C25  1  0.81744746  0.77900046  0.93593849  1  -0.071515  -0.084248  0.003647  3.810333  0.006
N  N26  1  0.00898749  0.07761906  0.15677669  1  -0.337906  -0.051519  0.075305  3.522267  0.102
N  N27  1  0.99100959  0.92237246  0.84322895  1  -0.337923  -0.051476  -0.075301  3.522227  -0.102
O  O28  1  0.80933939  0.97028451  0.41226826  1  -0.395456  -0.755665  0.014835  2.501742  0.02
O  O29  1  0.19065301  0.02971249  0.58773708  1  -0.395425  -0.755639  -0.01483  2.501802  -0.02
O  O30  1  0.43053089  0.77281531  0.21412078  1  -0.373351  -0.746812  0.002547  2.185349  0.004
O  O31  1  0.56945463  0.22717272  0.78587505  1  -0.373318  -0.746806  -0.002545  2.185762  -0.004
O  O32  1  0.50107760  0.17852504  0.35319565  1  -0.37897  -0.751148  0.040259  2.353031  0.056
O  O33  1  0.49891946  0.82147549  0.64680688  1  -0.378972  -0.751183  -0.040268  2.352999  -0.056
O  O34  1  0.20162675  0.48829328  0.40934978  1  -0.603744  -0.790538  -0.001181  2.084771  -0.001
O  O35  1  0.79837272  0.51171428  0.59063126  1  -0.603709  -0.790444  0.001181  2.084825  0.001
