# generated using pymatgen
data_Ag2H6C7N2O5
_symmetry_space_group_name_H-M   'P 1'
_cell_length_a   7.62108781
_cell_length_b   8.36600810
_cell_length_c   15.27549978
_cell_angle_alpha   101.90671616
_cell_angle_beta   89.99985382
_cell_angle_gamma   90.00085199
_symmetry_Int_Tables_number   1
_chemical_formula_structural   Ag2H6C7N2O5
_chemical_formula_sum   'Ag8 H24 C28 N8 O20'
_cell_volume   952.98213994
_cell_formula_units_Z   4
loop_
 _symmetry_equiv_pos_site_id
 _symmetry_equiv_pos_as_xyz
  1  'x, y, z'
loop_
 _atom_site_type_symbol
 _atom_site_label
 _atom_site_symmetry_multiplicity
 _atom_site_fract_x
 _atom_site_fract_y
 _atom_site_fract_z
 _atom_site_occupancy
 _atom_site_hle17_bader_spin_density
 _atom_site_hle17_ddec_charge
 _atom_site_hle17_ddec_spin_density
 _atom_site_hle17_ddec_sum_bond_order
 _atom_site_hle17_magmom
 _atom_site_hse06_10hf_bader_spin_density
 _atom_site_hse06_10hf_ddec_charge
 _atom_site_hse06_10hf_ddec_spin_density
 _atom_site_hse06_10hf_ddec_sum_bond_order
 _atom_site_hse06_10hf_magmom
 _atom_site_hse06_bader_spin_density
 _atom_site_hse06_ddec_charge
 _atom_site_hse06_ddec_spin_density
 _atom_site_hse06_ddec_sum_bond_order
 _atom_site_hse06_magmom
 _atom_site_pbe_bader_spin_density
 _atom_site_pbe_cm5_charge
 _atom_site_pbe_ddec_charge
 _atom_site_pbe_ddec_spin_density
 _atom_site_pbe_ddec_sum_bond_order
 _atom_site_pbe_magmom
Ag  Ag0  1  0.33157679  0.66314728  0.29369813  1  0  0.626132  0  1.274075  0  0  0.500382  0  1.70389  0  0  0.531191  0  1.65203  0  0  0.453855  0.478782  0  1.74004  0
Ag  Ag1  1  0.83157662  0.83684712  0.20630153  1  0  0.626136  0  1.274071  0  0  0.500378  0  1.703894  0  0  0.531189  0  1.652032  0  0  0.453831  0.478781  0  1.740043  0
Ag  Ag2  1  0.66842521  0.33685210  0.70629894  1  0  0.626102  0  1.274076  0  0  0.50036  0  1.703913  0  0  0.531167  0  1.652048  0  0  0.453837  0.47876  0  1.740064  0
Ag  Ag3  1  0.16842144  0.16315105  0.79369736  1  0  0.626176  0  1.274096  0  0  0.500422  0  1.703951  0  0  0.531232  0  1.652087  0  0  0.453869  0.478825  0  1.740094  0
Ag  Ag4  1  0.04278685  0.00762532  0.41314880  1  0  0.57154  0  1.450193  0  0  0.462333  0  1.911988  0  0  0.494465  0  1.852697  0  0  0.41988  0.440118  0  1.952932  0
Ag  Ag5  1  0.54277674  0.49238289  0.08685260  1  0  0.57153  0  1.450158  0  0  0.462299  0  1.911965  0  0  0.49444  0  1.852667  0  0  0.419877  0.440078  0  1.952918  0
Ag  Ag6  1  0.95722564  0.99236918  0.58684772  1  0  0.571523  0  1.450188  0  0  0.462288  0  1.911998  0  0  0.494422  0  1.852706  0  0  0.419894  0.440079  0  1.952942  0
Ag  Ag7  1  0.45721738  0.50762871  0.91315239  1  0  0.571524  0  1.450178  0  0  0.462282  0  1.912005  0  0  0.494411  0  1.852718  0  0  0.419869  0.440062  0  1.952954  0
H  H8  1  0.58000805  0.30395976  0.34454711  1  0  0.118649  0  0.964117  0  0  0.123247  0  1.035758  0  0  0.127531  0  1.0325  0  0  0.104715  0.120135  0  1.038201  0
H  H9  1  0.08000554  0.19603185  0.15545107  1  0  0.118695  0  0.96403  0  0  0.123311  0  1.035651  0  0  0.127585  0  1.032407  0  0  0.104754  0.1202  0  1.038093  0
H  H10  1  0.41999263  0.69604084  0.65545010  1  0  0.11867  0  0.964118  0  0  0.123264  0  1.035786  0  0  0.127529  0  1.032549  0  0  0.104717  0.120153  0  1.03823  0
H  H11  1  0.91998858  0.80396021  0.84454714  1  0  0.118666  0  0.964078  0  0  0.12327  0  1.035699  0  0  0.127555  0  1.032441  0  0  0.104741  0.120161  0  1.038145  0
H  H12  1  0.05116417  0.40356390  0.44040520  1  0  0.11545  0  0.954863  0  0  0.126817  0  1.01221  0  0  0.129676  0  1.011409  0  0  0.105742  0.124766  0  1.01286  0
H  H13  1  0.55116211  0.09642245  0.05959766  1  0  0.115495  0  0.954814  0  0  0.126836  0  1.012189  0  0  0.129696  0  1.011386  0  0  0.105717  0.124784  0  1.012837  0
H  H14  1  0.94883782  0.59643550  0.55959776  1  0  0.115416  0  0.954859  0  0  0.126782  0  1.012211  0  0  0.129644  0  1.011406  0  0  0.105732  0.124731  0  1.012863  0
H  H15  1  0.44883857  0.90358549  0.94040299  1  0  0.115469  0  0.954842  0  0  0.126787  0  1.012244  0  0  0.129649  0  1.011438  0  0  0.105722  0.124737  0  1.012887  0
H  H16  1  0.12400819  0.29829370  0.57666936  1  0  0.080612  0  0.988197  0  0  0.087425  0  1.060772  0  0  0.090406  0  1.058139  0  0  0.092305  0.085153  0  1.062917  0
H  H17  1  0.62399549  0.20169054  0.92333272  1  0  0.080612  0  0.988137  0  0  0.087421  0  1.060717  0  0  0.090407  0  1.058075  0  0  0.092341  0.085161  0  1.062851  0
H  H18  1  0.87599642  0.70169959  0.42333292  1  0  0.0806  0  0.98814  0  0  0.087392  0  1.060765  0  0  0.090377  0  1.058123  0  0  0.092307  0.085119  0  1.062911  0
H  H19  1  0.37600257  0.79831374  0.07666948  1  0  0.080576  0  0.988162  0  0  0.087365  0  1.060781  0  0  0.090349  0  1.058142  0  0  0.092338  0.085118  0  1.062901  0
H  H20  1  0.42136896  0.18456684  0.59427835  1  0  0.091955  0  0.973673  0  0  0.101936  0  1.042345  0  0  0.105494  0  1.039218  0  0  0.095048  0.099316  0  1.044777  0
H  H21  1  0.92135166  0.31541653  0.90572391  1  0  0.091913  0  0.973733  0  0  0.101972  0  1.042326  0  0  0.105531  0  1.039197  0  0  0.095065  0.099325  0  1.044794  0
H  H22  1  0.57864091  0.81543377  0.40572148  1  0  0.09193  0  0.973643  0  0  0.101934  0  1.042287  0  0  0.105493  0  1.039159  0  0  0.095048  0.09931  0  1.044722  0
H  H23  1  0.07864377  0.68458042  0.09427812  1  0  0.091894  0  0.97374  0  0  0.101938  0  1.042352  0  0  0.105496  0  1.039223  0  0  0.095032  0.099301  0  1.044803  0
H  H24  1  0.13061128  0.41291940  0.29682301  1  0  0.299785  0  0.945442  0  0  0.283404  0  1.009124  0  0  0.290589  0  1.003929  0  0  0.288574  0.278246  0  1.012799  0
H  H25  1  0.63061095  0.08707779  0.20318163  1  0  0.299823  0  0.945433  0  0  0.283397  0  1.009169  0  0  0.290586  0  1.003966  0  0  0.288553  0.27824  0  1.012842  0
H  H26  1  0.86939202  0.58708243  0.70317826  1  0  0.299851  0  0.945389  0  0  0.283458  0  1.009064  0  0  0.29065  0  1.003861  0  0  0.288578  0.278302  0  1.012738  0
H  H27  1  0.36938579  0.91292526  0.79682109  1  0  0.299748  0  0.945513  0  0  0.283363  0  1.009203  0  0  0.290557  0  1.003995  0  0  0.288535  0.278205  0  1.012876  0
H  H28  1  0.31858529  0.34131909  0.24896202  1  0  0.316365  0  0.906232  0  0  0.302635  0  0.96585  0  0  0.30938  0  0.960573  0  0  0.297568  0.297813  0  0.969552  0
H  H29  1  0.81858852  0.15867819  0.25103912  1  0  0.316393  0  0.906208  0  0  0.302649  0  0.965847  0  0  0.309388  0  0.960583  0  0  0.297566  0.297826  0  0.969552  0
H  H30  1  0.68141539  0.65868152  0.75103912  1  0  0.316393  0  0.906239  0  0  0.302634  0  0.96589  0  0  0.309381  0  0.960611  0  0  0.297543  0.297811  0  0.969595  0
H  H31  1  0.18141085  0.84132486  0.74896229  1  0  0.316394  0  0.906252  0  0  0.302671  0  0.965865  0  0  0.309417  0  0.960588  0  0  0.29757  0.29785  0  0.969572  0
C  C32  1  0.47932279  0.30111051  0.39474627  1  0  -0.154827  0  3.652693  0  0  -0.184485  0  3.899567  0  0  -0.187684  0  3.920077  0  0  -0.092462  -0.1822  0  3.885717  0
C  C33  1  0.97931694  0.19887917  0.10525184  1  0  -0.154872  0  3.652867  0  0  -0.184556  0  3.899774  0  0  -0.187747  0  3.920292  0  0  -0.092497  -0.182271  0  3.885928  0
C  C34  1  0.52068051  0.69889376  0.60525462  1  0  -0.154856  0  3.652748  0  0  -0.184513  0  3.899654  0  0  -0.187698  0  3.920184  0  0  -0.092447  -0.182229  0  3.885809  0
C  C35  1  0.02067718  0.80111411  0.89474650  1  0  -0.154919  0  3.652913  0  0  -0.184577  0  3.899729  0  0  -0.18778  0  3.92025  0  0  -0.092491  -0.182294  0  3.885889  0
C  C36  1  0.31060592  0.35950831  0.38359233  1  0  0.278857  0  3.778875  0  0  0.2768  0  4.023654  0  0  0.283156  0  4.04799  0  0  0.080443  0.272281  0  4.007106  0
C  C37  1  0.81060167  0.14048276  0.11640550  1  0  0.279051  0  3.778699  0  0  0.276884  0  4.0236  0  0  0.283239  0  4.047931  0  0  0.0805  0.272365  0  4.007055  0
C  C38  1  0.68938951  0.64049230  0.61640750  1  0  0.278982  0  3.778632  0  0  0.276875  0  4.023468  0  0  0.28323  0  4.047801  0  0  0.080473  0.272356  0  4.006922  0
C  C39  1  0.18939114  0.85951174  0.88359167  1  0  0.279172  0  3.778756  0  0  0.277037  0  4.023617  0  0  0.283393  0  4.047948  0  0  0.080501  0.272516  0  4.007076  0
C  C40  1  0.18304390  0.35945596  0.44984949  1  0  -0.171064  0  3.710015  0  0  -0.18547  0  3.952189  0  0  -0.189556  0  3.97197  0  0  -0.101841  -0.18267  0  3.938915  0
C  C41  1  0.68304131  0.14053461  0.05015171  1  0  -0.171272  0  3.710278  0  0  -0.185632  0  3.95249  0  0  -0.189719  0  3.972272  0  0  -0.101882  -0.182829  0  3.939216  0
C  C42  1  0.81695546  0.64054099  0.55015058  1  0  -0.171028  0  3.710217  0  0  -0.185398  0  3.95238  0  0  -0.189483  0  3.972165  0  0  -0.101827  -0.182596  0  3.939104  0
C  C43  1  0.31695674  0.85946722  0.94984759  1  0  -0.171171  0  3.710361  0  0  -0.185519  0  3.952544  0  0  -0.189605  0  3.972325  0  0  -0.101791  -0.182717  0  3.939275  0
C  C44  1  0.22478922  0.29956814  0.52614219  1  0  -0.082814  0  3.840279  0  0  -0.090029  0  4.091603  0  0  -0.09278  0  4.114283  0  0  -0.10602  -0.088093  0  4.076277  0
C  C45  1  0.72478149  0.20041746  0.97386057  1  0  -0.082594  0  3.840187  0  0  -0.089789  0  4.091483  0  0  -0.092539  0  4.114163  0  0  -0.105966  -0.087862  0  4.076144  0
C  C46  1  0.77521408  0.70042881  0.47386115  1  0  -0.082792  0  3.840499  0  0  -0.090009  0  4.091808  0  0  -0.092761  0  4.114493  0  0  -0.105986  -0.088068  0  4.076474  0
C  C47  1  0.27521920  0.79958803  0.02613850  1  0  -0.08255  0  3.840379  0  0  -0.089732  0  4.091671  0  0  -0.092481  0  4.114354  0  0  -0.105989  -0.087814  0  4.076323  0
C  C48  1  0.39208502  0.23874288  0.53689957  1  0  -0.097663  0  3.756663  0  0  -0.12404  0  4.003619  0  0  -0.126497  0  4.026731  0  0  -0.102144  -0.12237  0  3.988081  0
C  C49  1  0.89207441  0.26124864  0.96310103  1  0  -0.097648  0  3.756257  0  0  -0.124128  0  4.003178  0  0  -0.126587  0  4.026289  0  0  -0.102154  -0.122441  0  3.987664  0
C  C50  1  0.60792353  0.76125529  0.46309998  1  0  -0.097526  0  3.756386  0  0  -0.123922  0  4.003344  0  0  -0.126374  0  4.026448  0  0  -0.102128  -0.122251  0  3.987805  0
C  C51  1  0.10793152  0.73874952  0.03690049  1  0  -0.097693  0  3.756227  0  0  -0.124185  0  4.00316  0  0  -0.126644  0  4.02627  0  0  -0.10215  -0.122502  0  3.987637  0
C  C52  1  0.51977563  0.23922901  0.47079406  1  0  -0.041025  0  3.753025  0  0  -0.012456  0  3.977587  0  0  -0.019302  0  4.001739  0  0  -0.018776  -0.007932  0  3.961246  0
C  C53  1  0.01977090  0.26076179  0.02920803  1  0  -0.041282  0  3.753064  0  0  -0.01259  0  3.977572  0  0  -0.019436  0  4.00172  0  0  -0.018882  -0.008065  0  3.961227  0
C  C54  1  0.48022636  0.76077404  0.52920604  1  0  -0.041156  0  3.752986  0  0  -0.012576  0  3.977581  0  0  -0.019422  0  4.00173  0  0  -0.018863  -0.008049  0  3.961237  0
C  C55  1  0.98022584  0.73923882  0.97079507  1  0  -0.041215  0  3.752952  0  0  -0.012485  0  3.977374  0  0  -0.019329  0  4.001521  0  0  -0.018829  -0.007961  0  3.961034  0
C  C56  1  0.69677073  0.16592317  0.47941665  1  0  0.650933  0  3.875608  0  0  0.601178  0  4.148402  0  0  0.636469  0  4.145459  0  0  0.209079  0.577178  0  4.149375  0
C  C57  1  0.19676201  0.33407369  0.02058328  1  0  0.650933  0  3.87544  0  0  0.601087  0  4.148324  0  0  0.63638  0  4.145378  0  0  0.209043  0.577091  0  4.149303  0
C  C58  1  0.30323126  0.83407866  0.52058004  1  0  0.650678  0  3.875438  0  0  0.600894  0  4.148294  0  0  0.636185  0  4.145352  0  0  0.209002  0.576897  0  4.149267  0
C  C59  1  0.80323342  0.66592326  0.97941940  1  0  0.650932  0  3.875316  0  0  0.601084  0  4.148179  0  0  0.636376  0  4.145235  0  0  0.209082  0.577086  0  4.149154  0
N  N60  1  0.26513670  0.41537679  0.30446649  1  0  -0.653922  0  3.243926  0  0  -0.586673  0  3.496095  0  0  -0.610219  0  3.494225  0  0  -0.62791  -0.570001  0  3.496806  0
N  N61  1  0.76513506  0.08461734  0.19553566  1  0  -0.654046  0  3.243824  0  0  -0.586733  0  3.496111  0  0  -0.61028  0  3.494238  0  0  -0.627899  -0.570059  0  3.496822  0
N  N62  1  0.73486398  0.58462016  0.69553685  1  0  -0.654049  0  3.243691  0  0  -0.586795  0  3.496024  0  0  -0.610328  0  3.494114  0  0  -0.627895  -0.570121  0  3.496737  0
N  N63  1  0.23485906  0.91538694  0.80446457  1  0  -0.654087  0  3.243972  0  0  -0.586876  0  3.496267  0  0  -0.610418  0  3.494379  0  0  -0.627949  -0.570203  0  3.496983  0
N  N64  1  0.32717341  0.98693631  0.23393519  1  0  0.701667  0  4.098312  0  0  0.728926  0  4.382924  0  0  0.757977  0  4.392162  0  0  0.102075  0.723446  0  4.35594  0
N  N65  1  0.82717548  0.51306291  0.26606438  1  0  0.701592  0  4.098686  0  0  0.728961  0  4.383149  0  0  0.757933  0  4.392484  0  0  0.102026  0.723421  0  4.356223  0
N  N66  1  0.67282727  0.01306552  0.76606478  1  0  0.701564  0  4.09859  0  0  0.728905  0  4.383097  0  0  0.757891  0  4.392421  0  0  0.102044  0.723376  0  4.356177  0
N  N67  1  0.17282520  0.48693770  0.73393283  1  0  0.701903  0  4.098242  0  0  0.728909  0  4.38315  0  0  0.758111  0  4.3922  0  0  0.102086  0.723457  0  4.356121  0
O  O68  1  0.74178232  0.14729286  0.55761153  1  0  -0.651977  0  2.200841  0  0  -0.562377  0  2.484375  0  0  -0.596912  0  2.471987  0  0  -0.334197  -0.538172  0  2.491761  0
O  O69  1  0.24177303  0.35271007  0.94238596  1  0  -0.652022  0  2.200896  0  0  -0.562406  0  2.484498  0  0  -0.596945  0  2.472105  0  0  -0.334216  -0.538173  0  2.491815  0
O  O70  1  0.25822361  0.85271141  0.44238347  1  0  -0.651945  0  2.20091  0  0  -0.562352  0  2.484492  0  0  -0.596888  0  2.4721  0  0  -0.334218  -0.53813  0  2.491838  0
O  O71  1  0.75821846  0.64729299  0.05761479  1  0  -0.652011  0  2.200889  0  0  -0.562404  0  2.484488  0  0  -0.596941  0  2.472095  0  0  -0.334233  -0.538182  0  2.491838  0
O  O72  1  0.78781401  0.12404889  0.40844553  1  0  -0.604974  0  2.096403  0  0  -0.530594  0  2.369101  0  0  -0.562123  0  2.357704  0  0  -0.32023  -0.508673  0  2.376119  0
O  O73  1  0.28781217  0.37593576  0.09154768  1  0  -0.604873  0  2.09645  0  0  -0.530458  0  2.369155  0  0  -0.561985  0  2.357752  0  0  -0.320164  -0.508539  0  2.376171  0
O  O74  1  0.21218799  0.87595293  0.59154789  1  0  -0.604811  0  2.096384  0  0  -0.530386  0  2.369047  0  0  -0.561912  0  2.357647  0  0  -0.320174  -0.50847  0  2.376065  0
O  O75  1  0.71218327  0.62404897  0.90845167  1  0  -0.604875  0  2.096271  0  0  -0.530451  0  2.368963  0  0  -0.56198  0  2.357567  0  0  -0.320206  -0.508532  0  2.375981  0
O  O76  1  0.43376090  0.87124977  0.24259842  1  0  -0.492447  0  1.915142  0  0  -0.458475  0  2.198736  0  0  -0.479492  0  2.183764  0  0  -0.20621  -0.448581  0  2.203536  0
O  O77  1  0.93376491  0.62874845  0.25740286  1  0  -0.49242  0  1.915333  0  0  -0.458458  0  2.198877  0  0  -0.479456  0  2.183935  0  0  -0.20617  -0.448542  0  2.203696  0
O  O78  1  0.56623847  0.12875206  0.75740220  1  0  -0.492344  0  1.915242  0  0  -0.458419  0  2.198841  0  0  -0.479412  0  2.183889  0  0  -0.206146  -0.448495  0  2.203633  0
O  O79  1  0.06623446  0.37124727  0.74259379  1  0  -0.492492  0  1.915064  0  0  -0.458407  0  2.198725  0  0  -0.479469  0  2.183697  0  0  -0.206186  -0.448523  0  2.203514  0
O  O80  1  0.16957772  0.98469117  0.25831851  1  0  -0.473196  0  1.87701  0  0  -0.455894  0  2.149273  0  0  -0.471854  0  2.136159  0  0  -0.187439  -0.449852  0  2.152435  0
O  O81  1  0.66958126  0.51530592  0.24168231  1  0  -0.473148  0  1.877088  0  0  -0.455866  0  2.149276  0  0  -0.471815  0  2.136216  0  0  -0.187429  -0.449806  0  2.152462  0
O  O82  1  0.83042034  0.01530944  0.74168131  1  0  -0.473183  0  1.8771  0  0  -0.455897  0  2.149321  0  0  -0.47183  0  2.136232  0  0  -0.187441  -0.449835  0  2.152498  0
O  O83  1  0.33041942  0.48469103  0.75831841  1  0  -0.473283  0  1.877019  0  0  -0.455895  0  2.149369  0  0  -0.471894  0  2.136184  0  0  -0.187442  -0.449854  0  2.152502  0
O  O84  1  0.38522353  0.09989131  0.19875331  1  0  -0.428036  0  1.819833  0  0  -0.404544  0  2.026311  0  0  -0.419875  0  2.022512  0  0  -0.15204  -0.398671  0  2.022956  0
O  O85  1  0.88522260  0.40010932  0.30124616  1  0  -0.428005  0  1.819832  0  0  -0.404595  0  2.026306  0  0  -0.419876  0  2.022517  0  0  -0.152028  -0.398699  0  2.022968  0
O  O86  1  0.61477584  0.90011053  0.80124796  1  0  -0.428026  0  1.819765  0  0  -0.404556  0  2.0262  0  0  -0.419892  0  2.022453  0  0  -0.152067  -0.398671  0  2.022875  0
O  O87  1  0.11478333  0.59989617  0.69875356  1  0  -0.428144  0  1.819749  0  0  -0.404592  0  2.02633  0  0  -0.420004  0  2.022503  0  0  -0.152067  -0.398724  0  2.022959  0
