# generated using pymatgen
data_AgPH14C10N3O2
_symmetry_space_group_name_H-M   'P 1'
_cell_length_a   6.94454760
_cell_length_b   9.73907689
_cell_length_c   9.80869500
_cell_angle_alpha   96.16252669
_cell_angle_beta   108.22872724
_cell_angle_gamma   106.69106790
_symmetry_Int_Tables_number   1
_chemical_formula_structural   AgPH14C10N3O2
_chemical_formula_sum   'Ag2 P2 H28 C20 N6 O4'
_cell_volume   589.20860974
_cell_formula_units_Z   2
loop_
 _symmetry_equiv_pos_site_id
 _symmetry_equiv_pos_as_xyz
  1  'x, y, z'
loop_
 _atom_site_type_symbol
 _atom_site_label
 _atom_site_symmetry_multiplicity
 _atom_site_fract_x
 _atom_site_fract_y
 _atom_site_fract_z
 _atom_site_occupancy
 _atom_site_pbe_bader_spin_density
 _atom_site_pbe_cm5_charge
 _atom_site_pbe_ddec_charge
 _atom_site_pbe_ddec_spin_density
 _atom_site_pbe_ddec_sum_bond_order
 _atom_site_pbe_magmom
Ag  Ag0  1  0.53573016  0.90170594  0.85494937  1  0  0.45455  0.242755  0  2.300924  0
Ag  Ag1  1  0.46424797  0.09828397  0.14502910  1  0  0.454456  0.242617  0  2.300935  0
P  P2  1  0.74107004  0.82294072  0.74328444  1  0  -0.075198  0.222991  0  4.172729  0
P  P3  1  0.25892476  0.17705485  0.25671039  1  0  -0.075223  0.222977  0  4.172875  0
H  H4  1  0.87717925  0.53100044  0.02236303  1  0  0.097782  0.100389  0  1.050283  0
H  H5  1  0.12281128  0.46899775  0.97766071  1  0  0.097748  0.100427  0  1.050538  0
H  H6  1  0.21092777  0.25674158  0.88957929  1  0  0.100926  0.107788  0  1.009727  0
H  H7  1  0.78905924  0.74326520  0.11043128  1  0  0.100908  0.107731  0  1.009472  0
H  H8  1  0.11476089  0.97865093  0.88229232  1  0  0.105405  0.115704  0  1.020465  0
H  H9  1  0.88524218  0.02134260  0.11771529  1  0  0.105387  0.115645  0  1.020512  0
H  H10  1  0.05340298  0.80895087  0.93839283  1  0  0.110385  0.127478  0  1.006537  0
H  H11  1  0.94659072  0.19104250  0.06160155  1  0  0.110357  0.127448  0  1.006377  0
H  H12  1  0.60332481  0.87194664  0.49728634  1  0  0.11221  0.12095  0  0.965091  0
H  H13  1  0.39666464  0.12804124  0.50270659  1  0  0.112198  0.120984  0  0.965139  0
H  H14  1  0.84036899  0.01745760  0.61591851  1  0  0.114402  0.121053  0  0.993608  0
H  H15  1  0.15962580  0.98255006  0.38407852  1  0  0.114444  0.121145  0  0.993675  0
H  H16  1  0.66709619  0.56281862  0.74628593  1  0  0.10854  0.118717  0  1.005665  0
H  H17  1  0.33291934  0.43717910  0.25371048  1  0  0.108535  0.118674  0  1.005722  0
H  H18  1  0.49804255  0.58978399  0.58001820  1  0  0.108019  0.105633  0  1.045695  0
H  H19  1  0.50197101  0.41021269  0.41998177  1  0  0.10801  0.10566  0  1.045695  0
H  H20  1  0.18559781  0.99537976  0.66154326  1  0  0.116418  0.08702  0  1.02021  0
H  H21  1  0.81440902  0.00462464  0.33845807  1  0  0.116422  0.086993  0  1.020275  0
H  H22  1  0.21118207  0.84054626  0.56121080  1  0  0.111099  0.064517  0  0.997449  0
H  H23  1  0.78881914  0.15945595  0.43879013  1  0  0.111113  0.064535  0  0.99746  0
H  H24  1  0.12754018  0.60788596  0.63177205  1  0  0.112524  0.069688  0  1.004703  0
H  H25  1  0.87247485  0.39212923  0.36821884  1  0  0.112548  0.069716  0  1.004664  0
H  H26  1  0.03367338  0.58835276  0.78150371  1  0  0.119476  0.093025  0  0.983784  0
H  H27  1  0.96634555  0.41164273  0.21849118  1  0  0.119438  0.092962  0  0.983788  0
H  H28  1  0.89555101  0.64299984  0.40428278  1  0  0.117065  0.081689  0  0.974645  0
H  H29  1  0.10446140  0.35700993  0.59571211  1  0  0.117063  0.081698  0  0.974618  0
H  H30  1  0.63532433  0.64879133  0.39017851  1  0  0.118062  0.086205  0  0.98625  0
H  H31  1  0.36468541  0.35121299  0.60981833  1  0  0.118042  0.086209  0  0.986222  0
C  C32  1  0.60452704  0.24716609  0.89759584  1  0  0.189577  0.551613  0  4.235024  0
C  C33  1  0.39549547  0.75283938  0.10240793  1  0  0.189498  0.551388  0  4.23456  0
C  C34  1  0.54990845  0.37798272  0.94965890  1  0  -0.025215  -0.045209  0  3.987967  0
C  C35  1  0.45010687  0.62203586  0.05033952  1  0  -0.025233  -0.045335  0  3.988102  0
C  C36  1  0.71105216  0.51636974  0.01162155  1  0  -0.092736  -0.110382  0  3.989856  0
C  C37  1  0.28891832  0.48364280  0.98840440  1  0  -0.092665  -0.110365  0  3.988447  0
C  C38  1  0.33817023  0.36324619  0.93857473  1  0  -0.092424  -0.109475  0  3.996064  0
C  C39  1  0.66181597  0.63671980  0.06142046  1  0  -0.092321  -0.109261  0  3.997352  0
C  C40  1  0.03219748  0.85942950  0.84211540  1  0  -0.082316  -0.216139  0  3.828536  0
C  C41  1  0.96780834  0.14056954  0.15789436  1  0  -0.08219  -0.216104  0  3.828645  0
C  C42  1  0.76520435  0.89734807  0.58043044  1  0  -0.072638  -0.214726  0  3.891358  0
C  C43  1  0.23480302  0.10264532  0.41956788  1  0  -0.072715  -0.214885  0  3.891381  0
C  C44  1  0.66435968  0.62598975  0.65973180  1  0  -0.080631  -0.218109  0  3.877418  0
C  C45  1  0.33565848  0.37401018  0.34026642  1  0  -0.080662  -0.21807  0  3.877243  0
C  C46  1  0.11603048  0.87612360  0.61971363  1  0  0.009423  -0.014873  0  3.915419  0
C  C47  1  0.88397391  0.12388193  0.38028933  1  0  0.009466  -0.014865  0  3.915382  0
C  C48  1  0.03083514  0.64303382  0.68902743  1  0  0.019776  0.001558  0  3.890361  0
C  C49  1  0.96917649  0.35696828  0.31096757  1  0  0.019807  0.001654  0  3.890248  0
C  C50  1  0.80291772  0.67813273  0.46517365  1  0  0.020825  -5.1e-05  0  3.920705  0
C  C51  1  0.19708849  0.32187052  0.53482438  1  0  0.020861  -7.6e-05  0  3.920684  0
N  N52  1  0.13400603  0.80404162  0.74678511  1  0  -0.343589  -0.114188  0  3.430689  0
N  N53  1  0.86600112  0.19596053  0.25321199  1  0  -0.34362  -0.114129  0  3.430453  0
N  N54  1  0.89617003  0.83798412  0.51557302  1  0  -0.338703  -0.141107  0  3.452175  0
N  N55  1  0.10382873  0.16202243  0.48442374  1  0  -0.338694  -0.141031  0  3.452141  0
N  N56  1  0.80822510  0.59882955  0.58534575  1  0  -0.343011  -0.161633  0  3.434631  0
N  N57  1  0.19177918  0.40117590  0.41465207  1  0  -0.342987  -0.161667  0  3.434394  0
O  O58  1  0.48379817  0.12125940  0.90691505  1  0  -0.358108  -0.514473  0  2.422901  0
O  O59  1  0.51613727  0.87873037  0.09304408  1  0  -0.358095  -0.514292  0  2.423489  0
O  O60  1  0.75699875  0.26598360  0.85156122  1  0  -0.341862  -0.558359  0  2.087385  0
O  O61  1  0.24299082  0.73402137  0.14847624  1  0  -0.341929  -0.55843  0  2.086199  0
