# generated using pymatgen
data_Hf3H8C20(N3O8)2
_symmetry_space_group_name_H-M   'P 1'
_cell_length_a   17.11489608
_cell_length_b   17.12061977
_cell_length_c   31.93259705
_cell_angle_alpha   89.89246392
_cell_angle_beta   90.05602879
_cell_angle_gamma   89.95621787
_symmetry_Int_Tables_number   1
_chemical_formula_structural   Hf3H8C20(N3O8)2
_chemical_formula_sum   'Hf12 H32 C80 N24 O64'
_cell_volume   9356.79015134
_cell_formula_units_Z   4
loop_
 _symmetry_equiv_pos_site_id
 _symmetry_equiv_pos_as_xyz
  1  'x, y, z'
loop_
 _atom_site_type_symbol
 _atom_site_label
 _atom_site_symmetry_multiplicity
 _atom_site_fract_x
 _atom_site_fract_y
 _atom_site_fract_z
 _atom_site_occupancy
 _atom_site_pbe_bader_charge
 _atom_site_pbe_bader_spin_density
 _atom_site_pbe_cm5_charge
 _atom_site_pbe_ddec_charge
 _atom_site_pbe_ddec_spin_density
 _atom_site_pbe_ddec_sum_bond_order
 _atom_site_pbe_magmom
Hf  Hf0  1  0.09508395  0.94450954  0.54666425  1  2.60933  0  1.462369  2.143139  0  3.344044  0
Hf  Hf1  1  0.08658233  0.95240841  0.43645432  1  2.615166  0  1.465998  2.162755  0  3.321723  0
Hf  Hf2  1  0.95055333  0.08832351  0.55154059  1  2.603483  0  1.451532  2.125677  0  3.396267  0
Hf  Hf3  1  0.94240992  0.10046314  0.44150948  1  2.601175  0  1.438655  2.131428  0  3.408807  0
Hf  Hf4  1  0.12178027  0.12356300  0.49460086  1  2.624131  0  1.48542  2.120987  0  3.309505  0
Hf  Hf5  1  0.91563200  0.91814351  0.49389865  1  2.625352  0  1.48815  2.125749  0  3.316304  0
Hf  Hf6  1  0.60022253  0.60653599  0.04790373  1  2.603659  0  1.438684  2.128664  0  3.417662  0
Hf  Hf7  1  0.58965315  0.59486699  0.93802914  1  2.604402  0  1.450588  2.134015  0  3.388621  0
Hf  Hf8  1  0.45699712  0.45968524  0.05234891  1  2.60034  0  1.448471  2.122103  0  3.404418  0
Hf  Hf9  1  0.44293949  0.45192580  0.94237483  1  2.601081  0  1.439378  2.130185  0  3.413072  0
Hf  Hf10  1  0.41954896  0.63090079  0.99573718  1  2.606322  0  1.482926  2.119881  0  3.31257  0
Hf  Hf11  1  0.62603133  0.42431154  0.99453991  1  2.624096  0  1.487811  2.122315  0  3.326561  0
H  H12  1  0.05647189  0.82500745  0.49345521  1  0.58487  0  0.337443  0.417391  0  0.856071  0
H  H13  1  0.09574396  0.10541927  0.40685895  1  0.625421  0  0.339904  0.422987  0  0.849265  0
H  H14  1  0.82399347  0.07185373  0.49467752  1  0.637875  0  0.336893  0.432052  0  0.838524  0
H  H15  1  0.10155724  0.09715259  0.58329718  1  0.613237  0  0.345719  0.435592  0  0.825115  0
H  H16  1  0.10751429  0.97699982  0.35280109  1  0.602263  0  0.314983  0.406706  0  0.882637  0
H  H17  1  0.00454544  0.03401426  0.36916509  1  0.660258  0  0.289986  0.408117  0  0.931072  0
H  H18  1  0.85808362  0.22879091  0.44095462  1  0.588887  0  0.300214  0.403996  0  0.891739  0
H  H19  1  0.81015670  0.16084490  0.57589666  1  0.645988  0  0.348729  0.429883  0  0.844739  0
H  H20  1  0.92749279  0.05879148  0.63271537  1  0.6075  0  0.305784  0.395799  0  0.901895  0
H  H21  1  0.03086322  0.00755669  0.61917004  1  0.637632  0  0.288019  0.403793  0  0.937831  0
H  H22  1  0.22648243  0.86158217  0.54319902  1  0.610492  0  0.310491  0.40146  0  0.893074  0
H  H23  1  0.18369412  0.85605140  0.48461752  1  0.636248  0  0.287979  0.405639  0  0.935695  0
H  H24  1  0.87600779  0.22602322  0.56946578  1  0.658104  0  0.345059  0.429729  0  0.854755  0
H  H25  1  0.05594411  0.91627181  0.62828714  1  0.636141  0  0.334453  0.417329  0  0.861803  0
H  H26  1  0.17129935  0.81128454  0.43921242  1  0.609779  0  0.336575  0.415021  0  0.859067  0
H  H27  1  0.91426044  0.06151118  0.36039571  1  0.631352  0  0.338435  0.423764  0  0.85237  0
H  H28  1  0.71782431  0.57798075  0.99405266  1  0.602213  0  0.336378  0.430351  0  0.839921  0
H  H29  1  0.43772699  0.60614425  0.90773376  1  0.604893  0  0.340112  0.423257  0  0.84835  0
H  H30  1  0.47198264  0.33309840  0.99541192  1  0.643429  0  0.336427  0.431139  0  0.840863  0
H  H31  1  0.44564264  0.60983409  0.08402999  1  0.612516  0  0.345627  0.43535  0  0.825741  0
H  H32  1  0.55961736  0.62366618  0.85521666  1  0.609107  0  0.307034  0.396283  0  0.89892  0
H  H33  1  0.50954248  0.51622198  0.86998562  1  0.650138  0  0.290196  0.405334  0  0.9328  0
H  H34  1  0.31479171  0.36740280  0.94182577  1  0.596644  0  0.301386  0.405515  0  0.889323  0
H  H35  1  0.38489897  0.31910716  0.07682400  1  0.647849  0  0.347676  0.42817  0  0.846544  0
H  H36  1  0.48635842  0.43607284  0.13336899  1  0.607281  0  0.305696  0.396145  0  0.901261  0
H  H37  1  0.53780227  0.54119985  0.12011806  1  0.645771  0  0.289916  0.403732  0  0.936203  0
H  H38  1  0.68556706  0.73375513  0.04998627  1  0.631071  0  0.301658  0.405242  0  0.889835  0
H  H39  1  0.72872229  0.66338749  0.91444688  1  0.653447  0  0.345419  0.427124  0  0.853402  0
H  H40  1  0.31973428  0.38489180  0.07004494  1  0.640951  0  0.343075  0.428152  0  0.85854  0
H  H41  1  0.62843173  0.56722016  0.12884005  1  0.62501  0  0.33768  0.421812  0  0.854831  0
H  H42  1  0.66746086  0.73304559  0.92052503  1  0.656257  0  0.344766  0.428312  0  0.851876  0
H  H43  1  0.48360035  0.42611846  0.86111210  1  0.633483  0  0.338237  0.423211  0  0.853184  0
C  C44  1  0.24877388  0.05173800  0.55863467  1  1.720181  0  0.256376  0.698376  0  4.170483  0
C  C45  1  0.97784583  0.79896103  0.42420488  1  1.695928  0  0.254005  0.699217  0  4.168764  0
C  C46  1  0.24404752  0.05752522  0.42776540  1  1.706983  0  0.255061  0.701088  0  4.163741  0
C  C47  1  0.97817702  0.79680136  0.56326009  1  1.721561  0  0.251535  0.695133  0  4.17465  0
C  C48  1  0.79723446  0.97675390  0.56575328  1  1.716432  0  0.251341  0.700137  0  4.177897  0
C  C49  1  0.05550066  0.25303723  0.43197969  1  1.671205  0  0.253431  0.694172  0  4.170377  0
C  C50  1  0.79493739  0.97747207  0.42600150  1  1.699085  0  0.253494  0.694456  0  4.179939  0
C  C51  1  0.05549337  0.24877356  0.56012418  1  1.671583  0  0.25538  0.702101  0  4.165679  0
C  C52  1  0.03718051  0.45845658  0.61930672  1  1.234987  0  0.270489  0.438455  0  4.085371  0
C  C53  1  0.02422479  0.52085941  0.68116738  1  1.157901  0  0.272548  0.443921  0  4.085758  0
C  C54  1  0.00254802  0.58578201  0.62056446  1  1.164762  0  0.270928  0.441274  0  4.085904  0
C  C55  1  0.58465728  0.00042355  0.62127025  1  1.226227  0  0.268718  0.437311  0  4.093568  0
C  C56  1  0.51937086  0.02161585  0.68162804  1  1.157492  0  0.271795  0.442672  0  4.085702  0
C  C57  1  0.45717208  0.03457403  0.61956890  1  1.203162  0  0.271606  0.440863  0  4.084245  0
C  C58  1  0.58285212  0.99999248  0.36981957  1  1.097304  0  0.271673  0.44282  0  4.081056  0
C  C59  1  0.45560545  0.03537980  0.37082812  1  1.151791  0  0.270899  0.439816  0  4.083914  0
C  C60  1  0.51811011  0.02057067  0.30911542  1  1.250103  0  0.27125  0.440075  0  4.089817  0
C  C61  1  0.03818201  0.46056138  0.37061813  1  1.185524  0  0.270654  0.443896  0  4.080649  0
C  C62  1  0.02202398  0.52082673  0.30822835  1  1.153969  0  0.272389  0.443305  0  4.08348  0
C  C63  1  0.00095736  0.58713457  0.36821270  1  1.223902  0  0.270028  0.441244  0  4.087027  0
C  C64  1  0.50782431  0.96709233  0.87135305  1  1.171422  0  0.26912  0.436815  0  4.092944  0
C  C65  1  0.54307336  0.09420676  0.86916278  1  1.181779  0  0.2718  0.443024  0  4.083841  0
C  C66  1  0.52218175  0.02791646  0.80906398  1  1.220174  0  0.270962  0.441126  0  4.091838  0
C  C67  1  0.48698607  0.75890586  0.05847359  1  1.70286  0  0.25445  0.695366  0  4.174137  0
C  C68  1  0.74486466  0.48395366  0.92430666  1  1.717161  0  0.252891  0.698266  0  4.17846  0
C  C69  1  0.48630037  0.75682485  0.92992437  1  1.716186  0  0.252644  0.700581  0  4.171831  0
C  C70  1  0.74607655  0.48165274  0.06328122  1  1.696528  0  0.252351  0.694232  0  4.180428  0
C  C71  1  0.56778017  0.30557367  0.06607113  1  1.670518  0  0.252529  0.70045  0  4.176249  0
C  C72  1  0.29064789  0.56533972  0.93250398  1  1.705561  0  0.253297  0.693883  0  4.172967  0
C  C73  1  0.56586010  0.30537417  0.92585018  1  1.688021  0  0.253143  0.693162  0  4.182383  0
C  C74  1  0.29427696  0.56218986  0.06049205  1  1.673133  0  0.255438  0.70364  0  4.162123  0
C  C75  1  0.08392693  0.54406250  0.87093102  1  1.168424  0  0.271477  0.444515  0  4.078359  0
C  C76  1  0.02492813  0.52268719  0.80869231  1  1.286475  0  0.27048  0.437229  0  4.093572  0
C  C77  1  0.95763499  0.50572734  0.86881441  1  1.158373  0  0.269863  0.439208  0  4.089331  0
C  C78  1  0.50470155  0.96665268  0.11922404  1  1.212932  0  0.271488  0.444207  0  4.076639  0
C  C79  1  0.52020486  0.02658704  0.18166881  1  1.156902  0  0.272211  0.443102  0  4.088693  0
C  C80  1  0.54189363  0.09314906  0.12169135  1  1.243632  0  0.268715  0.43968  0  4.089088  0
C  C81  1  0.08455919  0.53781124  0.11896898  1  1.236534  0  0.269841  0.440057  0  4.084697  0
C  C82  1  0.95767281  0.50167450  0.12001500  1  1.121948  0  0.271304  0.442253  0  4.083238  0
C  C83  1  0.02318573  0.51928580  0.18073188  1  1.273642  0  0.272113  0.441434  0  4.090708  0
C  C84  1  0.56964176  0.22856849  0.08484036  1  -0.03232  0  -0.009826  -0.127521  0  3.877729  0
C  C85  1  0.55969747  0.16505604  0.10110628  1  -0.123759  0  0.001338  -0.05518  0  3.948734  0
C  C86  1  0.48308887  0.83535853  0.07770557  1  0.216048  0  -0.000368  -0.108822  0  3.857369  0
C  C87  1  0.48953658  0.89722643  0.09605883  1  -0.417413  0  0.002185  -0.059468  0  3.940722  0
C  C88  1  0.21434067  0.56908248  0.91291726  1  -0.239211  0  -0.001968  -0.111525  0  3.859101  0
C  C89  1  0.15294242  0.56128116  0.89415700  1  0.052066  0  0.001873  -0.058979  0  3.940429  0
C  C90  1  0.82186711  0.48092117  0.90563365  1  -0.340845  0  -0.005588  -0.120181  0  3.870666  0
C  C91  1  0.88561771  0.48939906  0.88946200  1  0.147008  0  0.000646  -0.057845  0  3.949061  0
C  C92  1  0.21689195  0.56278880  0.07867754  1  -0.303087  0  -0.006832  -0.12506  0  3.872387  0
C  C93  1  0.15468476  0.55414184  0.09646285  1  0.107187  0  0.003918  -0.051502  0  3.944398  0
C  C94  1  0.82266292  0.47760659  0.08238579  1  -0.278264  0  -0.001689  -0.110569  0  3.863726  0
C  C95  1  0.88625123  0.48560981  0.09883637  1  0.096957  0  0.000594  -0.060901  0  3.948845  0
C  C96  1  0.56006286  0.16578904  0.88984583  1  -0.322352  0  -0.0003  -0.064537  0  3.953318  0
C  C97  1  0.56893168  0.22918509  0.90629374  1  0.14473  0  0.000358  -0.105483  0  3.860978  0
C  C98  1  0.49312258  0.89695405  0.89424234  1  0.330688  0  0.002094  -0.053162  0  3.946709  0
C  C99  1  0.48532247  0.83446472  0.91192716  1  -0.548863  0  -0.008204  -0.125155  0  3.87708  0
C  C100  1  0.02408407  0.51909032  0.22545858  1  -0.177937  0  0.010787  -0.061806  0  3.914699  0
C  C101  1  0.02356654  0.51918127  0.26351184  1  -0.006508  0  0.011004  -0.062363  0  3.913687  0
C  C102  1  0.51776418  0.02262189  0.26438305  1  -0.192339  0  0.012458  -0.057231  0  3.914068  0
C  C103  1  0.51849113  0.02422169  0.22634260  1  0.005534  0  0.008787  -0.066722  0  3.920267  0
C  C104  1  0.51891755  0.02427606  0.72631649  1  -0.249301  0  0.009113  -0.065533  0  3.918454  0
C  C105  1  0.52014316  0.02594540  0.76435239  1  0.06226  0  0.011001  -0.060167  0  3.914992  0
C  C106  1  0.02697789  0.52136954  0.76394657  1  -0.158721  0  0.011966  -0.057478  0  3.913054  0
C  C107  1  0.02653590  0.52042317  0.72588934  1  -0.019784  0  0.009021  -0.066401  0  3.915981  0
C  C108  1  0.98373205  0.65893541  0.38881989  1  -0.065404  0  0.002483  -0.055297  0  3.944781  0
C  C109  1  0.97490691  0.72247073  0.40511099  1  -0.115317  0  -0.005725  -0.11987  0  3.871998  0
C  C110  1  0.05986792  0.32938553  0.41253728  1  -0.064671  0  -0.002242  -0.110692  0  3.862072  0
C  C111  1  0.05333633  0.39105201  0.39387206  1  -0.093706  0  0.001459  -0.060785  0  3.943541  0
C  C112  1  0.97603415  0.72043177  0.58274552  1  0.000489  0  -0.004852  -0.117322  0  3.869556  0
C  C113  1  0.98532059  0.65714781  0.59940035  1  -0.216747  0  0.002058  -0.055728  0  3.945531  0
C  C114  1  0.05103586  0.38796086  0.59673074  1  0.011281  0  0.003194  -0.053398  0  3.943754  0
C  C115  1  0.05779189  0.32572763  0.57877482  1  -0.207249  0  -0.004359  -0.119795  0  3.868095  0
C  C116  1  0.71810116  0.97441588  0.40709965  1  0.144174  0  -0.002603  -0.112413  0  3.863285  0
C  C117  1  0.65430375  0.98317453  0.39093783  1  -0.312992  0  0.001897  -0.058775  0  3.944015  0
C  C118  1  0.32176115  0.05813154  0.40995966  1  -0.188756  0  -0.003493  -0.115551  0  3.866197  0
C  C119  1  0.38488880  0.05030216  0.39302366  1  0.030387  0  0.003041  -0.054366  0  3.941599  0
C  C120  1  0.65643987  0.98363288  0.60044340  1  -0.105911  0  0.001131  -0.054514  0  3.949892  0
C  C121  1  0.72020205  0.97448111  0.58439839  1  -0.111014  0  -0.009091  -0.126834  0  3.877968  0
C  C122  1  0.32498034  0.05439231  0.57827349  1  -0.279786  0  0.000654  -0.10729  0  3.859688  0
C  C123  1  0.38690009  0.04820006  0.59670634  1  0.093544  0  0.003145  -0.058237  0  3.94248  0
N  N124  1  0.04234065  0.45385324  0.66139769  1  -1.154086  0  -0.295502  -0.392234  0  3.073062  0
N  N125  1  0.00356489  0.58863893  0.66276566  1  -1.114765  0  -0.295784  -0.39413  0  3.080419  0
N  N126  1  0.01809802  0.52250298  0.59694142  1  -1.091329  0  -0.294466  -0.390896  0  3.073794  0
N  N127  1  0.58737939  0.00123870  0.66346551  1  -1.145304  0  -0.29707  -0.396152  0  3.082459  0
N  N128  1  0.45242056  0.03955351  0.66165787  1  -1.148136  0  -0.293768  -0.389105  0  3.070809  0
N  N129  1  0.52157325  0.01590868  0.59743086  1  -1.115043  0  -0.293763  -0.389033  0  3.075192  0
N  N130  1  0.51957978  0.01656924  0.39330807  1  -1.117507  0  -0.293423  -0.3899  0  3.072469  0
N  N131  1  0.45117736  0.03965948  0.32868145  1  -1.118639  0  -0.296981  -0.39536  0  3.077288  0
N  N132  1  0.58566988  0.99973423  0.32759001  1  -1.073762  0  -0.293944  -0.390851  0  3.076145  0
N  N133  1  0.04244030  0.45492525  0.32853867  1  -1.130879  0  -0.294837  -0.392691  0  3.072091  0
N  N134  1  0.00005153  0.58861502  0.32601066  1  -1.157966  0  -0.29447  -0.391381  0  3.074765  0
N  N135  1  0.01873753  0.52506998  0.39240677  1  -1.116845  0  -0.29587  -0.395731  0  3.078977  0
N  N136  1  0.52674334  0.03147389  0.89323296  1  -1.117889  0  -0.29309  -0.387455  0  3.073442  0
N  N137  1  0.54295868  0.09592188  0.82689667  1  -1.11553  0  -0.294507  -0.391461  0  3.077432  0
N  N138  1  0.50338082  0.96145647  0.82928300  1  -1.070703  0  -0.297515  -0.396682  0  3.082428  0
N  N139  1  0.09029542  0.54508836  0.82879170  1  -1.141041  0  -0.295203  -0.391933  0  3.073721  0
N  N140  1  0.95699189  0.50152725  0.82664699  1  -1.117386  0  -0.295911  -0.392581  0  3.079935  0
N  N141  1  0.01910456  0.52594387  0.89283076  1  -1.097673  0  -0.295022  -0.392876  0  3.076684  0
N  N142  1  0.50008641  0.96085612  0.16128692  1  -1.137438  0  -0.293428  -0.38997  0  3.070637  0
N  N143  1  0.54200466  0.09459680  0.16389510  1  -1.167663  0  -0.297105  -0.396418  0  3.080858  0
N  N144  1  0.52458517  0.03123327  0.09746353  1  -1.114071  0  -0.294929  -0.393259  0  3.073631  0
N  N145  1  0.02047572  0.51988017  0.09648037  1  -1.098261  0  -0.29445  -0.391234  0  3.073768  0
N  N146  1  0.95548996  0.49915425  0.16222635  1  -1.07415  0  -0.294573  -0.391225  0  3.079  0
N  N147  1  0.08973662  0.53970648  0.16110794  1  -1.157487  0  -0.295977  -0.394423  0  3.075371  0
O  O148  1  0.21054601  0.98976410  0.56715053  1  -1.163891  0  -0.328138  -0.581531  0  2.278867  0
O  O149  1  0.22723397  0.10864610  0.53583131  1  -1.154888  0  -0.316652  -0.554635  0  2.239797  0
O  O150  1  0.03832253  0.83813397  0.41420580  1  -1.154735  0  -0.324414  -0.580936  0  2.279494  0
O  O151  1  0.92378265  0.81880034  0.44935728  1  -1.150174  0  -0.322388  -0.557694  0  2.238648  0
O  O152  1  0.20206603  0.00057531  0.41567860  1  -1.151462  0  -0.323003  -0.573764  0  2.277464  0
O  O153  1  0.22487518  0.11196493  0.45289565  1  -1.159111  0  -0.327042  -0.564231  0  2.239726  0
O  O154  1  0.03582763  0.83853482  0.57503017  1  -1.159758  0  -0.322633  -0.585394  0  2.274541  0
O  O155  1  0.92634247  0.81414720  0.53627025  1  -1.152827  0  -0.318745  -0.553101  0  2.236373  0
O  O156  1  0.17535807  0.85647347  0.53022804  1  -1.236563  0  -0.640742  -0.898049  0  1.942236  0
O  O157  1  0.07493348  0.96438927  0.61555606  1  -1.257933  0  -0.593556  -0.785427  0  2.043503  0
O  O158  1  0.17959946  0.86250812  0.45151694  1  -1.236463  0  -0.589895  -0.786993  0  2.053296  0
O  O159  1  0.06536383  0.97271010  0.37293820  1  -1.239059  0  -0.641666  -0.902748  0  1.939991  0
O  O160  1  0.12270970  0.00400498  0.49265010  1  -1.199639  0  -0.755555  -1.067666  0  2.181353  0
O  O161  1  0.04301468  0.88007556  0.49337344  1  -1.219543  0  -0.655072  -0.978408  0  2.364357  0
O  O162  1  0.83815314  0.03516615  0.57776108  1  -1.168851  0  -0.329892  -0.611177  0  2.293195  0
O  O163  1  0.81630411  0.92490533  0.53954156  1  -1.146175  0  -0.310994  -0.541723  0  2.250433  0
O  O164  1  0.99338673  0.21620888  0.42284882  1  -1.152656  0  -0.315382  -0.562068  0  2.281997  0
O  O165  1  0.11151781  0.23036308  0.45537172  1  -1.156026  0  -0.328107  -0.564796  0  2.238707  0
O  O166  1  0.83765009  0.03256547  0.41282040  1  -1.154457  0  -0.30307  -0.55714  0  2.274737  0
O  O167  1  0.81148559  0.92779827  0.45458091  1  -1.141667  0  -0.336659  -0.571714  0  2.256819  0
O  O168  1  0.99313162  0.21093875  0.56851391  1  -1.167692  0  -0.320954  -0.590948  0  2.282064  0
O  O169  1  0.11295150  0.22572621  0.53834586  1  -1.148565  0  -0.315637  -0.549997  0  2.236061  0
O  O170  1  0.85157390  0.17945193  0.55745723  1  -1.240116  0  -0.559894  -0.744774  0  2.078123  0
O  O171  1  0.97286621  0.07127070  0.61572257  1  -1.246237  0  -0.643216  -0.901729  0  1.947458  0
O  O172  1  0.85243001  0.17362785  0.44704400  1  -1.206809  0  -0.69366  -0.931865  0  1.84679  0
O  O173  1  0.96301310  0.07919286  0.37300602  1  -1.266331  0  -0.593381  -0.787255  0  2.037788  0
O  O174  1  0.87697538  0.05150678  0.49694694  1  -1.277906  0  -0.639227  -0.962879  0  2.250874  0
O  O175  1  0.00244291  0.12696878  0.49658241  1  -1.227346  0  -0.754128  -1.071061  0  2.189829  0
O  O176  1  0.97686385  0.97535228  0.53967167  1  -1.211424  0  -0.766156  -1.076521  0  2.23565  0
O  O177  1  0.07311607  0.08381274  0.43220591  1  -1.253315  0  -0.653868  -0.983087  0  2.355959  0
O  O178  1  0.07932216  0.07528137  0.55789050  1  -1.23368  0  -0.648324  -0.956035  0  2.296388  0
O  O179  1  0.97303653  0.97973269  0.44916612  1  -1.211658  0  -0.754396  -1.066525  0  2.180051  0
O  O180  1  0.54922848  0.72183253  0.06718448  1  -1.15365  0  -0.314677  -0.563972  0  2.286223  0
O  O181  1  0.43032991  0.73632980  0.03560853  1  -1.15544  0  -0.32832  -0.565447  0  2.244402  0
O  O182  1  0.70519947  0.54361445  0.91339781  1  -1.164066  0  -0.316732  -0.579197  0  2.289388  0
O  O183  1  0.72477109  0.43065609  0.94973915  1  -1.15528  0  -0.320214  -0.551859  0  2.257205  0
O  O184  1  0.54671501  0.71708186  0.91969123  1  -1.17721  0  -0.328224  -0.611223  0  2.28978  0
O  O185  1  0.42996387  0.73505087  0.95279656  1  -1.150431  0  -0.312117  -0.542998  0  2.235085  0
O  O186  1  0.70339372  0.53636567  0.07692356  1  -1.153648  0  -0.304767  -0.559943  0  2.27661  0
O  O187  1  0.72984115  0.43306796  0.03427676  1  -1.14933  0  -0.334802  -0.568274  0  2.261977  0
O  O188  1  0.69069798  0.67883777  0.04324935  1  -1.247513  0  -0.693736  -0.929014  0  1.847103  0
O  O189  1  0.57962633  0.58566286  0.11652518  1  -1.248643  0  -0.591926  -0.780927  0  2.046423  0
O  O190  1  0.68933249  0.68572639  0.93307674  1  -1.247785  0  -0.560435  -0.743964  0  2.078144  0
O  O191  1  0.57073870  0.58018184  0.87378189  1  -1.252408  0  -0.646404  -0.9072  0  1.943969  0
O  O192  1  0.53924363  0.63433616  0.99340635  1  -1.21306  0  -0.751674  -1.071323  0  2.176395  0
O  O193  1  0.66464650  0.55799280  0.99285540  1  -1.242011  0  -0.640302  -0.964569  0  2.25968  0
O  O194  1  0.51019477  0.34727077  0.07841901  1  -1.172177  0  -0.329121  -0.609228  0  2.297905  0
O  O195  1  0.61909524  0.32406616  0.03934959  1  -1.147718  0  -0.312856  -0.542833  0  2.254103  0
O  O196  1  0.32788508  0.50336495  0.92343474  1  -1.150055  0  -0.31762  -0.565184  0  2.285429  0
O  O197  1  0.31298839  0.62129557  0.95582788  1  -1.151644  0  -0.324793  -0.560894  0  2.238252  0
O  O198  1  0.51093235  0.34858852  0.91275325  1  -1.154621  0  -0.30507  -0.559408  0  2.277562  0
O  O199  1  0.61513048  0.32059609  0.95468704  1  -1.155319  0  -0.331568  -0.564902  0  2.259841  0
O  O200  1  0.33337762  0.50071543  0.06920720  1  -1.164296  0  -0.320637  -0.590884  0  2.284946  0
O  O201  1  0.31657935  0.62004479  0.03870590  1  -1.161111  0  -0.317206  -0.552162  0  2.236321  0
O  O202  1  0.36604650  0.35990351  0.05799261  1  -1.226707  0  -0.560723  -0.744769  0  2.07504  0
O  O203  1  0.47357415  0.48130277  0.11626745  1  -1.243815  0  -0.645345  -0.903591  0  1.94257  0
O  O204  1  0.37014741  0.36181598  0.94744204  1  -1.211989  0  -0.693507  -0.930965  0  1.847813  0
O  O205  1  0.46510706  0.47463682  0.87361949  1  -1.26348  0  -0.591102  -0.782007  0  2.041095  0
O  O206  1  0.49240015  0.38602958  0.99735041  1  -1.283494  0  -0.638925  -0.96209  0  2.25442  0
O  O207  1  0.41702891  0.51166008  0.99717226  1  -1.20878  0  -0.755121  -1.072274  0  2.19366  0
O  O208  1  0.56925078  0.48614893  0.03934349  1  -1.214366  0  -0.763773  -1.081513  0  2.23842  0
O  O209  1  0.46005636  0.58385919  0.93301153  1  -1.233292  0  -0.65546  -0.979436  0  2.356524  0
O  O210  1  0.46794371  0.58838341  0.05854781  1  -1.237487  0  -0.647123  -0.954913  0  2.2918  0
O  O211  1  0.56408185  0.48217888  0.94950091  1  -1.215689  0  -0.758396  -1.067576  0  2.196478  0
