# generated using pymatgen
data_AgH22C21(N2O)2
_symmetry_space_group_name_H-M   'P 1'
_cell_length_a   9.20641015
_cell_length_b   9.94869204
_cell_length_c   12.32354461
_cell_angle_alpha   76.67105698
_cell_angle_beta   69.91528779
_cell_angle_gamma   66.88130891
_symmetry_Int_Tables_number   1
_chemical_formula_structural   AgH22C21(N2O)2
_chemical_formula_sum   'Ag2 H44 C42 N8 O4'
_cell_volume   968.95634976
_cell_formula_units_Z   2
loop_
 _symmetry_equiv_pos_site_id
 _symmetry_equiv_pos_as_xyz
  1  'x, y, z'
loop_
 _atom_site_type_symbol
 _atom_site_label
 _atom_site_symmetry_multiplicity
 _atom_site_fract_x
 _atom_site_fract_y
 _atom_site_fract_z
 _atom_site_occupancy
 _atom_site_hle17_bader_spin_density
 _atom_site_hle17_ddec_charge
 _atom_site_hle17_ddec_spin_density
 _atom_site_hle17_ddec_sum_bond_order
 _atom_site_hle17_magmom
 _atom_site_hse06_10hf_bader_spin_density
 _atom_site_hse06_10hf_ddec_charge
 _atom_site_hse06_10hf_ddec_spin_density
 _atom_site_hse06_10hf_ddec_sum_bond_order
 _atom_site_hse06_10hf_magmom
 _atom_site_hse06_bader_spin_density
 _atom_site_hse06_ddec_charge
 _atom_site_hse06_ddec_spin_density
 _atom_site_hse06_ddec_sum_bond_order
 _atom_site_hse06_magmom
 _atom_site_pbe_bader_spin_density
 _atom_site_pbe_cm5_charge
 _atom_site_pbe_ddec_charge
 _atom_site_pbe_ddec_spin_density
 _atom_site_pbe_ddec_sum_bond_order
 _atom_site_pbe_magmom
Ag  Ag0  1  0.28006153  0.08899670  0.82158990  1  0  0.528975  0  1.512133  0  0  0.396053  0  1.974559  0  0  0.424889  0  1.927026  0  0  0.442137  0.37692  0  2.006099  0
Ag  Ag1  1  0.71993098  0.91099466  0.17841769  1  0  0.528956  0  1.51222  0  0  0.396059  0  1.974629  0  0  0.424896  0  1.927093  0  0  0.442126  0.376924  0  2.00617  0
H  H2  1  0.90468055  0.68592207  0.44063875  1  0  0.102282  0  0.957098  0  0  0.114704  0  1.015977  0  0  0.117776  0  1.014057  0  0  0.105845  0.112269  0  1.01786  0
H  H3  1  0.09531043  0.31408252  0.55935788  1  0  0.102342  0  0.95706  0  0  0.11472  0  1.015987  0  0  0.117792  0  1.014065  0  0  0.105852  0.112285  0  1.017868  0
H  H4  1  0.81289511  0.47209816  0.53957223  1  0  0.081761  0  0.964117  0  0  0.094185  0  1.024101  0  0  0.096434  0  1.023898  0  0  0.095921  0.09272  0  1.023935  0
H  H5  1  0.18709115  0.52790974  0.46042500  1  0  0.081787  0  0.963995  0  0  0.094202  0  1.024014  0  0  0.096451  0  1.023811  0  0  0.095918  0.092736  0  1.023849  0
H  H6  1  0.55881825  0.50194135  0.70407296  1  0  0.090778  0  0.94899  0  0  0.105318  0  1.001038  0  0  0.107792  0  1.00076  0  0  0.100958  0.10389  0  1.000505  0
H  H7  1  0.44116999  0.49806434  0.29592660  1  0  0.090801  0  0.948977  0  0  0.105374  0  1.000988  0  0  0.10785  0  1.000705  0  0  0.10097  0.103948  0  1.000451  0
H  H8  1  0.38865059  0.74783907  0.77721145  1  0  0.109385  0  0.962825  0  0  0.11573  0  1.033509  0  0  0.119225  0  1.031122  0  0  0.105884  0.112783  0  1.036043  0
H  H9  1  0.61134617  0.25216547  0.22278940  1  0  0.109445  0  0.962617  0  0  0.115759  0  1.033327  0  0  0.119271  0  1.030926  0  0  0.105898  0.112816  0  1.035856  0
H  H10  1  0.79394064  0.12946605  0.40091135  1  0  0.074428  0  0.944852  0  0  0.091327  0  1.009118  0  0  0.091229  0  1.010932  0  0  0.110745  0.091193  0  1.007877  0
H  H11  1  0.20605024  0.87054182  0.59908714  1  0  0.074397  0  0.944954  0  0  0.091335  0  1.009146  0  0  0.091237  0  1.010963  0  0  0.110757  0.091202  0  1.007907  0
H  H12  1  0.85423882  0.95907828  0.34900409  1  0  0.093184  0  0.933387  0  0  0.103647  0  1.00728  0  0  0.105969  0  1.003884  0  0  0.110964  0.10157  0  1.009349  0
H  H13  1  0.14575604  0.04092518  0.65099582  1  0  0.093117  0  0.93335  0  0  0.103593  0  1.007239  0  0  0.105917  0  1.003841  0  0  0.110931  0.101516  0  1.009313  0
H  H14  1  0.04562541  0.84153717  0.47573918  1  0  0.060713  0  0.946487  0  0  0.080815  0  1.009504  0  0  0.08127  0  1.009839  0  0  0.090838  0.080271  0  1.009545  0
H  H15  1  0.95436630  0.15846849  0.52426357  1  0  0.060645  0  0.946572  0  0  0.080738  0  1.009586  0  0  0.081188  0  1.009928  0  0  0.090807  0.080195  0  1.009623  0
H  H16  1  0.09470465  0.98239949  0.37072237  1  0  0.082169  0  0.929023  0  0  0.103796  0  0.981642  0  0  0.104519  0  0.982085  0  0  0.099614  0.103052  0  0.981586  0
H  H17  1  0.90528507  0.01760836  0.62928129  1  0  0.082177  0  0.928982  0  0  0.103861  0  0.98151  0  0  0.104586  0  0.981948  0  0  0.099647  0.103105  0  0.981469  0
H  H18  1  0.44809696  0.27393743  0.65942201  1  0  0.133688  0  0.962563  0  0  0.149309  0  1.031362  0  0  0.151852  0  1.029729  0  0  0.09898  0.147545  0  1.032457  0
H  H19  1  0.55189706  0.72606822  0.34058096  1  0  0.133719  0  0.962661  0  0  0.149341  0  1.031444  0  0  0.151883  0  1.029809  0  0  0.09899  0.147577  0  1.032537  0
H  H20  1  0.53741452  0.28432567  0.50561661  1  0  0.127155  0  0.971775  0  0  0.146245  0  1.032721  0  0  0.147459  0  1.034545  0  0  0.09642  0.145066  0  1.032615  0
H  H21  1  0.46257760  0.71567889  0.49438541  1  0  0.127183  0  0.971743  0  0  0.146255  0  1.032708  0  0  0.147469  0  1.03453  0  0  0.096418  0.145076  0  1.032602  0
H  H22  1  0.66328230  0.24181267  0.59901755  1  0  0.126064  0  0.939215  0  0  0.147716  0  0.996522  0  0  0.149926  0  0.995262  0  0  0.100651  0.147003  0  0.995238  0
H  H23  1  0.33671372  0.75819078  0.40098207  1  0  0.126078  0  0.939251  0  0  0.147722  0  0.996557  0  0  0.149928  0  0.995301  0  0  0.100629  0.147009  0  0.995272  0
H  H24  1  0.09760169  0.76412987  0.93833190  1  0  0.108204  0  0.983186  0  0  0.117226  0  1.047744  0  0  0.119457  0  1.046835  0  0  0.107414  0.115858  0  1.048142  0
H  H25  1  0.90241464  0.23586584  0.06165990  1  0  0.108186  0  0.983185  0  0  0.117232  0  1.047703  0  0  0.119462  0  1.046795  0  0  0.107435  0.115858  0  1.048118  0
H  H26  1  0.97881473  0.85688381  0.77251760  1  0  0.091993  0  0.964086  0  0  0.105874  0  1.019117  0  0  0.108211  0  1.018935  0  0  0.100736  0.104196  0  1.019233  0
H  H27  1  0.02119623  0.14311082  0.22747658  1  0  0.091975  0  0.964082  0  0  0.105834  0  1.01913  0  0  0.10817  0  1.018948  0  0  0.100744  0.104153  0  1.019247  0
H  H28  1  0.98733191  0.68396357  0.65008556  1  0  0.070383  0  0.992518  0  0  0.079242  0  1.062064  0  0  0.081205  0  1.062589  0  0  0.085002  0.07776  0  1.061791  0
H  H29  1  0.01267556  0.31603106  0.34991194  1  0  0.070365  0  0.992505  0  0  0.079255  0  1.062016  0  0  0.081217  0  1.062541  0  0  0.085014  0.077777  0  1.061738  0
H  H30  1  0.11439530  0.41179243  0.69496742  1  0  0.090637  0  0.975563  0  0  0.100254  0  1.044003  0  0  0.103432  0  1.041348  0  0  0.096452  0.09798  0  1.045991  0
H  H31  1  0.88561070  0.58820001  0.30503086  1  0  0.090639  0  0.975548  0  0  0.100246  0  1.044  0  0  0.103427  0  1.041342  0  0  0.096483  0.097974  0  1.045986  0
H  H32  1  0.29164068  0.42259926  0.15328821  1  0  0.062896  0  0.96537  0  0  0.079504  0  1.030599  0  0  0.079026  0  1.033003  0  0  0.104212  0.079608  0  1.029153  0
H  H33  1  0.70837050  0.57740085  0.84670653  1  0  0.063032  0  0.965347  0  0  0.079664  0  1.030519  0  0  0.079186  0  1.032924  0  0  0.10433  0.079769  0  1.029069  0
H  H34  1  0.16184227  0.60089783  0.11529312  1  0  0.085743  0  0.918716  0  0  0.101316  0  0.97988  0  0  0.102009  0  0.979702  0  0  0.112336  0.100911  0  0.979588  0
H  H35  1  0.83816701  0.39910119  0.88470149  1  0  0.085755  0  0.918706  0  0  0.101374  0  0.979841  0  0  0.102069  0  0.979659  0  0  0.112353  0.100968  0  0.979549  0
H  H36  1  0.39196056  0.65656909  0.96335260  1  0  0.074272  0  0.951623  0  0  0.092212  0  1.015528  0  0  0.092451  0  1.016832  0  0  0.092895  0.091979  0  1.014809  0
H  H37  1  0.60804987  0.34342993  0.03664334  1  0  0.074271  0  0.951557  0  0  0.092226  0  1.015447  0  0  0.092466  0  1.016752  0  0  0.092907  0.09199  0  1.014728  0
H  H38  1  0.43688105  0.60069960  0.09691524  1  0  0.073823  0  0.931009  0  0  0.094593  0  0.986628  0  0  0.095222  0  0.98699  0  0  0.094885  0.094086  0  0.986587  0
H  H39  1  0.56313064  0.39929612  0.90308018  1  0  0.073819  0  0.931061  0  0  0.094606  0  0.986656  0  0  0.095233  0  0.987022  0  0  0.09492  0.094095  0  0.986613  0
H  H40  1  0.32137777  0.20204201  0.14667962  1  0  0.121978  0  0.962176  0  0  0.140548  0  1.025933  0  0  0.142373  0  1.026106  0  0  0.093391  0.139094  0  1.026055  0
H  H41  1  0.67862771  0.79795482  0.85331880  1  0  0.121919  0  0.96222  0  0  0.14052  0  1.025947  0  0  0.142342  0  1.026124  0  0  0.093371  0.139065  0  1.026066  0
H  H42  1  0.50036974  0.15173640  0.02738182  1  0  0.148662  0  0.951371  0  0  0.16693  0  1.015559  0  0  0.170144  0  1.012831  0  0  0.102278  0.164614  0  1.017573  0
H  H43  1  0.49963490  0.84826263  0.97261559  1  0  0.148685  0  0.951327  0  0  0.166948  0  1.015526  0  0  0.170163  0  1.012802  0  0  0.102258  0.164629  0  1.017544  0
H  H44  1  0.33748243  0.08330573  0.05135380  1  0  0.147914  0  0.951303  0  0  0.167244  0  1.010536  0  0  0.169895  0  1.008912  0  0  0.102768  0.165192  0  1.012011  0
H  H45  1  0.66252305  0.91669110  0.94864461  1  0  0.147929  0  0.951322  0  0  0.167233  0  1.010581  0  0  0.169885  0  1.008956  0  0  0.102761  0.16518  0  1.012054  0
C  C46  1  0.58350075  0.06718360  0.59649356  1  0  0.401742  0  3.684564  0  0  0.377396  0  3.956158  0  0  0.396148  0  3.969076  0  0  0.230813  0.364728  0  3.947677  0
C  C47  1  0.41649295  0.93281985  0.40350989  1  0  0.401681  0  3.684728  0  0  0.377473  0  3.956106  0  0  0.396221  0  3.969026  0  0  0.230823  0.364809  0  3.947623  0
C  C48  1  0.69798286  0.83467957  0.55596816  1  0  0.105007  0  3.795818  0  0  0.093511  0  4.04264  0  0  0.097539  0  4.06595  0  0  0.09058  0.090986  0  4.026653  0
C  C49  1  0.30200116  0.16532504  0.44403186  1  0  0.105074  0  3.795789  0  0  0.093503  0  4.042652  0  0  0.097526  0  4.065967  0  0  0.090659  0.090985  0  4.026657  0
C  C50  1  0.79414207  0.69872458  0.51399204  1  0  -0.157028  0  3.776861  0  0  -0.173771  0  4.033224  0  0  -0.177196  0  4.05378  0  0  -0.094969  -0.171504  0  4.019374  0
C  C51  1  0.20584807  0.30128220  0.48600684  1  0  -0.157247  0  3.776959  0  0  -0.173965  0  4.033382  0  0  -0.177378  0  4.053922  0  0  -0.095072  -0.171698  0  4.019533  0
C  C52  1  0.74148608  0.57998485  0.57011752  1  0  -0.083614  0  3.796285  0  0  -0.098854  0  4.048032  0  0  -0.101053  0  4.071562  0  0  -0.101952  -0.097437  0  4.031822  0
C  C53  1  0.25850216  0.42002084  0.42988124  1  0  -0.083534  0  3.79631  0  0  -0.098772  0  4.04804  0  0  -0.100971  0  4.071573  0  0  -0.101957  -0.097357  0  4.031834  0
C  C54  1  0.59689579  0.59699810  0.66356737  1  0  -0.083277  0  3.78869  0  0  -0.096591  0  4.038329  0  0  -0.098643  0  4.059671  0  0  -0.097791  -0.095304  0  4.023368  0
C  C55  1  0.40309445  0.40300539  0.33643047  1  0  -0.083377  0  3.788851  0  0  -0.096713  0  4.038472  0  0  -0.098769  0  4.059823  0  0  -0.097813  -0.095428  0  4.023517  0
C  C56  1  0.50128371  0.73310113  0.70546470  1  0  -0.137499  0  3.72749  0  0  -0.157017  0  3.982982  0  0  -0.158362  0  4.00056  0  0  -0.090917  -0.155903  0  3.971105  0
C  C57  1  0.49870610  0.26690345  0.29453630  1  0  -0.137507  0  3.727423  0  0  -0.157009  0  3.982936  0  0  -0.158365  0  4.000499  0  0  -0.090916  -0.155897  0  3.971064  0
C  C58  1  0.55439872  0.85216595  0.65141952  1  0  0.145608  0  3.854424  0  0  0.14112  0  4.105346  0  0  0.144816  0  4.128477  0  0  0.084641  0.138544  0  4.089285  0
C  C59  1  0.44559654  0.14783636  0.34859186  1  0  0.14571  0  3.854509  0  0  0.141287  0  4.105377  0  0  0.144985  0  4.128517  0  0  0.0847  0.138707  0  4.089319  0
C  C60  1  0.83927349  0.01007058  0.42428998  1  0  0.003978  0  3.62366  0  0  -0.057721  0  3.882863  0  0  -0.053647  0  3.894793  0  0  -0.053766  -0.05976  0  3.873532  0
C  C61  1  0.16071938  0.98993508  0.57571003  1  0  0.004104  0  3.623659  0  0  -0.057709  0  3.882944  0  0  -0.053641  0  3.894875  0  0  -0.053773  -0.059754  0  3.873621  0
C  C62  1  0.00348926  0.96147744  0.45174695  1  0  -0.126642  0  3.679405  0  0  -0.171151  0  3.945754  0  0  -0.17219  0  3.959252  0  0  -0.16283  -0.170417  0  3.936354  0
C  C63  1  0.99650129  0.03852822  0.54825609  1  0  -0.126734  0  3.679466  0  0  -0.171189  0  3.945728  0  0  -0.172225  0  3.95923  0  0  -0.16288  -0.170449  0  3.936335  0
C  C64  1  0.55712197  0.22555225  0.58943349  1  0  -0.391837  0  3.708464  0  0  -0.470157  0  3.941681  0  0  -0.474485  0  3.94699  0  0  -0.230862  -0.4669  0  3.936552  0
C  C65  1  0.44287131  0.77445230  0.41056825  1  0  -0.391898  0  3.708739  0  0  -0.470232  0  3.941885  0  0  -0.47455  0  3.947184  0  0  -0.230857  -0.466982  0  3.936772  0
C  C66  1  0.28536362  0.30562399  0.98071847  1  0  0.413797  0  3.684318  0  0  0.390721  0  3.95393  0  0  0.409452  0  3.967196  0  0  0.234923  0.378211  0  3.944325  0
C  C67  1  0.71464070  0.69437284  0.01928025  1  0  0.413805  0  3.68436  0  0  0.390642  0  3.954082  0  0  0.409415  0  3.967298  0  0  0.234861  0.378132  0  3.944471  0
C  C68  1  0.17140178  0.53655332  0.90916056  1  0  0.102948  0  3.797555  0  0  0.09236  0  4.043421  0  0  0.096491  0  4.065675  0  0  0.089625  0.089821  0  4.028729  0
C  C69  1  0.82861223  0.46344239  0.09083589  1  0  0.103025  0  3.797405  0  0  0.092408  0  4.043294  0  0  0.09654  0  4.06555  0  0  0.08964  0.089869  0  4.028601  0
C  C70  1  0.10259483  0.68824425  0.88521257  1  0  -0.133747  0  3.7452  0  0  -0.154538  0  4.001184  0  0  -0.15677  0  4.021455  0  0  -0.095006  -0.153656  0  3.987832  0
C  C71  1  0.89741885  0.31174926  0.11478274  1  0  -0.133782  0  3.745063  0  0  -0.154579  0  4.001058  0  0  -0.156812  0  4.02133  0  0  -0.095018  -0.153698  0  3.987703  0
C  C72  1  0.03720037  0.73873902  0.79081505  1  0  -0.082607  0  3.785399  0  0  -0.096578  0  4.037508  0  0  -0.099193  0  4.060831  0  0  -0.103062  -0.094643  0  4.021417  0
C  C73  1  0.96281248  0.26125669  0.20918007  1  0  -0.08254  0  3.785385  0  0  -0.096484  0  4.037487  0  0  -0.099097  0  4.06081  0  0  -0.103073  -0.094548  0  4.021398  0
C  C74  1  0.04230697  0.64073938  0.72211158  1  0  -0.100449  0  3.816434  0  0  -0.115384  0  4.070558  0  0  -0.117985  0  4.094327  0  0  -0.113426  -0.112966  0  4.053982  0
C  C75  1  0.95769860  0.35925415  0.27788741  1  0  -0.100517  0  3.816264  0  0  -0.115463  0  4.070389  0  0  -0.118066  0  4.094158  0  0  -0.113448  -0.113048  0  4.053813  0
C  C76  1  0.11197371  0.48877211  0.74631471  1  0  -0.154296  0  3.78051  0  0  -0.17002  0  4.028852  0  0  -0.172478  0  4.049006  0  0  -0.101058  -0.168476  0  4.01512  0
C  C77  1  0.88803566  0.51122361  0.25368129  1  0  -0.154204  0  3.780358  0  0  -0.169934  0  4.02872  0  0  -0.172391  0  4.048871  0  0  -0.101106  -0.16839  0  4.01499  0
C  C78  1  0.17651419  0.43664718  0.84153870  1  0  0.140368  0  3.881565  0  0  0.13626  0  4.131242  0  0  0.140215  0  4.154359  0  0  0.077989  0.133437  0  4.115398  0
C  C79  1  0.82348707  0.56334857  0.15846181  1  0  0.140293  0  3.881549  0  0  0.136201  0  4.131211  0  0  0.140155  0  4.154334  0  0  0.077994  0.133378  0  4.115368  0
C  C80  1  0.27274418  0.50887797  0.08085424  1  0  0.012506  0  3.634208  0  0  -0.047995  0  3.890072  0  0  -0.043611  0  3.902066  0  0  -0.054219  -0.0508  0  3.881415  0
C  C81  1  0.72726394  0.49112106  0.91914148  1  0  0.012327  0  3.634424  0  0  -0.04824  0  3.890335  0  0  -0.043855  0  3.902332  0  0  -0.05435  -0.051045  0  3.881669  0
C  C82  1  0.42114545  0.56010316  0.02732717  1  0  -0.128082  0  3.675062  0  0  -0.171019  0  3.93803  0  0  -0.172358  0  3.951964  0  0  -0.166694  -0.16997  0  3.928377  0
C  C83  1  0.57886582  0.43989365  0.97266815  1  0  -0.128084  0  3.675068  0  0  -0.171079  0  3.938136  0  0  -0.172418  0  3.952069  0  0  -0.166754  -0.170014  0  3.928472  0
C  C84  1  0.36571449  0.17888894  0.05591810  1  0  -0.410307  0  3.685446  0  0  -0.491956  0  3.922229  0  0  -0.496602  0  3.9265  0  0  -0.236861  -0.488516  0  3.919265  0
C  C85  1  0.63429015  0.82111009  0.94408094  1  0  -0.410291  0  3.685457  0  0  -0.491907  0  3.922208  0  0  -0.496568  0  3.926474  0  0  -0.236814  -0.48848  0  3.919276  0
C  C86  1  0.94259855  0.04228448  0.95780031  1  0  0.5018  0  3.970688  0  0  0.461331  0  4.263478  0  0  0.489889  0  4.259787  0  0  0.171527  0.442278  0  4.263848  0
C  C87  1  0.05740223  0.95770022  0.04221613  1  0  0.502287  0  3.970576  0  0  0.461847  0  4.263289  0  0  0.490411  0  4.259588  0  0  0.171633  0.442791  0  4.263664  0
N  N88  1  0.48680283  0.99778778  0.67433582  1  0  -0.458754  0  3.25266  0  0  -0.39829  0  3.565677  0  0  -0.418681  0  3.574607  0  0  -0.369406  -0.384935  0  3.5591  0
N  N89  1  0.51318615  0.00221899  0.32566579  1  0  -0.458798  0  3.252954  0  0  -0.398428  0  3.565939  0  0  -0.418823  0  3.574872  0  0  -0.369438  -0.385074  0  3.559366  0
N  N90  1  0.71192784  0.97306348  0.52225892  1  0  -0.175253  0  3.467497  0  0  -0.090603  0  3.688975  0  0  -0.108837  0  3.713801  0  0  -0.244348  -0.078367  0  3.671413  0
N  N91  1  0.28806313  0.02694109  0.47774259  1  0  -0.175235  0  3.467502  0  0  -0.090546  0  3.688867  0  0  -0.108774  0  3.713694  0  0  -0.244332  -0.078311  0  3.671306  0
N  N92  1  0.24750226  0.29443386  0.88860695  1  0  -0.474997  0  3.211884  0  0  -0.415239  0  3.514848  0  0  -0.436626  0  3.525286  0  0  -0.36901  -0.401196  0  3.507008  0
N  N93  1  0.75250322  0.70556297  0.11139065  1  0  -0.474985  0  3.211915  0  0  -0.415199  0  3.514893  0  0  -0.436599  0  3.525318  0  0  -0.368978  -0.401153  0  3.507049  0
N  N94  1  0.24072335  0.45059365  0.99658140  1  0  -0.176718  0  3.472494  0  0  -0.090311  0  3.68897  0  0  -0.108506  0  3.713837  0  0  -0.242204  -0.078172  0  3.671781  0
N  N95  1  0.75928718  0.54940207  0.00341512  1  0  -0.176752  0  3.472423  0  0  -0.090304  0  3.688933  0  0  -0.108514  0  3.713792  0  0  -0.242183  -0.078161  0  3.671738  0
O  O96  1  0.00911912  0.08876392  0.85498991  1  0  -0.622615  0  2.03001  0  0  -0.563358  0  2.286396  0  0  -0.587846  0  2.273448  0  0  -0.358298  -0.546753  0  2.294128  0
O  O97  1  0.99088105  0.91122844  0.14503016  1  0  -0.622865  0  2.029984  0  0  -0.563624  0  2.28633  0  0  -0.588116  0  2.273375  0  0  -0.358361  -0.547021  0  2.294064  0
O  O98  1  0.79064525  0.05918603  0.99843145  1  0  -0.61707  0  2.060052  0  0  -0.555922  0  2.316907  0  0  -0.581243  0  2.305897  0  0  -0.344718  -0.537867  0  2.323074  0
O  O99  1  0.20935165  0.94079980  0.00158090  1  0  -0.617229  0  2.060137  0  0  -0.556091  0  2.316984  0  0  -0.58141  0  2.30597  0  0  -0.344726  -0.538033  0  2.323156  0
