# generated using pymatgen
data_ZnH14C12(N2O3)2
_symmetry_space_group_name_H-M   'P 1'
_cell_length_a   7.92948198
_cell_length_b   10.39695908
_cell_length_c   10.39693990
_cell_angle_alpha   95.83751819
_cell_angle_beta   103.22539926
_cell_angle_gamma   103.22529188
_symmetry_Int_Tables_number   1
_chemical_formula_structural   ZnH14C12(N2O3)2
_chemical_formula_sum   'Zn2 H28 C24 N8 O12'
_cell_volume   801.48155049
_cell_formula_units_Z   2
loop_
 _symmetry_equiv_pos_site_id
 _symmetry_equiv_pos_as_xyz
  1  'x, y, z'
loop_
 _atom_site_type_symbol
 _atom_site_label
 _atom_site_symmetry_multiplicity
 _atom_site_fract_x
 _atom_site_fract_y
 _atom_site_fract_z
 _atom_site_occupancy
 _atom_site_hle17_bader_spin_density
 _atom_site_hle17_ddec_charge
 _atom_site_hle17_ddec_spin_density
 _atom_site_hle17_ddec_sum_bond_order
 _atom_site_hle17_magmom
 _atom_site_hse06_10hf_bader_spin_density
 _atom_site_hse06_10hf_ddec_charge
 _atom_site_hse06_10hf_ddec_spin_density
 _atom_site_hse06_10hf_ddec_sum_bond_order
 _atom_site_hse06_10hf_magmom
 _atom_site_hse06_bader_spin_density
 _atom_site_hse06_ddec_charge
 _atom_site_hse06_ddec_spin_density
 _atom_site_hse06_ddec_sum_bond_order
 _atom_site_hse06_magmom
 _atom_site_pbe_bader_spin_density
 _atom_site_pbe_cm5_charge
 _atom_site_pbe_ddec_charge
 _atom_site_pbe_ddec_spin_density
 _atom_site_pbe_ddec_sum_bond_order
 _atom_site_pbe_magmom
Zn  Zn0  1  0.75000140  0.64384612  0.35615523  1  0  1.176871  0  1.855631  0  0  1.016054  0  2.334741  0  0  1.056357  0  2.27637  0  0  0.739407  0.988432  0  2.374711  0
Zn  Zn1  1  0.24999683  0.35615437  0.64384623  1  0  1.17689  0  1.855598  0  0  1.016055  0  2.334714  0  0  1.056366  0  2.276336  0  0  0.739416  0.988436  0  2.374683  0
H  H2  1  0.76850466  0.60816207  0.60914618  1  0  0.426096  0  0.874391  0  0  0.39427  0  0.939088  0  0  0.404453  0  0.924256  0  0  0.295482  0.387177  0  0.949392  0
H  H3  1  0.26850266  0.60914393  0.60816153  1  0  0.426116  0  0.874351  0  0  0.394269  0  0.939085  0  0  0.404452  0  0.924253  0  0  0.29552  0.387175  0  0.94939  0
H  H4  1  0.23149709  0.39183741  0.39085677  1  0  0.42611  0  0.874367  0  0  0.394271  0  0.939092  0  0  0.404454  0  0.924259  0  0  0.295508  0.387177  0  0.949397  0
H  H5  1  0.73149651  0.39085555  0.39183808  1  0  0.426097  0  0.874382  0  0  0.39426  0  0.939101  0  0  0.404442  0  0.92427  0  0  0.295514  0.387165  0  0.949407  0
H  H6  1  0.58985513  0.65630733  0.56357996  1  0  0.42986  0  0.870426  0  0  0.397555  0  0.935639  0  0  0.407329  0  0.921512  0  0  0.296782  0.390751  0  0.945446  0
H  H7  1  0.08985354  0.56357849  0.65630647  1  0  0.429849  0  0.870442  0  0  0.397546  0  0.93565  0  0  0.407317  0  0.921529  0  0  0.2968  0.390742  0  0.945455  0
H  H8  1  0.41014532  0.34369216  0.43642277  1  0  0.429864  0  0.870419  0  0  0.397574  0  0.935606  0  0  0.407345  0  0.921485  0  0  0.2968  0.39077  0  0.945412  0
H  H9  1  0.91014398  0.43642000  0.34369371  1  0  0.429845  0  0.870446  0  0  0.397559  0  0.935625  0  0  0.407328  0  0.921509  0  0  0.296812  0.390755  0  0.945431  0
H  H10  1  0.20056422  0.14811992  0.34031146  1  0  0.053829  0  0.948229  0  0  0.066422  0  1.016117  0  0  0.066483  0  1.016255  0  0  0.102996  0.066263  0  1.016212  0
H  H11  1  0.70056748  0.34031548  0.14811797  1  0  0.053801  0  0.948256  0  0  0.066413  0  1.016163  0  0  0.066469  0  1.016302  0  0  0.103007  0.066254  0  1.016256  0
H  H12  1  0.79943329  0.85187858  0.65968871  1  0  0.053791  0  0.948275  0  0  0.066415  0  1.016154  0  0  0.066473  0  1.016295  0  0  0.102996  0.066255  0  1.016248  0
H  H13  1  0.29943256  0.65969002  0.85188046  1  0  0.053844  0  0.948263  0  0  0.066447  0  1.016128  0  0  0.066504  0  1.016269  0  0  0.103014  0.066288  0  1.016222  0
H  H14  1  0.25069822  0.16018698  0.18273966  1  0  0.041432  0  0.939501  0  0  0.052496  0  1.010308  0  0  0.052402  0  1.010344  0  0  0.095931  0.052481  0  1.010374  0
H  H15  1  0.75070344  0.18274393  0.16018834  1  0  0.041416  0  0.939498  0  0  0.05252  0  1.010276  0  0  0.052425  0  1.010309  0  0  0.095956  0.052506  0  1.010341  0
H  H16  1  0.74929929  0.83981151  0.81726052  1  0  0.041403  0  0.939506  0  0  0.052513  0  1.010288  0  0  0.052417  0  1.010324  0  0  0.095921  0.052499  0  1.01035  0
H  H17  1  0.24929788  0.81726156  0.83981224  1  0  0.041422  0  0.939502  0  0  0.052501  0  1.010283  0  0  0.052405  0  1.010318  0  0  0.095919  0.052486  0  1.010348  0
H  H18  1  0.94415691  0.00836703  0.15378346  1  0  0.103801  0  0.944031  0  0  0.127712  0  1.000459  0  0  0.12832  0  1.001436  0  0  0.091061  0.127231  0  0.999784  0
H  H19  1  0.44415907  0.15378232  0.00836861  1  0  0.103788  0  0.944004  0  0  0.127707  0  1.000423  0  0  0.128314  0  1.001403  0  0  0.09106  0.127225  0  0.999749  0
H  H20  1  0.05584247  0.99162945  0.84621782  1  0  0.103792  0  0.944051  0  0  0.127714  0  1.000467  0  0  0.128323  0  1.001446  0  0  0.091061  0.127232  0  0.999794  0
H  H21  1  0.55584175  0.84621815  0.99163139  1  0  0.103788  0  0.944  0  0  0.127704  0  1.000429  0  0  0.128311  0  1.001407  0  0  0.091053  0.127222  0  0.999754  0
H  H22  1  0.03666811  0.90546141  0.26105409  1  0  0.11422  0  0.967181  0  0  0.132399  0  1.03024  0  0  0.133142  0  1.031919  0  0  0.089669  0.13188  0  1.029051  0
H  H23  1  0.53666701  0.26105312  0.90545939  1  0  0.114197  0  0.967181  0  0  0.132375  0  1.030241  0  0  0.133117  0  1.031923  0  0  0.089659  0.131857  0  1.029048  0
H  H24  1  0.96333458  0.09453706  0.73894796  1  0  0.114191  0  0.967148  0  0  0.132388  0  1.030196  0  0  0.133131  0  1.031877  0  0  0.089685  0.13187  0  1.029005  0
H  H25  1  0.46333216  0.73894636  0.09454022  1  0  0.114197  0  0.967126  0  0  0.132373  0  1.030197  0  0  0.133116  0  1.031877  0  0  0.089654  0.131854  0  1.029007  0
H  H26  1  0.08658168  0.91411135  0.10356795  1  0  0.107681  0  0.960005  0  0  0.12539  0  1.024389  0  0  0.127194  0  1.024165  0  0  0.087629  0.124009  0  1.024639  0
H  H27  1  0.58658442  0.10356733  0.91411363  1  0  0.107652  0  0.960013  0  0  0.125362  0  1.024395  0  0  0.127165  0  1.024172  0  0  0.08762  0.12398  0  1.024644  0
H  H28  1  0.91341935  0.08588612  0.89643468  1  0  0.107637  0  0.960033  0  0  0.125347  0  1.024421  0  0  0.127151  0  1.024197  0  0  0.087609  0.123966  0  1.02467  0
H  H29  1  0.41341770  0.89643314  0.08588661  1  0  0.107631  0  0.960061  0  0  0.125342  0  1.024446  0  0  0.127145  0  1.024224  0  0  0.087607  0.123962  0  1.024694  0
C  C30  1  0.67227584  0.93937424  0.37408478  1  0  0.384117  0  3.816958  0  0  0.353637  0  4.091951  0  0  0.372085  0  4.108021  0  0  0.203004  0.340988  0  4.081329  0
C  C31  1  0.17228211  0.37408122  0.93936257  1  0  0.384222  0  3.817219  0  0  0.353746  0  4.092162  0  0  0.372167  0  4.108227  0  0  0.203191  0.341094  0  4.081547  0
C  C32  1  0.32772327  0.06063226  0.62591263  1  0  0.384059  0  3.817009  0  0  0.353594  0  4.091992  0  0  0.372036  0  4.108061  0  0  0.202978  0.340941  0  4.081375  0
C  C33  1  0.82772002  0.62591925  0.06063574  1  0  0.384106  0  3.817213  0  0  0.353626  0  4.092174  0  0  0.372059  0  4.108239  0  0  0.203048  0.340979  0  4.081557  0
C  C34  1  0.85020143  0.16130153  0.47147568  1  0  0.374952  0  3.810857  0  0  0.350433  0  4.076658  0  0  0.367923  0  4.092642  0  0  0.204618  0.338498  0  4.066028  0
C  C35  1  0.35018719  0.47147371  0.16129876  1  0  0.37485  0  3.810656  0  0  0.350325  0  4.07646  0  0  0.367799  0  4.092453  0  0  0.2045  0.33838  0  4.065824  0
C  C36  1  0.14980072  0.83869893  0.52851975  1  0  0.374962  0  3.810758  0  0  0.35046  0  4.076557  0  0  0.367943  0  4.092544  0  0  0.204615  0.338521  0  4.065926  0
C  C37  1  0.64980481  0.52852380  0.83869842  1  0  0.375042  0  3.810798  0  0  0.35052  0  4.076595  0  0  0.368005  0  4.092583  0  0  0.204677  0.338581  0  4.065961  0
C  C38  1  0.68418802  0.07618131  0.39914965  1  0  -0.349049  0  3.967843  0  0  -0.335821  0  4.240253  0  0  -0.354704  0  4.253892  0  0  -0.058573  -0.323119  0  4.230883  0
C  C39  1  0.18419340  0.39915326  0.07618780  1  0  -0.349128  0  3.967518  0  0  -0.335881  0  4.239864  0  0  -0.354705  0  4.253462  0  0  -0.058629  -0.323155  0  4.230484  0
C  C40  1  0.31581119  0.92381816  0.60084419  1  0  -0.349161  0  3.967432  0  0  -0.335962  0  4.239887  0  0  -0.354826  0  4.253509  0  0  -0.05863  -0.323245  0  4.23051  0
C  C41  1  0.81580834  0.60084622  0.92381419  1  0  -0.349138  0  3.967514  0  0  -0.335884  0  4.239897  0  0  -0.354746  0  4.253523  0  0  -0.058579  -0.323175  0  4.230522  0
C  C42  1  0.53421908  0.13251423  0.35883187  1  0  0.603717  0  3.906822  0  0  0.540875  0  4.214574  0  0  0.57519  0  4.209197  0  0  0.223482  0.517771  0  4.21735  0
C  C43  1  0.03422313  0.35883337  0.13251803  1  0  0.60391  0  3.906601  0  0  0.541079  0  4.214325  0  0  0.575378  0  4.208947  0  0  0.223546  0.517968  0  4.217105  0
C  C44  1  0.46577852  0.86747723  0.64116763  1  0  0.603913  0  3.906694  0  0  0.541059  0  4.214468  0  0  0.575369  0  4.209088  0  0  0.22356  0.517952  0  4.217245  0
C  C45  1  0.96577698  0.64116510  0.86748165  1  0  0.603833  0  3.906891  0  0  0.540965  0  4.214665  0  0  0.575273  0  4.209292  0  0  0.22351  0.517858  0  4.217441  0
C  C46  1  0.22179130  0.09121498  0.25320364  1  0  0.153447  0  3.595501  0  0  0.094055  0  3.87175  0  0  0.103711  0  3.876435  0  0  -0.070844  0.087425  0  3.868579  0
C  C47  1  0.72179623  0.25320540  0.09121352  1  0  0.153512  0  3.595535  0  0  0.094022  0  3.87191  0  0  0.103691  0  3.876576  0  0  -0.070871  0.087391  0  3.868738  0
C  C48  1  0.77820622  0.90878352  0.74679654  1  0  0.153484  0  3.595453  0  0  0.094005  0  3.871794  0  0  0.103667  0  3.876471  0  0  -0.070854  0.087376  0  3.86862  0
C  C49  1  0.27820568  0.74679808  0.90878505  1  0  0.153392  0  3.595582  0  0  0.094006  0  3.871806  0  0  0.10367  0  3.876484  0  0  -0.070857  0.087375  0  3.868634  0
C  C50  1  0.06405690  0.97245063  0.18920990  1  0  -0.323302  0  3.705821  0  0  -0.397002  0  3.948868  0  0  -0.400342  0  3.958412  0  0  -0.250112  -0.394391  0  3.942214  0
C  C51  1  0.56406083  0.18921069  0.97245161  1  0  -0.32324  0  3.705819  0  0  -0.396923  0  3.948905  0  0  -0.400265  0  3.958446  0  0  -0.250095  -0.394309  0  3.942251  0
C  C52  1  0.93594189  0.02754786  0.81079243  1  0  -0.323205  0  3.705824  0  0  -0.396914  0  3.948898  0  0  -0.400255  0  3.95844  0  0  -0.2501  -0.394302  0  3.942244  0
C  C53  1  0.43594236  0.81079279  0.02755007  1  0  -0.323203  0  3.705777  0  0  -0.396917  0  3.948839  0  0  -0.400257  0  3.958382  0  0  -0.250082  -0.394307  0  3.942184  0
N  N54  1  0.67075315  0.82610864  0.35541096  1  0  -0.487991  0  2.843983  0  0  -0.440527  0  3.12551  0  0  -0.458472  0  3.130289  0  0  -0.32795  -0.428606  0  3.122544  0
N  N55  1  0.17075378  0.35541365  0.82612270  1  0  -0.4879  0  2.844926  0  0  -0.440423  0  3.126396  0  0  -0.458364  0  3.131182  0  0  -0.328  -0.42851  0  3.123439  0
N  N56  1  0.32924601  0.17389085  0.64458961  1  0  -0.487888  0  2.844245  0  0  -0.440429  0  3.125769  0  0  -0.458376  0  3.130552  0  0  -0.327903  -0.428511  0  3.122809  0
N  N57  1  0.82924444  0.64458685  0.17387972  1  0  -0.487829  0  2.844707  0  0  -0.440361  0  3.126195  0  0  -0.4583  0  3.130974  0  0  -0.327931  -0.428445  0  3.123233  0
N  N58  1  0.98867393  0.23226288  0.53242409  1  0  -0.464177  0  2.827385  0  0  -0.415821  0  3.098995  0  0  -0.432936  0  3.103904  0  0  -0.319689  -0.40438  0  3.095951  0
N  N59  1  0.48868759  0.53242998  0.23227062  1  0  -0.464236  0  2.826757  0  0  -0.415862  0  3.098359  0  0  -0.432982  0  3.103277  0  0  -0.319657  -0.404419  0  3.095312  0
N  N60  1  0.01132620  0.76773559  0.46757174  1  0  -0.46418  0  2.827317  0  0  -0.415818  0  3.09891  0  0  -0.432935  0  3.103822  0  0  -0.319689  -0.404377  0  3.095866  0
N  N61  1  0.51131652  0.46757250  0.76773209  1  0  -0.464339  0  2.827145  0  0  -0.415977  0  3.098754  0  0  -0.433096  0  3.103665  0  0  -0.319786  -0.404534  0  3.095708  0
O  O62  1  0.67184734  0.61058845  0.53095510  1  0  -0.833956  0  1.956744  0  0  -0.773874  0  2.170901  0  0  -0.794858  0  2.137424  0  0  -0.58277  -0.759143  0  2.193541  0
O  O63  1  0.17184215  0.53095390  0.61058790  1  0  -0.83399  0  1.956788  0  0  -0.773858  0  2.170909  0  0  -0.794829  0  2.137408  0  0  -0.582816  -0.759127  0  2.193549  0
O  O64  1  0.32815735  0.38941201  0.46904751  1  0  -0.834044  0  1.956791  0  0  -0.77391  0  2.170873  0  0  -0.794892  0  2.137396  0  0  -0.582836  -0.75918  0  2.193514  0
O  O65  1  0.82815960  0.46904557  0.38941313  1  0  -0.834  0  1.95681  0  0  -0.773874  0  2.170907  0  0  -0.794841  0  2.137409  0  0  -0.582848  -0.759144  0  2.19355  0
O  O66  1  0.54584169  0.25529055  0.37629698  1  0  -0.59221  0  2.062268  0  0  -0.525795  0  2.277479  0  0  -0.549241  0  2.26936  0  0  -0.282243  -0.509516  0  2.282406  0
O  O67  1  0.04584740  0.37629879  0.25529245  1  0  -0.592303  0  2.062241  0  0  -0.525896  0  2.277446  0  0  -0.549348  0  2.269345  0  0  -0.282286  -0.509616  0  2.282374  0
O  O68  1  0.45415668  0.74471396  0.62370394  1  0  -0.592319  0  2.06261  0  0  -0.525842  0  2.277796  0  0  -0.54929  0  2.269678  0  0  -0.282276  -0.509567  0  2.282725  0
O  O69  1  0.95415635  0.62370268  0.74471106  1  0  -0.592308  0  2.062483  0  0  -0.525856  0  2.277683  0  0  -0.549296  0  2.269558  0  0  -0.282289  -0.509581  0  2.282615  0
O  O70  1  0.37871818  0.04010371  0.29840039  1  0  -0.330856  0  2.263459  0  0  -0.254443  0  2.501886  0  0  -0.275873  0  2.501042  0  0  -0.168163  -0.239545  0  2.50194  0
O  O71  1  0.87872266  0.29840146  0.04010483  1  0  -0.330947  0  2.263386  0  0  -0.254533  0  2.501855  0  0  -0.275968  0  2.50101  0  0  -0.168193  -0.239637  0  2.501913  0
O  O72  1  0.62127876  0.95989679  0.70159989  1  0  -0.330891  0  2.263204  0  0  -0.254502  0  2.501689  0  0  -0.275934  0  2.500846  0  0  -0.168172  -0.239605  0  2.501744  0
O  O73  1  0.12127723  0.70160002  0.95989511  1  0  -0.330839  0  2.26342  0  0  -0.254454  0  2.50187  0  0  -0.275888  0  2.501028  0  0  -0.168156  -0.239557  0  2.501925  0
