# generated using pymatgen
data_ZnH22C29N3O4
_symmetry_space_group_name_H-M   'P 1'
_cell_length_a   15.29263044
_cell_length_b   18.24875628
_cell_length_c   19.65197746
_cell_angle_alpha   89.99965853
_cell_angle_beta   90.36357544
_cell_angle_gamma   90.00025679
_symmetry_Int_Tables_number   1
_chemical_formula_structural   ZnH22C29N3O4
_chemical_formula_sum   'Zn2 H44 C58 N6 O8'
_cell_volume   5484.19612997
_cell_formula_units_Z   2
loop_
 _symmetry_equiv_pos_site_id
 _symmetry_equiv_pos_as_xyz
  1  'x, y, z'
loop_
 _atom_site_type_symbol
 _atom_site_label
 _atom_site_symmetry_multiplicity
 _atom_site_fract_x
 _atom_site_fract_y
 _atom_site_fract_z
 _atom_site_occupancy
 _atom_site_pbe_bader_charge
 _atom_site_pbe_bader_spin_density
 _atom_site_pbe_cm5_charge
 _atom_site_pbe_ddec_charge
 _atom_site_pbe_ddec_spin_density
 _atom_site_pbe_ddec_sum_bond_order
 _atom_site_pbe_magmom
Zn  Zn0  1  0.49999892  0.42455212  0.49999976  1  1.269895  0  0.662205  0.810608  0  2.440528  0
Zn  Zn1  1  0.49999998  0.57531692  0.49999934  1  1.25042  0  0.661983  0.810313  0  2.442516  0
H  H2  1  0.36032989  0.06743716  0.48446268  1  0.081201  0  0.106718  0.105867  0  0.995292  0
H  H3  1  0.44496412  0.39096302  0.28347305  1  0.094135  0  0.095468  0.105733  0  1.029521  0
H  H4  1  0.55240509  0.60768154  0.28477345  1  0.07298  0  0.097285  0.110212  0  1.022991  0
H  H5  1  0.55503616  0.39096350  0.71652514  1  0.094072  0  0.095455  0.105717  0  1.029492  0
H  H6  1  0.35987108  0.50126092  0.93535230  1  0.076792  0  0.101703  0.105233  0  0.994598  0
H  H7  1  0.64013175  0.50126638  0.06464579  1  0.076679  0  0.101737  0.105274  0  0.994456  0
H  H8  1  0.35910742  0.49810620  0.06206236  1  0.065475  0  0.100988  0.103692  0  0.99556  0
H  H9  1  0.64089540  0.49810780  0.93793575  1  0.065374  0  0.100982  0.103686  0  0.995618  0
H  H10  1  0.59767326  0.30788988  0.57300632  1  0.121266  0  0.130494  0.106236  0  0.96722  0
H  H11  1  0.40233724  0.69202629  0.42692361  1  0.121304  0  0.131749  0.10846  0  0.964214  0
H  H12  1  0.40232986  0.30788943  0.42699641  1  0.121376  0  0.130496  0.106233  0  0.967127  0
H  H13  1  0.63965157  0.93245325  0.51561930  1  0.082419  0  0.106606  0.105631  0  0.995744  0
H  H14  1  0.59766532  0.69202455  0.57307798  1  0.121636  0  0.131742  0.108438  0  0.964202  0
H  H15  1  0.60191324  0.17064381  0.57676072  1  0.077848  0  0.111534  0.116827  0  0.996061  0
H  H16  1  0.39883216  0.82924606  0.42261350  1  0.085608  0  0.111802  0.117634  0  0.99503  0
H  H17  1  0.39809110  0.17064391  0.42324126  1  0.07796  0  0.111558  0.116909  0  0.996052  0
H  H18  1  0.60116655  0.82924485  0.57738680  1  0.085579  0  0.111803  0.117635  0  0.995032  0
H  H19  1  0.77759599  0.38305283  0.49768562  1  0.108756  0  0.099974  0.106112  0  1.012672  0
H  H20  1  0.22218432  0.61777464  0.49733256  1  0.097546  0  0.10024  0.106038  0  1.012753  0
H  H21  1  0.08105424  0.68690347  0.49933567  1  0.05849  0  0.097773  0.098238  0  0.999754  0
H  H22  1  0.91899573  0.31381933  0.49939349  1  0.063475  0  0.097848  0.098242  0  1.000038  0
H  H23  1  0.40858978  0.65761670  0.81488635  1  0.380101  0  0.296564  0.236763  0  0.952708  0
H  H24  1  0.63967390  0.06743813  0.51553937  1  0.081  0  0.106671  0.105786  0  0.995279  0
H  H25  1  0.46487495  0.71264710  0.91395913  1  0.026848  0  0.096068  0.101627  0  0.98815  0
H  H26  1  0.55595521  0.68676073  0.86218737  1  0.028801  0  0.080207  0.074011  0  1.003935  0
H  H27  1  0.52487421  0.63195617  0.93309252  1  0.051858  0  0.096793  0.107718  0  1.036375  0
H  H28  1  0.40671673  0.34141413  0.18316305  1  0.397317  0  0.295488  0.235366  0  0.954798  0
H  H29  1  0.46499093  0.28636860  0.08556970  1  0.018783  0  0.096076  0.101  0  0.988439  0
H  H30  1  0.55510682  0.31317427  0.13887320  1  0.033781  0  0.081751  0.076589  0  1.001806  0
H  H31  1  0.52444558  0.36737265  0.06713706  1  0.058615  0  0.096996  0.10808  0  1.036659  0
H  H32  1  0.59140997  0.65762068  0.18511492  1  0.380008  0  0.296496  0.236826  0  0.952616  0
H  H33  1  0.53512118  0.71264929  0.08604131  1  0.02762  0  0.096074  0.101662  0  0.988095  0
H  H34  1  0.44404405  0.68675843  0.13781323  1  0.028817  0  0.080189  0.074014  0  1.003963  0
H  H35  1  0.36034770  0.93245228  0.48438348  1  0.082418  0  0.106586  0.105593  0  0.995711  0
H  H36  1  0.47512476  0.63195771  0.06691042  1  0.052033  0  0.096792  0.1077  0  1.036531  0
H  H37  1  0.59328459  0.34141303  0.81683440  1  0.397254  0  0.295476  0.235381  0  0.954811  0
H  H38  1  0.53501468  0.28636667  0.91443011  1  0.018664  0  0.096072  0.101009  0  0.988422  0
H  H39  1  0.44489828  0.31317178  0.86113003  1  0.033886  0  0.081744  0.076544  0  1.00185  0
H  H40  1  0.47555981  0.36736983  0.93286179  1  0.058803  0  0.097  0.108073  0  1.036758  0
H  H41  1  0.77781528  0.61777511  0.50269132  1  0.097671  0  0.100208  0.105981  0  1.01273  0
H  H42  1  0.22239895  0.38305124  0.50228512  1  0.108612  0  0.10008  0.106134  0  1.012663  0
H  H43  1  0.91894714  0.68690393  0.50072599  1  0.058059  0  0.097784  0.098184  0  0.999881  0
H  H44  1  0.08099489  0.31382160  0.50056795  1  0.063152  0  0.09789  0.098342  0  1.000007  0
H  H45  1  0.44759505  0.60768163  0.71522708  1  0.072946  0  0.09727  0.11018  0  1.023039  0
C  C46  1  0.49839596  0.49909460  0.36740362  1  1.538146  0  0.213598  0.597835  0  4.150675  0
C  C47  1  0.46790777  0.43793918  0.18391454  1  0.279445  0  0.084343  0.187869  0  4.062238  0
C  C48  1  0.52988010  0.56122660  0.18458211  1  0.320428  0  0.0855  0.190249  0  4.059451  0
C  C49  1  0.53209146  0.43793840  0.81608389  1  0.279757  0  0.084367  0.187899  0  4.062318  0
C  C50  1  0.50094201  0.49965476  0.85235475  1  -0.034725  0  -0.015624  -0.109361  0  3.901833  0
C  C51  1  0.49905886  0.49965698  0.14764334  1  -0.034519  0  -0.015669  -0.109431  0  3.90178  0
C  C52  1  0.50158862  0.49936862  0.70877876  1  -0.052968  0  -0.025492  0.003003  0  4.040505  0
C  C53  1  0.49841159  0.49936664  0.29122035  1  -0.052482  0  -0.025558  0.002942  0  4.040541  0
C  C54  1  0.42134127  0.50028663  0.96379948  1  -0.025795  0  -0.092403  -0.136309  0  3.994752  0
C  C55  1  0.57866156  0.50028930  0.03620014  1  -0.025642  0  -0.092381  -0.136306  0  3.994597  0
C  C56  1  0.42093465  0.49911414  0.03474627  1  -0.109892  0  -0.091453  -0.134981  0  3.994715  0
C  C57  1  0.50160293  0.49909761  0.63259447  1  1.538208  0  0.213629  0.597941  0  4.150953  0
C  C58  1  0.57906883  0.49911369  0.96525183  1  -0.108965  0  -0.09141  -0.134917  0  3.994682  0
C  C59  1  0.49955196  0.49970325  0.07202500  1  0.065032  0  -0.007043  0.093573  0  4.007394  0
C  C60  1  0.50045282  0.49970110  0.92797311  1  0.065333  0  -0.006996  0.093569  0  4.007379  0
C  C61  1  0.55512665  0.27460434  0.54068664  1  0.419781  0  0.062552  0.108748  0  3.923499  0
C  C62  1  0.44512798  0.72528442  0.45907060  1  0.411185  0  0.062373  0.10817  0  3.922161  0
C  C63  1  0.44487694  0.27460439  0.45931628  1  0.419875  0  0.062559  0.108829  0  3.92348  0
C  C64  1  0.55487214  0.72528492  0.54092978  1  0.410647  0  0.062404  0.108213  0  3.921978  0
C  C65  1  0.55719816  0.19851313  0.54201693  1  0.073076  0  -0.081601  -0.183689  0  3.958216  0
C  C66  1  0.44321120  0.80138112  0.45764212  1  0.106023  0  -0.082049  -0.184688  0  3.959174  0
C  C67  1  0.44280568  0.19851318  0.45798540  1  0.0731  0  -0.081597  -0.183823  0  3.958329  0
C  C68  1  0.04464802  0.63541825  0.49960880  1  -0.145902  0  -0.095896  -0.138658  0  4.036212  0
C  C69  1  0.55678868  0.80138271  0.54236088  1  0.106356  0  -0.082052  -0.184666  0  3.959179  0
C  C70  1  0.50000214  0.15843207  0.50000154  1  -0.11806  0  0.014648  0.112894  0  4.000018  0
C  C71  1  0.50000070  0.84146327  0.50000216  1  -0.198775  0  0.014295  0.112179  0  4.001333  0
C  C72  1  0.32897531  0.50063644  0.49925199  1  1.506307  0  0.213265  0.595912  0  4.163186  0
C  C73  1  0.67102294  0.50063762  0.50074456  1  1.506311  0  0.213318  0.596045  0  4.16309  0
C  C74  1  0.42205447  0.03805389  0.49022704  1  -0.146187  0  -0.084558  -0.12007  0  3.983148  0
C  C75  1  0.57794909  0.96183324  0.50980006  1  0.034145  0  -0.084413  -0.119804  0  3.983787  0
C  C76  1  0.57794721  0.03805302  0.50977619  1  -0.146044  0  -0.084537  -0.119987  0  3.983128  0
C  C77  1  0.42205099  0.96183355  0.49020255  1  0.034091  0  -0.084413  -0.119763  0  3.983593  0
C  C78  1  0.50000092  0.92230111  0.50000142  1  0.048604  0  -0.004642  0.062559  0  4.001429  0
C  C79  1  0.95532885  0.36533304  0.49969309  1  0.034692  0  -0.096025  -0.13849  0  4.03498  0
C  C80  1  0.50000061  0.07760245  0.50000176  1  0.071595  0  -0.004528  0.062835  0  4.001066  0
C  C81  1  0.81484627  0.43401308  0.49916380  1  -0.049479  0  -0.084713  -0.146408  0  3.938613  0
C  C82  1  0.18502222  0.56677603  0.49839794  1  -0.033662  0  -0.085724  -0.147089  0  3.941606  0
C  C83  1  0.76920211  0.50043505  0.50057755  1  0.016603  0  -0.019762  -0.023258  0  4.000065  0
C  C84  1  0.23079548  0.50043515  0.49941798  1  0.016336  0  -0.01968  -0.022993  0  4.000119  0
C  C85  1  0.81497444  0.56677664  0.50160637  1  -0.034325  0  -0.08561  -0.146821  0  3.941355  0
C  C86  1  0.18514898  0.43401355  0.50082039  1  -0.0493  0  -0.084819  -0.146579  0  3.93884  0
C  C87  1  0.90665769  0.56820047  0.50069263  1  -0.012255  0  -0.010421  0.074437  0  4.048776  0
C  C88  1  0.09342095  0.43254314  0.50032038  1  -0.019876  0  -0.01073  0.073961  0  4.04745  0
C  C89  1  0.95352676  0.50036526  0.50010537  1  -0.078973  0  0.003537  0.004232  0  3.908595  0
C  C90  1  0.47058193  0.56029644  0.74409753  1  -0.007237  0  -0.112643  -0.237509  0  4.004656  0
C  C91  1  0.04647281  0.50036521  0.49989526  1  0.080743  0  0.003563  0.004266  0  3.908655  0
C  C92  1  0.90657232  0.43254301  0.49966178  1  -0.018995  0  -0.010651  0.073932  0  4.047064  0
C  C93  1  0.09333965  0.56819842  0.49931778  1  -0.01256  0  -0.010347  0.07466  0  4.048609  0
C  C94  1  0.95535104  0.63542104  0.50042211  1  0.027391  0  -0.095752  -0.138307  0  4.036434  0
C  C95  1  0.04466206  0.36533464  0.50027671  1  -0.143167  0  -0.096083  -0.138658  0  4.03524  0
C  C96  1  0.49953623  0.66594652  0.89147541  1  0.264691  0  -0.146743  -0.215211  0  4.001337  0
C  C97  1  0.49895057  0.33339646  0.10842695  1  0.252684  0  -0.147764  -0.215912  0  3.998915  0
C  C98  1  0.50045834  0.66594899  0.10852427  1  0.263845  0  -0.146734  -0.21518  0  4.001018  0
C  C99  1  0.50105071  0.33339290  0.89157462  1  0.252706  0  -0.147714  -0.215772  0  3.998629  0
C  C100  1  0.46770250  0.43862667  0.25518823  1  0.042868  0  -0.113149  -0.236002  0  4.01197  0
C  C101  1  0.52941795  0.56029535  0.25590072  1  -0.007661  0  -0.112624  -0.237503  0  4.004687  0
C  C102  1  0.53229804  0.43862853  0.74481071  1  0.042959  0  -0.113187  -0.236057  0  4.01199  0
C  C103  1  0.47011979  0.56122559  0.81541767  1  0.320487  0  0.085512  0.190224  0  4.059107  0
N  N104  1  0.50000124  0.31200473  0.50000161  1  -1.220618  0  -0.315964  -0.190741  0  3.51147  0
N  N105  1  0.50000028  0.68789884  0.49999953  1  -1.203926  0  -0.316349  -0.191942  0  3.512508  0
N  N106  1  0.43800592  0.62393764  0.84940710  1  -1.101136  0  -0.467521  -0.335315  0  3.486007  0
N  N107  1  0.43641798  0.37524126  0.14920483  1  -1.100825  0  -0.467799  -0.335706  0  3.485828  0
N  N108  1  0.56199562  0.62393569  0.15059589  1  -1.100995  0  -0.467412  -0.335428  0  3.485777  0
N  N109  1  0.56358613  0.37524421  0.85079041  1  -1.100922  0  -0.467788  -0.335758  0  3.485628  0
O  O110  1  0.47936150  0.43902079  0.39704395  1  -1.171233  0  -0.322858  -0.553895  0  2.317673  0
O  O111  1  0.48244394  0.55904915  0.60262008  1  -1.167845  0  -0.32279  -0.550939  0  2.315881  0
O  O112  1  0.52063708  0.43902460  0.60295549  1  -1.171344  0  -0.322925  -0.553969  0  2.317984  0
O  O113  1  0.51755725  0.55904548  0.39737921  1  -1.167788  0  -0.322814  -0.550907  0  2.315749  0
O  O114  1  0.36713984  0.44025647  0.51274971  1  -1.168751  0  -0.320954  -0.550461  0  2.312032  0
O  O115  1  0.63336560  0.56118575  0.51425251  1  -1.169656  0  -0.321235  -0.554303  0  2.316922  0
O  O116  1  0.63285743  0.44025869  0.48724565  1  -1.16869  0  -0.321017  -0.550588  0  2.312111  0
O  O117  1  0.36663429  0.56118589  0.48574523  1  -1.169611  0  -0.321265  -0.554351  0  2.316985  0
