# generated using pymatgen
data_SrH16C14(NO3)2
_symmetry_space_group_name_H-M   'P 1'
_cell_length_a   6.78138528
_cell_length_b   7.45361776
_cell_length_c   16.26520462
_cell_angle_alpha   103.23326791
_cell_angle_beta   98.29090040
_cell_angle_gamma   90.02635949
_symmetry_Int_Tables_number   1
_chemical_formula_structural   SrH16C14(NO3)2
_chemical_formula_sum   'Sr2 H32 C28 N4 O12'
_cell_volume   791.46526880
_cell_formula_units_Z   2
loop_
 _symmetry_equiv_pos_site_id
 _symmetry_equiv_pos_as_xyz
  1  'x, y, z'
loop_
 _atom_site_type_symbol
 _atom_site_label
 _atom_site_symmetry_multiplicity
 _atom_site_fract_x
 _atom_site_fract_y
 _atom_site_fract_z
 _atom_site_occupancy
 _atom_site_hle17_bader_spin_density
 _atom_site_hle17_ddec_charge
 _atom_site_hle17_ddec_spin_density
 _atom_site_hle17_ddec_sum_bond_order
 _atom_site_hle17_magmom
 _atom_site_hse06_10hf_bader_spin_density
 _atom_site_hse06_10hf_ddec_charge
 _atom_site_hse06_10hf_ddec_spin_density
 _atom_site_hse06_10hf_ddec_sum_bond_order
 _atom_site_hse06_10hf_magmom
 _atom_site_hse06_bader_spin_density
 _atom_site_hse06_ddec_charge
 _atom_site_hse06_ddec_spin_density
 _atom_site_hse06_ddec_sum_bond_order
 _atom_site_hse06_magmom
 _atom_site_pbe_bader_spin_density
 _atom_site_pbe_cm5_charge
 _atom_site_pbe_ddec_charge
 _atom_site_pbe_ddec_spin_density
 _atom_site_pbe_ddec_sum_bond_order
 _atom_site_pbe_magmom
Sr  Sr0  1  0.72897198  0.42604295  0.94151013  1  0  1.615144  0  1.162369  0  0  1.471718  0  1.540165  0  0  1.509411  0  1.495093  0  0  0.969087  1.443925  0  1.572138  0
Sr  Sr1  1  0.27058545  0.48385214  0.05854886  1  0  1.614662  0  1.161394  0  0  1.470377  0  1.540429  0  0  1.508129  0  1.49532  0  0  0.968623  1.442564  0  1.572387  0
H  H2  1  0.96722296  0.57648711  0.66218131  1  0  0.302625  0  0.929097  0  0  0.292873  0  0.986116  0  0  0.297347  0  0.985001  0  0  0.294791  0.28975  0  0.986806  0
H  H3  1  0.03205653  0.91451369  0.33784484  1  0  0.30274  0  0.927397  0  0  0.292686  0  0.984984  0  0  0.297182  0  0.983842  0  0  0.294834  0.289537  0  0.985712  0
H  H4  1  0.88713181  0.60977432  0.76171174  1  0  0.326378  0  0.929962  0  0  0.307091  0  0.995907  0  0  0.315029  0  0.989209  0  0  0.298009  0.30146  0  1.000619  0
H  H5  1  0.11182663  0.84832786  0.23827558  1  0  0.326488  0  0.931573  0  0  0.307978  0  0.996207  0  0  0.315926  0  0.989483  0  0  0.298576  0.302338  0  1.000934  0
H  H6  1  0.31987324  0.32113658  0.25756240  1  0  0.303564  0  0.923031  0  0  0.293469  0  0.981065  0  0  0.297894  0  0.979598  0  0  0.298332  0.29029  0  0.982154  0
H  H7  1  0.68012058  0.06371519  0.74211162  1  0  0.303266  0  0.923941  0  0  0.293631  0  0.981338  0  0  0.298056  0  0.979879  0  0  0.298288  0.290466  0  0.982383  0
H  H8  1  0.14243042  0.27765983  0.17018812  1  0  0.31176  0  0.913202  0  0  0.301123  0  0.968195  0  0  0.307286  0  0.963493  0  0  0.307147  0.296733  0  0.97157  0
H  H9  1  0.85685941  0.10799919  0.82972713  1  0  0.313857  0  0.911251  0  0  0.302621  0  0.967004  0  0  0.30884  0  0.962233  0  0  0.307659  0.298198  0  0.970421  0
H  H10  1  0.76282332  0.65684500  0.54377407  1  0  0.095508  0  0.96913  0  0  0.108874  0  1.028255  0  0  0.11155  0  1.028185  0  0  0.097341  0.107017  0  1.028333  0
H  H11  1  0.23711703  0.11300159  0.45623456  1  0  0.0952  0  0.968838  0  0  0.108147  0  1.028482  0  0  0.110833  0  1.0284  0  0  0.097086  0.106276  0  1.028596  0
H  H12  1  0.46926759  0.74246809  0.94870818  1  0  0.41575  0  0.901507  0  0  0.381727  0  0.970797  0  0  0.393658  0  0.953338  0  0  0.291333  0.37329  0  0.983123  0
H  H13  1  0.52949231  0.79371183  0.05110952  1  0  0.414846  0  0.902198  0  0  0.380863  0  0.971456  0  0  0.392788  0  0.954042  0  0  0.29119  0.372426  0  0.983759  0
H  H14  1  0.45068277  0.78788743  0.48803496  1  0  0.078159  0  0.966866  0  0  0.089047  0  1.030762  0  0  0.09138  0  1.029416  0  0  0.095415  0.087352  0  1.031743  0
H  H15  1  0.54972734  0.29931406  0.51185746  1  0  0.078935  0  0.965718  0  0  0.089415  0  1.029917  0  0  0.091844  0  1.028469  0  0  0.095735  0.087668  0  1.030935  0
H  H16  1  0.20036895  0.90695701  0.58512729  1  0  0.084263  0  0.988482  0  0  0.094105  0  1.052647  0  0  0.096362  0  1.053728  0  0  0.089713  0.092536  0  1.051936  0
H  H17  1  0.79975224  0.32136686  0.41460200  1  0  0.084593  0  0.988888  0  0  0.094452  0  1.052848  0  0  0.096616  0  1.054086  0  0  0.089743  0.092921  0  1.0521  0
H  H18  1  0.26277684  0.87635729  0.73558282  1  0  0.10101  0  0.956296  0  0  0.10555  0  1.025816  0  0  0.109296  0  1.022595  0  0  0.098921  0.102884  0  1.027979  0
H  H19  1  0.73675042  0.14041340  0.26414252  1  0  0.10093  0  0.955527  0  0  0.105692  0  1.024721  0  0  0.109424  0  1.021496  0  0  0.098997  0.103035  0  1.026874  0
H  H20  1  0.61536862  0.99779024  0.93129346  1  0  0.416985  0  0.893683  0  0  0.384821  0  0.960472  0  0  0.394974  0  0.945624  0  0  0.297098  0.37766  0  0.970937  0
H  H21  1  0.38441961  0.06610637  0.06855947  1  0  0.417057  0  0.894003  0  0  0.384907  0  0.960554  0  0  0.39508  0  0.945687  0  0  0.297151  0.377728  0  0.971039  0
H  H22  1  0.74693511  0.08789561  0.01995765  1  0  0.431871  0  0.822471  0  0  0.41293  0  0.880016  0  0  0.421182  0  0.870281  0  0  0.327082  0.406991  0  0.887144  0
H  H23  1  0.25446663  0.06772527  0.97962617  1  0  0.432016  0  0.822325  0  0  0.413296  0  0.879518  0  0  0.421493  0  0.869884  0  0  0.327513  0.407402  0  0.886556  0
H  H24  1  0.27218568  0.49786145  0.38986008  1  0  0.099445  0  0.965668  0  0  0.111521  0  1.025362  0  0  0.113839  0  1.026213  0  0  0.099706  0.109856  0  1.024921  0
H  H25  1  0.72868961  0.10860328  0.60992500  1  0  0.099013  0  0.965841  0  0  0.110403  0  1.026359  0  0  0.112692  0  1.027252  0  0  0.09948  0.108752  0  1.025919  0
H  H26  1  0.05153539  0.68874284  0.47925700  1  0  0.079203  0  0.977346  0  0  0.091058  0  1.040146  0  0  0.093556  0  1.038348  0  0  0.095972  0.089314  0  1.041314  0
H  H27  1  0.94989388  0.21056169  0.52085552  1  0  0.07759  0  0.978793  0  0  0.08929  0  1.041809  0  0  0.091765  0  1.040055  0  0  0.095499  0.087542  0  1.042996  0
H  H28  1  0.71538694  0.77187945  0.41340174  1  0  0.091564  0  0.968363  0  0  0.103315  0  1.028203  0  0  0.10539  0  1.028911  0  0  0.097196  0.101819  0  1.027857  0
H  H29  1  0.28632426  0.35908835  0.58705157  1  0  0.091703  0  0.968557  0  0  0.103614  0  1.02819  0  0  0.105702  0  1.028885  0  0  0.097467  0.102092  0  1.027874  0
H  H30  1  0.60464293  0.64628916  0.25792977  1  0  0.095829  0  0.959206  0  0  0.103311  0  1.02585  0  0  0.106452  0  1.023658  0  0  0.107924  0.101082  0  1.027333  0
H  H31  1  0.39618947  0.38827001  0.74255167  1  0  0.095575  0  0.95899  0  0  0.10296  0  1.025787  0  0  0.106133  0  1.023626  0  0  0.108083  0.100692  0  1.027274  0
H  H32  1  0.06512855  0.82405219  0.04632099  1  0  0.435136  0  0.839474  0  0  0.40559  0  0.906679  0  0  0.416088  0  0.890934  0  0  0.316778  0.398015  0  0.918062  0
H  H33  1  0.93567814  0.77951040  0.95439855  1  0  0.43645  0  0.837463  0  0  0.407085  0  0.904106  0  0  0.417539  0  0.888432  0  0  0.31794  0.399526  0  0.91547  0
C  C34  1  0.57510629  0.74549110  0.81727672  1  0  0.67251  0  3.880907  0  0  0.619703  0  4.175461  0  0  0.654686  0  4.166805  0  0  0.213257  0.595948  0  4.180702  0
C  C35  1  0.42428074  0.92789717  0.18262899  1  0  0.674203  0  3.876686  0  0  0.621188  0  4.171797  0  0  0.656144  0  4.163156  0  0  0.213974  0.597438  0  4.177038  0
C  C36  1  0.54732790  0.75538737  0.72631250  1  0  -0.232288  0  3.737776  0  0  -0.209036  0  3.975521  0  0  -0.223665  0  3.996808  0  0  -0.04227  -0.199546  0  3.961211  0
C  C37  1  0.45220036  0.02871906  0.27359311  1  0  -0.233231  0  3.738469  0  0  -0.210043  0  3.976706  0  0  -0.224626  0  3.997918  0  0  -0.042553  -0.200581  0  3.962444  0
C  C38  1  0.69542919  0.69551451  0.67240081  1  0  0.328257  0  3.827422  0  0  0.314227  0  4.075642  0  0  0.329263  0  4.093751  0  0  0.110021  0.30424  0  4.063136  0
C  C39  1  0.30416399  0.02290866  0.32756537  1  0  0.328469  0  3.826764  0  0  0.314115  0  4.075456  0  0  0.329119  0  4.093583  0  0  0.109944  0.304154  0  4.062923  0
C  C40  1  0.65249652  0.70536387  0.58568019  1  0  -0.221112  0  3.746622  0  0  -0.23243  0  3.994722  0  0  -0.241942  0  4.015308  0  0  -0.114296  -0.226315  0  3.980822  0
C  C41  1  0.34743433  0.11933978  0.41427959  1  0  -0.220546  0  3.746099  0  0  -0.231356  0  3.993969  0  0  -0.24087  0  4.01464  0  0  -0.114211  -0.225248  0  3.980045  0
C  C42  1  0.47705154  0.77852254  0.55467535  1  0  -0.040099  0  3.828549  0  0  -0.056817  0  4.081641  0  0  -0.052092  0  4.100548  0  0  -0.094273  -0.059516  0  4.068582  0
C  C43  1  0.52306040  0.22337952  0.44522551  1  0  -0.039569  0  3.826288  0  0  -0.055848  0  4.079113  0  0  -0.051202  0  4.097952  0  0  -0.093888  -0.058492  0  4.066098  0
C  C44  1  0.33505591  0.84349821  0.60832253  1  0  -0.14547  0  3.834043  0  0  -0.15985  0  4.092779  0  0  -0.16843  0  4.11661  0  0  -0.124884  -0.154362  0  4.076578  0
C  C45  1  0.66493058  0.23471002  0.39151189  1  0  -0.145165  0  3.833364  0  0  -0.159518  0  4.092026  0  0  -0.168056  0  4.115893  0  0  -0.124308  -0.154051  0  4.075774  0
C  C46  1  0.37108661  0.82939105  0.69271903  1  0  -0.044143  0  3.780197  0  0  -0.071119  0  4.036486  0  0  -0.064983  0  4.053658  0  0  -0.09067  -0.074725  0  4.024494  0
C  C47  1  0.62859231  0.13628504  0.30710434  1  0  -0.045598  0  3.781624  0  0  -0.07261  0  4.038186  0  0  -0.066462  0  4.055338  0  0  -0.091476  -0.076214  0  4.026172  0
C  C48  1  0.80339548  0.45142471  0.14174661  1  0  0.709984  0  3.886818  0  0  0.662173  0  4.170787  0  0  0.698266  0  4.159594  0  0  0.227967  0.63757  0  4.177761  0
C  C49  1  0.19624679  0.30970259  0.85844619  1  0  0.709424  0  3.888143  0  0  0.661712  0  4.17188  0  0  0.697787  0  4.160776  0  0  0.228189  0.637122  0  4.178794  0
C  C50  1  0.87669359  0.51093221  0.23505718  1  0  -0.197929  0  3.698417  0  0  -0.175801  0  3.931322  0  0  -0.188191  0  3.951412  0  0  -0.02558  -0.167854  0  3.917978  0
C  C51  1  0.12352872  0.27601774  0.76507820  1  0  -0.199596  0  3.701187  0  0  -0.177077  0  3.933562  0  0  -0.189478  0  3.953727  0  0  -0.026246  -0.169126  0  3.920179  0
C  C52  1  0.06968502  0.46919283  0.27179012  1  0  0.315986  0  3.785263  0  0  0.304811  0  4.033468  0  0  0.317867  0  4.051449  0  0  0.110831  0.296068  0  4.021135  0
C  C53  1  0.93051157  0.19770836  0.72815161  1  0  0.317315  0  3.787444  0  0  0.305843  0  4.035806  0  0  0.318849  0  4.053884  0  0  0.111576  0.297127  0  4.023421  0
C  C54  1  0.12658383  0.53329211  0.36072622  1  0  -0.193811  0  3.722708  0  0  -0.20707  0  3.967025  0  0  -0.214843  0  3.987545  0  0  -0.104209  -0.202071  0  3.953292  0
C  C55  1  0.87419566  0.17309405  0.63921975  1  0  -0.193157  0  3.722947  0  0  -0.205798  0  3.967789  0  0  -0.21355  0  3.988315  0  0  -0.104178  -0.200825  0  3.954056  0
C  C56  1  0.00112765  0.64035098  0.41092516  1  0  -0.053038  0  3.822252  0  0  -0.067649  0  4.071126  0  0  -0.064081  0  4.088639  0  0  -0.093491  -0.069718  0  4.05914  0
C  C57  1  0.00005345  0.23019011  0.58920597  1  0  -0.051984  0  3.82263  0  0  -0.066251  0  4.071435  0  0  -0.062669  0  4.088912  0  0  -0.093357  -0.068326  0  4.059462  0
C  C58  1  0.81290769  0.68554339  0.37457627  1  0  -0.134384  0  3.822782  0  0  -0.147888  0  4.079269  0  0  -0.153863  0  4.100749  0  0  -0.112687  -0.144112  0  4.064792  0
C  C59  1  0.18834288  0.31153112  0.62574262  1  0  -0.135013  0  3.821715  0  0  -0.148785  0  4.07857  0  0  -0.154764  0  4.100067  0  0  -0.113089  -0.14499  0  4.064052  0
C  C60  1  0.75183663  0.61702516  0.28763110  1  0  -0.034968  0  3.750726  0  0  -0.061426  0  4.003181  0  0  -0.057062  0  4.021578  0  0  -0.078359  -0.063933  0  3.990551  0
C  C61  1  0.24894885  0.32960789  0.71270431  1  0  -0.034117  0  3.749528  0  0  -0.060501  0  4.002043  0  0  -0.056206  0  4.02039  0  0  -0.078406  -0.062968  0  3.989452  0
N  N62  1  0.87642830  0.64043968  0.70334565  1  0  -0.653231  0  3.166935  0  0  -0.619046  0  3.394846  0  0  -0.641027  0  3.397937  0  0  -0.592127  -0.603578  0  3.392134  0
N  N63  1  0.12297232  0.93714631  0.29668511  1  0  -0.65405  0  3.166945  0  0  -0.620195  0  3.394598  0  0  -0.64225  0  3.397734  0  0  -0.592851  -0.604667  0  3.391859  0
N  N64  1  0.20453884  0.37222895  0.22334123  1  0  -0.674478  0  3.11291  0  0  -0.639075  0  3.33937  0  0  -0.658158  0  3.340413  0  0  -0.598144  -0.62544  0  3.338198  0
N  N65  1  0.79530915  0.14909816  0.77641883  1  0  -0.676075  0  3.113174  0  0  -0.640673  0  3.340046  0  0  -0.659777  0  3.341009  0  0  -0.598167  -0.627025  0  3.33892  0
O  O66  1  0.61787857  0.44593992  0.11486590  1  0  -0.736435  0  2.000699  0  0  -0.675393  0  2.250943  0  0  -0.701748  0  2.238686  0  0  -0.396465  -0.656843  0  2.258815  0
O  O67  1  0.38173863  0.33053411  0.88555742  1  0  -0.736611  0  1.998956  0  0  -0.675726  0  2.249415  0  0  -0.702019  0  2.237089  0  0  -0.396773  -0.657217  0  2.257339  0
O  O68  1  0.93087220  0.40949034  0.08961069  1  0  -0.773536  0  2.022161  0  0  -0.702193  0  2.265296  0  0  -0.729804  0  2.254282  0  0  -0.421156  -0.68265  0  2.272281  0
O  O69  1  0.06830938  0.32031292  0.91041679  1  0  -0.772862  0  2.024087  0  0  -0.70164  0  2.267434  0  0  -0.72927  0  2.256495  0  0  -0.42159  -0.682087  0  2.274373  0
O  O70  1  0.71984812  0.65413734  0.84571025  1  0  -0.719296  0  1.973237  0  0  -0.650814  0  2.208018  0  0  -0.675719  0  2.195644  0  0  -0.376724  -0.633318  0  2.21615  0
O  O71  1  0.27935567  0.80819251  0.15420403  1  0  -0.719977  0  1.970771  0  0  -0.651033  0  2.205113  0  0  -0.675989  0  2.192861  0  0  -0.37629  -0.633518  0  2.213173  0
O  O72  1  0.45365858  0.83146553  0.86541300  1  0  -0.654259  0  1.947524  0  0  -0.591813  0  2.158262  0  0  -0.615524  0  2.145106  0  0  -0.326802  -0.575301  0  2.166933  0
O  O73  1  0.54571441  0.96581562  0.13448156  1  0  -0.653333  0  1.946209  0  0  -0.591003  0  2.15685  0  0  -0.614714  0  2.143797  0  0  -0.326318  -0.574488  0  2.165482  0
O  O74  1  0.49930339  0.68658375  0.99992458  1  0  -0.981991  0  1.935712  0  0  -0.917761  0  2.140124  0  0  -0.939944  0  2.105802  0  0  -0.683726  -0.901839  0  2.164065  0
O  O75  1  0.72893521  0.08609538  0.95930845  1  0  -0.866401  0  1.805575  0  0  -0.815333  0  1.986932  0  0  -0.833019  0  1.959231  0  0  -0.609997  -0.802741  0  2.006423  0
O  O76  1  0.27080125  0.12591703  0.04032612  1  0  -0.86703  0  1.804577  0  0  -0.815873  0  1.986237  0  0  -0.833534  0  1.958543  0  0  -0.610908  -0.803307  0  2.005699  0
O  O77  1  0.99937249  0.72436604  0.00027213  1  0  -0.890482  0  1.83627  0  0  -0.834865  0  2.018991  0  0  -0.853184  0  1.986116  0  0  -0.601002  -0.821812  0  2.042342  0
