# generated using pymatgen
data_Zn2H13C24N2O8F
_symmetry_space_group_name_H-M   'P 1'
_cell_length_a   9.74553789
_cell_length_b   11.08449979
_cell_length_c   14.14008686
_cell_angle_alpha   91.07365078
_cell_angle_beta   80.61792697
_cell_angle_gamma   91.15005633
_symmetry_Int_Tables_number   1
_chemical_formula_structural   Zn2H13C24N2O8F
_chemical_formula_sum   'Zn2 H13 C24 N2 O8 F1'
_cell_volume   1506.55309738
_cell_formula_units_Z   1
loop_
 _symmetry_equiv_pos_site_id
 _symmetry_equiv_pos_as_xyz
  1  'x, y, z'
loop_
 _atom_site_type_symbol
 _atom_site_label
 _atom_site_symmetry_multiplicity
 _atom_site_fract_x
 _atom_site_fract_y
 _atom_site_fract_z
 _atom_site_occupancy
 _atom_site_pbe_bader_charge
 _atom_site_pbe_bader_spin_density
 _atom_site_pbe_cm5_charge
 _atom_site_pbe_ddec_charge
 _atom_site_pbe_ddec_spin_density
 _atom_site_pbe_ddec_sum_bond_order
 _atom_site_pbe_magmom
Zn  Zn0  1  0.36436745  0.50170542  0.50249613  1  1.279616  0  0.665101  0.807574  0  2.443059  0
Zn  Zn1  1  0.65073482  0.50672577  0.48802379  1  1.282547  0  0.66467  0.812656  0  2.435717  0
H  H2  1  0.34360234  0.50714246  0.01823227  1  0.107692  0  0.121014  0.123127  0  0.955279  0
H  H3  1  0.17026282  0.40904002  0.37068657  1  0.144068  0  0.139875  0.124836  0  0.966127  0
H  H4  1  0.09650163  0.70576584  0.66175196  1  0.112963  0  0.11524  0.075743  0  0.970117  0
H  H5  1  0.81496038  0.57015983  0.71589288  1  0.142221  0  0.119846  0.162263  0  0.961442  0
H  H6  1  0.83554347  0.71094231  0.65443835  1  0.109326  0  0.118938  0.154741  0  0.951952  0
H  H7  1  0.66414385  0.49516068  0.97162768  1  0.104597  0  0.119751  0.121469  0  0.957701  0
H  H8  1  0.72755345  0.89188440  0.44868436  1  0.108999  0  0.100694  0.106901  0  1.002705  0
H  H9  1  0.73136358  0.11604512  0.44528128  1  0.09128  0  0.099865  0.104248  0  1.004325  0
H  H10  1  0.20042302  0.12286376  0.61358620  1  0.062046  0  0.097875  0.109095  0  0.977814  0
H  H11  1  0.17454732  0.11482426  0.49164520  1  0.038121  0  0.093006  0.100207  0  0.989947  0
H  H12  1  0.19788069  0.89687988  0.61999033  1  0.043373  0  0.091557  0.095025  0  1.001848  0
H  H13  1  0.16976047  0.88744645  0.49813049  1  0.046895  0  0.093374  0.10237  0  0.987965  0
H  H14  1  0.91365527  0.41669132  0.36152177  1  0.152108  0  0.142117  0.124413  0  0.955905  0
C  C15  1  0.50558477  0.73978938  0.49650172  1  1.588487  0  0.21554  0.600136  0  4.172764  0
C  C16  1  0.46016609  0.50348434  0.78666922  1  0.088358  0  -0.037912  -0.177963  0  3.940563  0
C  C17  1  0.38539093  0.94138806  0.51492995  1  0.058376  0  -0.006514  0.058622  0  3.883814  0
C  C18  1  0.50612787  0.87419134  0.49309003  1  -0.079843  0  -0.014598  -0.071039  0  3.971376  0
C  C19  1  0.63097220  0.94126926  0.46730468  1  -0.030291  0  -0.089362  -0.108753  0  3.996213  0
C  C20  1  0.63300649  0.06707450  0.46509263  1  -0.050662  0  -0.08805  -0.101815  0  3.99272  0
C  C21  1  0.51025167  0.13434201  0.48816765  1  0.018825  0  -0.014223  -0.072442  0  3.969878  0
C  C22  1  0.38743781  0.06735340  0.51230819  1  -0.071359  0  -0.005015  0.062346  0  3.884543  0
C  C23  1  0.23178500  0.07636133  0.54439645  1  -0.055172  0  -0.152959  -0.196011  0  3.887526  0
C  C24  1  0.22940359  0.93383772  0.54794482  1  -0.01854  0  -0.154475  -0.199454  0  3.898723  0
C  C25  1  0.91699563  0.55286106  0.56571457  1  0.544255  0  0.151951  0.222011  0  3.87084  0
C  C26  1  0.47333983  0.50306714  0.68338790  1  1.640772  0  0.219086  0.661119  0  4.247372  0
C  C27  1  0.95500993  0.45502091  0.42287664  1  0.503333  0  0.080939  0.063339  0  3.840055  0
C  C28  1  0.09686911  0.44963144  0.42833693  1  0.477934  0  0.074464  0.049445  0  3.836717  0
C  C29  1  0.05779409  0.54617838  0.57153837  1  0.567966  0  0.140706  0.105728  0  3.833989  0
C  C30  1  0.04072095  0.61835338  0.66590343  1  0.561721  0  0.048963  0.171138  0  3.828304  0
C  C31  1  0.88004329  0.62153122  0.65927773  1  -0.055984  0  -0.14014  -0.314087  0  3.80928  0
C  C32  1  0.51264348  0.26885371  0.48877559  1  1.525604  0  0.21452  0.598532  0  4.172654  0
C  C33  1  0.54088586  0.50290589  0.30640032  1  1.67339  0  0.216524  0.662761  0  4.243495  0
C  C34  1  0.55178192  0.50066286  0.20324647  1  0.11675  0  -0.041668  -0.182764  0  3.944287  0
C  C35  1  0.56169511  0.49900626  0.01666547  1  0.00985  0  -0.059055  -0.044137  0  4.05126  0
C  C36  1  0.44634511  0.50337768  0.97358307  1  0.167799  0  -0.059416  -0.043637  0  4.048146  0
C  C37  1  0.45362747  0.50349097  0.87363655  1  -0.367872  0  -0.035403  -0.01541  0  4.162014  0
C  C38  1  0.55572149  0.49964565  0.11648246  1  -0.402049  0  -0.03541  -0.012124  0  4.16313  0
N  N39  1  0.86206024  0.50894275  0.49171023  1  -1.21732  0  -0.280339  -0.170907  0  3.435593  0
N  N40  1  0.15131086  0.49680759  0.50365363  1  -1.188617  0  -0.274656  -0.14342  0  3.448851  0
O  O41  1  0.38729919  0.68613712  0.50392063  1  -1.158748  0  -0.317255  -0.543422  0  2.303863  0
O  O42  1  0.62262541  0.68852013  0.49190944  1  -1.161783  0  -0.321094  -0.551518  0  2.324935  0
O  O43  1  0.36129819  0.50334693  0.64819100  1  -1.129731  0  -0.309146  -0.529945  0  2.285467  0
O  O44  1  0.59720543  0.50247209  0.63703317  1  -1.143846  0  -0.310106  -0.546681  0  2.277749  0
O  O45  1  0.39480094  0.31969903  0.49724273  1  -1.158496  0  -0.314939  -0.541753  0  2.317924  0
O  O46  1  0.63053618  0.32291413  0.48190583  1  -1.16153  0  -0.32124  -0.550384  0  2.318133  0
O  O47  1  0.41748293  0.50183611  0.35353215  1  -1.159932  0  -0.314858  -0.551652  0  2.270509  0
O  O48  1  0.65400933  0.50618795  0.34067710  1  -1.140831  0  -0.314817  -0.5399  0  2.243361  0
F  F49  1  0.06889504  0.55775372  0.74535578  1  -0.616666  0  -0.132966  -0.170629  0  1.275638  0
