# generated using pymatgen
data_CdH16C24(IN)2
_symmetry_space_group_name_H-M   'P 1'
_cell_length_a   7.18479739
_cell_length_b   7.18613193
_cell_length_c   22.80205460
_cell_angle_alpha   90.00323173
_cell_angle_beta   90.00489359
_cell_angle_gamma   95.49927596
_symmetry_Int_Tables_number   1
_chemical_formula_structural   CdH16C24(IN)2
_chemical_formula_sum   'Cd2 H32 C48 I4 N4'
_cell_volume   1171.87205234
_cell_formula_units_Z   2
loop_
 _symmetry_equiv_pos_site_id
 _symmetry_equiv_pos_as_xyz
  1  'x, y, z'
loop_
 _atom_site_type_symbol
 _atom_site_label
 _atom_site_symmetry_multiplicity
 _atom_site_fract_x
 _atom_site_fract_y
 _atom_site_fract_z
 _atom_site_occupancy
 _atom_site_hle17_bader_spin_density
 _atom_site_hle17_ddec_charge
 _atom_site_hle17_ddec_spin_density
 _atom_site_hle17_ddec_sum_bond_order
 _atom_site_hle17_magmom
 _atom_site_hse06_10hf_bader_spin_density
 _atom_site_hse06_10hf_ddec_charge
 _atom_site_hse06_10hf_ddec_spin_density
 _atom_site_hse06_10hf_ddec_sum_bond_order
 _atom_site_hse06_10hf_magmom
 _atom_site_hse06_bader_spin_density
 _atom_site_hse06_ddec_charge
 _atom_site_hse06_ddec_spin_density
 _atom_site_hse06_ddec_sum_bond_order
 _atom_site_hse06_magmom
 _atom_site_pbe_bader_spin_density
 _atom_site_pbe_cm5_charge
 _atom_site_pbe_ddec_charge
 _atom_site_pbe_ddec_spin_density
 _atom_site_pbe_ddec_sum_bond_order
 _atom_site_pbe_magmom
Cd  Cd0  1  0.02485052  0.97509962  0.74999950  1  0  0.755389  0  2.063483  0  0  0.586164  0  2.528211  0  0  0.632349  0  2.492863  0  0  0.531782  0.554399  0  2.551711  0
Cd  Cd1  1  0.97514153  0.02489327  0.25000325  1  0  0.755323  0  2.063546  0  0  0.586063  0  2.528315  0  0  0.632249  0  2.492967  0  0  0.531753  0.554298  0  2.551817  0
H  H2  1  0.67887913  0.89180500  0.66361816  1  0  0.066426  0  0.983757  0  0  0.070076  0  1.059232  0  0  0.072233  0  1.057724  0  0  0.099086  0.068481  0  1.06033  0
H  H3  1  0.32104190  0.10821774  0.16362339  1  0  0.066275  0  0.983838  0  0  0.070059  0  1.059259  0  0  0.072155  0  1.057792  0  0  0.099054  0.068461  0  1.060361  0
H  H4  1  0.89178441  0.67903010  0.33634256  1  0  0.066343  0  0.983779  0  0  0.070092  0  1.05919  0  0  0.072212  0  1.057703  0  0  0.09907  0.068494  0  1.060291  0
H  H5  1  0.10820705  0.32100344  0.83635866  1  0  0.066454  0  0.983702  0  0  0.070183  0  1.059133  0  0  0.072312  0  1.057639  0  0  0.099118  0.068584  0  1.060235  0
H  H6  1  0.32109554  0.10820053  0.33639028  1  0  0.066379  0  0.983887  0  0  0.070051  0  1.059313  0  0  0.07221  0  1.0578  0  0  0.099065  0.068454  0  1.060414  0
H  H7  1  0.67893260  0.89179487  0.83637278  1  0  0.066419  0  0.983838  0  0  0.070139  0  1.059241  0  0  0.072297  0  1.057729  0  0  0.099129  0.068542  0  1.060342  0
H  H8  1  0.10825429  0.32093374  0.66364221  1  0  0.066401  0  0.983805  0  0  0.070162  0  1.059231  0  0  0.07225  0  1.05777  0  0  0.099156  0.068589  0  1.060313  0
H  H9  1  0.89178242  0.67898259  0.16364584  1  0  0.066468  0  0.983772  0  0  0.0702  0  1.059195  0  0  0.072336  0  1.057698  0  0  0.099147  0.068602  0  1.060297  0
H  H10  1  0.50227397  0.05040140  0.58704479  1  0  0.108694  0  0.963024  0  0  0.118102  0  1.024717  0  0  0.1204  0  1.025776  0  0  0.103692  0.116463  0  1.024119  0
H  H11  1  0.49764617  0.94965874  0.08704345  1  0  0.108566  0  0.962839  0  0  0.117926  0  1.024603  0  0  0.120221  0  1.025668  0  0  0.10356  0.116276  0  1.024014  0
H  H12  1  0.05030166  0.50237668  0.41291897  1  0  0.10838  0  0.962996  0  0  0.117744  0  1.024789  0  0  0.120041  0  1.025847  0  0  0.103471  0.11609  0  1.024209  0
H  H13  1  0.94968268  0.49762148  0.91293774  1  0  0.108539  0  0.963005  0  0  0.117925  0  1.024751  0  0  0.120221  0  1.025817  0  0  0.103641  0.116285  0  1.024147  0
H  H14  1  0.49769053  0.94962611  0.41296979  1  0  0.108588  0  0.96302  0  0  0.118002  0  1.024725  0  0  0.1203  0  1.025787  0  0  0.103635  0.116369  0  1.024125  0
H  H15  1  0.50233379  0.05034496  0.91294964  1  0  0.108496  0  0.962906  0  0  0.117877  0  1.024667  0  0  0.120172  0  1.025729  0  0  0.103583  0.11624  0  1.024066  0
H  H16  1  0.94974394  0.49758663  0.58706185  1  0  0.108337  0  0.963067  0  0  0.117726  0  1.024815  0  0  0.120022  0  1.025885  0  0  0.103534  0.116087  0  1.024205  0
H  H17  1  0.05030314  0.50236765  0.08706369  1  0  0.108486  0  0.962994  0  0  0.117863  0  1.02475  0  0  0.120158  0  1.025816  0  0  0.103605  0.116225  0  1.024146  0
H  H18  1  0.82956365  0.17044734  0.48470494  1  0  0.091482  0  0.956364  0  0  0.103441  0  1.012467  0  0  0.106546  0  1.011445  0  0  0.097938  0.101255  0  1.013237  0
H  H19  1  0.17046189  0.82958298  0.98470025  1  0  0.091402  0  0.956374  0  0  0.103436  0  1.012414  0  0  0.106547  0  1.011384  0  0  0.097881  0.101247  0  1.013191  0
H  H20  1  0.17046027  0.82956850  0.51529430  1  0  0.091336  0  0.956504  0  0  0.103394  0  1.012506  0  0  0.106498  0  1.011484  0  0  0.097896  0.101208  0  1.013277  0
H  H21  1  0.82955071  0.17045634  0.01530425  1  0  0.09165  0  0.956478  0  0  0.103448  0  1.012727  0  0  0.106556  0  1.011701  0  0  0.097787  0.101259  0  1.013505  0
H  H22  1  0.86535381  0.13465289  0.37766705  1  0  0.080423  0  0.980682  0  0  0.086598  0  1.050589  0  0  0.089334  0  1.04941  0  0  0.090707  0.084632  0  1.051474  0
H  H23  1  0.13465457  0.86533962  0.87766401  1  0  0.080495  0  0.98072  0  0  0.086687  0  1.050581  0  0  0.089421  0  1.049408  0  0  0.090719  0.084724  0  1.051458  0
H  H24  1  0.13465699  0.86535973  0.62233087  1  0  0.080373  0  0.980681  0  0  0.086579  0  1.050546  0  0  0.089317  0  1.049367  0  0  0.090673  0.084613  0  1.051435  0
H  H25  1  0.86533179  0.13466077  0.12234093  1  0  0.080507  0  0.980714  0  0  0.086736  0  1.050525  0  0  0.089471  0  1.04935  0  0  0.090726  0.084774  0  1.051403  0
H  H26  1  0.68333806  0.31671848  0.30843220  1  0  0.078206  0  0.978394  0  0  0.084301  0  1.050545  0  0  0.087356  0  1.048877  0  0  0.087782  0.081943  0  1.051966  0
H  H27  1  0.31666171  0.68327092  0.80843195  1  0  0.078246  0  0.978426  0  0  0.084321  0  1.050589  0  0  0.087379  0  1.048917  0  0  0.087786  0.081948  0  1.052023  0
H  H28  1  0.31668466  0.68329039  0.69156441  1  0  0.078158  0  0.978573  0  0  0.084282  0  1.050692  0  0  0.087334  0  1.049029  0  0  0.087823  0.081958  0  1.052084  0
H  H29  1  0.68328313  0.31670726  0.19157167  1  0  0.078172  0  0.978501  0  0  0.084267  0  1.05061  0  0  0.087335  0  1.04893  0  0  0.087772  0.081893  0  1.052046  0
H  H30  1  0.46702262  0.53305037  0.34575382  1  0  0.09334  0  0.987979  0  0  0.098202  0  1.05968  0  0  0.101732  0  1.05801  0  0  0.086879  0.09557  0  1.061198  0
H  H31  1  0.53298944  0.46694481  0.84575404  1  0  0.093371  0  0.987819  0  0  0.098198  0  1.059577  0  0  0.101731  0  1.0579  0  0  0.086848  0.095567  0  1.061095  0
H  H32  1  0.53301232  0.46696461  0.65424191  1  0  0.093384  0  0.987807  0  0  0.098262  0  1.059519  0  0  0.101796  0  1.057839  0  0  0.086872  0.095631  0  1.061034  0
H  H33  1  0.46697128  0.53303637  0.15424783  1  0  0.093452  0  0.987661  0  0  0.098218  0  1.059487  0  0  0.101746  0  1.057819  0  0  0.086879  0.095589  0  1.061001  0
C  C34  1  0.73423364  0.02576375  0.64505079  1  0  0.134277  0  3.723966  0  0  0.105751  0  3.96937  0  0  0.11397  0  3.986832  0  0  0.037219  0.100407  0  3.957565  0
C  C35  1  0.26571138  0.97425312  0.14505288  1  0  0.13429  0  3.723621  0  0  0.105539  0  3.969064  0  0  0.113818  0  3.986555  0  0  0.037172  0.100199  0  3.957261  0
C  C36  1  0.02574948  0.73432701  0.35493083  1  0  0.13388  0  3.723763  0  0  0.105219  0  3.969166  0  0  0.113473  0  3.986652  0  0  0.037  0.099882  0  3.957352  0
C  C37  1  0.97425110  0.26568582  0.85494029  1  0  0.133821  0  3.723702  0  0  0.105199  0  3.969088  0  0  0.113447  0  3.986567  0  0  0.037063  0.09986  0  3.957283  0
C  C38  1  0.26575002  0.97424533  0.35495415  1  0  0.13417  0  3.724179  0  0  0.105631  0  3.969618  0  0  0.11385  0  3.987081  0  0  0.037174  0.100287  0  3.957817  0
C  C39  1  0.73427384  0.02574876  0.85494679  1  0  0.134145  0  3.723987  0  0  0.105502  0  3.969425  0  0  0.11372  0  3.986887  0  0  0.037145  0.100161  0  3.957626  0
C  C40  1  0.97427437  0.26564787  0.64506139  1  0  0.133928  0  3.723718  0  0  0.105265  0  3.969065  0  0  0.113552  0  3.98656  0  0  0.037028  0.099901  0  3.957244  0
C  C41  1  0.02574161  0.73430277  0.14506202  1  0  0.133821  0  3.724059  0  0  0.10514  0  3.969491  0  0  0.113383  0  3.986974  0  0  0.036985  0.0998  0  3.957687  0
C  C42  1  0.63714841  0.11454376  0.60222197  1  0  -0.156929  0  3.695394  0  0  -0.174552  0  3.937793  0  0  -0.182206  0  3.958013  0  0  -0.08396  -0.169706  0  3.924298  0
C  C43  1  0.36279913  0.88548325  0.10222363  1  0  -0.156653  0  3.694795  0  0  -0.174196  0  3.937099  0  0  -0.181847  0  3.957309  0  0  -0.083804  -0.169342  0  3.923609  0
C  C44  1  0.11451030  0.63721961  0.39775631  1  0  -0.15628  0  3.694967  0  0  -0.173808  0  3.937261  0  0  -0.181455  0  3.957478  0  0  -0.083729  -0.168951  0  3.923771  0
C  C45  1  0.88548615  0.36278181  0.89776762  1  0  -0.156531  0  3.694943  0  0  -0.174084  0  3.937321  0  0  -0.181731  0  3.957537  0  0  -0.083987  -0.169236  0  3.923819  0
C  C46  1  0.36282950  0.88546435  0.39778516  1  0  -0.156736  0  3.69546  0  0  -0.174371  0  3.937868  0  0  -0.182025  0  3.958091  0  0  -0.08387  -0.169531  0  3.924374  0
C  C47  1  0.63719095  0.11452250  0.89777560  1  0  -0.156634  0  3.694901  0  0  -0.174141  0  3.937257  0  0  -0.181788  0  3.957478  0  0  -0.083865  -0.169297  0  3.923762  0
C  C48  1  0.88551817  0.36275774  0.60223153  1  0  -0.156373  0  3.69478  0  0  -0.173922  0  3.937113  0  0  -0.181575  0  3.95732  0  0  -0.08385  -0.169072  0  3.92361  0
C  C49  1  0.11450470  0.63720411  0.10223513  1  0  -0.1565  0  3.695034  0  0  -0.174079  0  3.937365  0  0  -0.18173  0  3.957586  0  0  -0.083885  -0.169233  0  3.923868  0
C  C50  1  0.71096664  0.28903060  0.58101032  1  0  0.117568  0  3.771648  0  0  0.129329  0  4.005532  0  0  0.134465  0  4.026235  0  0  0.016042  0.12613  0  3.99139  0
C  C51  1  0.28901720  0.71097066  0.08101104  1  0  0.117468  0  3.77179  0  0  0.129328  0  4.005489  0  0  0.134455  0  4.026198  0  0  0.016032  0.126131  0  3.991343  0
C  C52  1  0.28903440  0.71096583  0.41899067  1  0  0.117491  0  3.771794  0  0  0.129257  0  4.005688  0  0  0.134392  0  4.026393  0  0  0.01605  0.126059  0  3.991544  0
C  C53  1  0.71096754  0.28902844  0.91899171  1  0  0.117445  0  3.771518  0  0  0.129137  0  4.005468  0  0  0.134259  0  4.026178  0  0  0.016082  0.125941  0  3.991322  0
C  C54  1  0.60351369  0.39650210  0.53929527  1  0  -0.038781  0  3.707317  0  0  -0.03309  0  3.944668  0  0  -0.034233  0  3.96617  0  0  -0.004052  -0.032372  0  3.930065  0
C  C55  1  0.39648650  0.60350482  0.03929764  1  0  -0.038631  0  3.707028  0  0  -0.032999  0  3.944339  0  0  -0.034117  0  3.965797  0  0  -0.004076  -0.032284  0  3.929741  0
C  C56  1  0.39650573  0.60349573  0.46070353  1  0  -0.038711  0  3.707235  0  0  -0.033056  0  3.94457  0  0  -0.0342  0  3.966076  0  0  -0.004045  -0.03234  0  3.929967  0
C  C57  1  0.60350034  0.39649836  0.96070730  1  0  -0.03856  0  3.706943  0  0  -0.032818  0  3.944247  0  0  -0.033952  0  3.965739  0  0  -0.003963  -0.032104  0  3.929654  0
C  C58  1  0.62560826  0.37440794  0.47834115  1  0  0.025452  0  3.781455  0  0  0.032271  0  4.017584  0  0  0.031992  0  4.041492  0  0  -0.007875  0.032491  0  4.00136  0
C  C59  1  0.37440547  0.62561006  0.97834106  1  0  0.025373  0  3.781397  0  0  0.032283  0  4.017444  0  0  0.031997  0  4.041349  0  0  -0.007831  0.032503  0  4.001226  0
C  C60  1  0.37440888  0.62559289  0.52165897  1  0  0.025543  0  3.781266  0  0  0.032449  0  4.017303  0  0  0.03217  0  4.041211  0  0  -0.007749  0.032669  0  4.001077  0
C  C61  1  0.62559461  0.37441328  0.02166212  1  0  0.025364  0  3.781607  0  0  0.032208  0  4.017668  0  0  0.031926  0  4.041577  0  0  -0.007865  0.032428  0  4.001448  0
C  C62  1  0.74998281  0.25002686  0.45456479  1  0  -0.122781  0  3.756698  0  0  -0.139787  0  4.002415  0  0  -0.141859  0  4.021197  0  0  -0.09667  -0.138318  0  3.989612  0
C  C63  1  0.25004098  0.74998951  0.95456381  1  0  -0.122648  0  3.756872  0  0  -0.139788  0  4.002555  0  0  -0.141863  0  4.021339  0  0  -0.096664  -0.138318  0  3.989758  0
C  C64  1  0.25003781  0.74997794  0.54543357  1  0  -0.12276  0  3.75675  0  0  -0.139909  0  4.002494  0  0  -0.14198  0  4.021273  0  0  -0.096682  -0.138439  0  3.989689  0
C  C65  1  0.74996557  0.25003898  0.04544200  1  0  -0.12291  0  3.757184  0  0  -0.139834  0  4.002845  0  0  -0.141905  0  4.021627  0  0  -0.096624  -0.138364  0  3.990047  0
C  C66  1  0.76979712  0.23021872  0.39498931  1  0  -0.071568  0  3.794977  0  0  -0.082473  0  4.04303  0  0  -0.08319  0  4.062712  0  0  -0.095254  -0.0819  0  4.029617  0
C  C67  1  0.23022315  0.76978866  0.89498599  1  0  -0.071785  0  3.794958  0  0  -0.08265  0  4.042967  0  0  -0.083368  0  4.062647  0  0  -0.095288  -0.082076  0  4.029555  0
C  C68  1  0.23021530  0.76979518  0.60500861  1  0  -0.071407  0  3.794707  0  0  -0.082307  0  4.042763  0  0  -0.083023  0  4.062439  0  0  -0.095191  -0.081734  0  4.029357  0
C  C69  1  0.76977615  0.23022203  0.10502026  1  0  -0.071872  0  3.795037  0  0  -0.082733  0  4.042943  0  0  -0.083451  0  4.062622  0  0  -0.095274  -0.082159  0  4.029534  0
C  C70  1  0.66628638  0.33376122  0.35559104  1  0  -0.070217  0  3.783482  0  0  -0.082327  0  4.030485  0  0  -0.084845  0  4.05231  0  0  -0.096543  -0.08052  0  4.015741  0
C  C71  1  0.33372642  0.66624409  0.85558917  1  0  -0.070246  0  3.783691  0  0  -0.082354  0  4.030628  0  0  -0.084873  0  4.052456  0  0  -0.09656  -0.080532  0  4.015892  0
C  C72  1  0.33372897  0.66624539  0.64440425  1  0  -0.070178  0  3.783755  0  0  -0.082315  0  4.030792  0  0  -0.084828  0  4.052615  0  0  -0.096607  -0.080544  0  4.016035  0
C  C73  1  0.66624844  0.33375437  0.14441489  1  0  -0.070177  0  3.783821  0  0  -0.082296  0  4.030807  0  0  -0.084825  0  4.052633  0  0  -0.096569  -0.080475  0  4.016076  0
C  C74  1  0.54526604  0.45479370  0.37659160  1  0  -0.108343  0  3.730921  0  0  -0.124577  0  3.975641  0  0  -0.126696  0  3.995692  0  0  -0.09164  -0.123046  0  3.962018  0
C  C75  1  0.45475339  0.54521834  0.87659009  1  0  -0.108271  0  3.730872  0  0  -0.124471  0  3.975563  0  0  -0.12659  0  3.995617  0  0  -0.091513  -0.122929  0  3.961921  0
C  C76  1  0.45475506  0.54521388  0.62340544  1  0  -0.108458  0  3.730953  0  0  -0.124753  0  3.975735  0  0  -0.126874  0  3.995783  0  0  -0.091643  -0.123225  0  3.962129  0
C  C77  1  0.54523045  0.45478366  0.12341354  1  0  -0.108265  0  3.730542  0  0  -0.124413  0  3.975255  0  0  -0.126533  0  3.995315  0  0  -0.091502  -0.122871  0  3.961609  0
C  C78  1  0.47981435  0.52018063  0.56178233  1  0  0.025933  0  3.760236  0  0  0.034678  0  3.991725  0  0  0.034018  0  4.01593  0  0  -0.006884  0.035171  0  3.975252  0
C  C79  1  0.52018215  0.47981938  0.06178460  1  0  0.025811  0  3.760192  0  0  0.034535  0  3.991692  0  0  0.033871  0  4.015887  0  0  -0.006862  0.035029  0  3.97523  0
C  C80  1  0.52020741  0.47982266  0.43821691  1  0  0.025896  0  3.760389  0  0  0.034626  0  3.991927  0  0  0.033968  0  4.016126  0  0  -0.006862  0.035122  0  3.975453  0
C  C81  1  0.47980936  0.52019473  0.93821771  1  0  0.025853  0  3.760218  0  0  0.034531  0  3.991744  0  0  0.033869  0  4.015949  0  0  -0.006933  0.035023  0  3.975287  0
I  I82  1  0.38303313  0.14019918  0.75000316  1  0  -0.455629  0  1.023706  0  0  -0.395759  0  1.338894  0  0  -0.416383  0  1.32067  0  0  -0.216002  -0.380687  0  1.351467  0
I  I83  1  0.61695934  0.85978802  0.24999959  1  0  -0.455625  0  1.023716  0  0  -0.39577  0  1.338883  0  0  -0.416395  0  1.320665  0  0  -0.216019  -0.380698  0  1.351451  0
I  I84  1  0.14027779  0.38300235  0.25000000  1  0  -0.455662  0  1.023734  0  0  -0.395804  0  1.338896  0  0  -0.416421  0  1.320666  0  0  -0.216027  -0.380738  0  1.351475  0
I  I85  1  0.85973210  0.61698068  0.74999749  1  0  -0.455743  0  1.023675  0  0  -0.395875  0  1.338834  0  0  -0.416495  0  1.320612  0  0  -0.216075  -0.380805  0  1.351405  0
N  N86  1  0.89883915  0.10110477  0.66670162  1  0  -0.3275  0  3.296984  0  0  -0.24245  0  3.553593  0  0  -0.263023  0  3.572412  0  0  -0.342223  -0.228654  0  3.540656  0
N  N87  1  0.10112773  0.89888000  0.16670210  1  0  -0.32739  0  3.296899  0  0  -0.242251  0  3.553503  0  0  -0.262823  0  3.572323  0  0  -0.342152  -0.228455  0  3.540558  0
N  N88  1  0.10116026  0.89889037  0.33329411  1  0  -0.327351  0  3.296828  0  0  -0.242265  0  3.553387  0  0  -0.26284  0  3.572221  0  0  -0.342148  -0.228466  0  3.540441  0
N  N89  1  0.89885971  0.10111042  0.83329933  1  0  -0.327382  0  3.296954  0  0  -0.242321  0  3.553575  0  0  -0.262892  0  3.57241  0  0  -0.342219  -0.228524  0  3.54063  0
