# generated using pymatgen
data_MnH14C20S2(NO)4
_symmetry_space_group_name_H-M   'P 1'
_cell_length_a   8.89350362
_cell_length_b   16.68775193
_cell_length_c   19.23869383
_cell_angle_alpha   89.99975480
_cell_angle_beta   90.00023493
_cell_angle_gamma   103.66997003
_symmetry_Int_Tables_number   1
_chemical_formula_structural   MnH14C20S2(NO)4
_chemical_formula_sum   'Mn4 H56 C80 S8 N16 O16'
_cell_volume   2774.38349935
_cell_formula_units_Z   4
loop_
 _symmetry_equiv_pos_site_id
 _symmetry_equiv_pos_as_xyz
  1  'x, y, z'
loop_
 _atom_site_type_symbol
 _atom_site_label
 _atom_site_symmetry_multiplicity
 _atom_site_fract_x
 _atom_site_fract_y
 _atom_site_fract_z
 _atom_site_occupancy
 _atom_site_pbe_bader_charge
 _atom_site_pbe_bader_spin_density
 _atom_site_pbe_cm5_charge
 _atom_site_pbe_ddec_charge
 _atom_site_pbe_ddec_spin_density
 _atom_site_pbe_ddec_sum_bond_order
 _atom_site_pbe_magmom
Mn  Mn0  1  0.81697261  0.97965401  0.56186712  1  1.491247  4.533814  0.604872  0.879201  4.667856  2.36373  4.448
Mn  Mn1  1  0.18302940  0.52034941  0.06188489  1  1.491226  4.533741  0.604926  0.879211  4.667873  2.363856  4.448
Mn  Mn2  1  0.18301815  0.02034808  0.43811460  1  1.491306  4.533787  0.6049  0.879288  4.667924  2.363605  4.448
Mn  Mn3  1  0.81697018  0.47963863  0.93810878  1  1.491481  4.533672  0.604933  0.879292  4.667857  2.363795  4.448
H  H4  1  0.19488659  0.34058816  0.10616320  1  0.11602  0.001077  0.119907  0.09265  0.000339  1.003078  0.0
H  H5  1  0.80511223  0.15940921  0.60616323  1  0.115876  0.001077  0.11989  0.092659  0.000338  1.002978  0.0
H  H6  1  0.80511255  0.65940970  0.89383723  1  0.116059  0.001077  0.119883  0.092639  0.000338  1.003004  0.0
H  H7  1  0.19489171  0.84059485  0.39383719  1  0.116033  0.001077  0.119906  0.092637  0.000339  1.002989  0.0
H  H8  1  0.10548530  0.24195910  0.20376400  1  0.063813  0.000741  0.100676  0.107098  0.000437  1.029028  0.0
H  H9  1  0.89450555  0.25803596  0.70376591  1  0.063761  0.000741  0.100646  0.107082  0.000437  1.02904  0.0
H  H10  1  0.89450907  0.75803811  0.79623539  1  0.063815  0.00074  0.100671  0.10711  0.000437  1.029085  0.0
H  H11  1  0.10549861  0.74196318  0.29623815  1  0.063706  0.000741  0.100647  0.107056  0.000437  1.029051  0.0
H  H12  1  0.82849455  0.40571447  0.27576251  1  0.096392  0.000508  0.109789  0.119899  0.000237  1.017391  0.0
H  H13  1  0.17149670  0.09428275  0.77576471  1  0.096369  0.000509  0.109773  0.119886  0.000237  1.017384  0.0
H  H14  1  0.17149508  0.59428761  0.72423428  1  0.096308  0.000508  0.109794  0.119886  0.000237  1.017344  0.0
H  H15  1  0.82850266  0.90571020  0.22423156  1  0.096258  0.000508  0.109766  0.119831  0.000237  1.01736  0.0
H  H16  1  0.93062479  0.49775679  0.17420096  1  0.110827  0.00113  0.112651  0.07875  0.000299  1.048434  0.0
H  H17  1  0.06937692  0.00224341  0.67420436  1  0.110054  0.001129  0.112693  0.078832  0.000298  1.048349  0.0
H  H18  1  0.06937952  0.50224543  0.82579531  1  0.110078  0.00113  0.112624  0.078729  0.000299  1.048465  0.0
H  H19  1  0.93061607  0.99775318  0.32579139  1  0.11006  0.00113  0.112635  0.078731  0.000299  1.048479  0.0
H  H20  1  0.57391143  0.15566779  0.46679909  1  0.073083  0.00033  0.095612  0.141774  -0.000328  1.040588  0.0
H  H21  1  0.42608886  0.34433366  0.96679824  1  0.073198  0.000331  0.095627  0.141753  -0.000327  1.040601  0.0
H  H22  1  0.42608963  0.84433746  0.53320134  1  0.073085  0.00033  0.095632  0.141807  -0.000328  1.040534  0.0
H  H23  1  0.57392255  0.65566125  0.03320011  1  0.07303  0.00033  0.095617  0.141849  -0.000328  1.040541  0.0
H  H24  1  0.53975594  0.24520802  0.42372580  1  0.060409  0.000277  0.09555  0.143148  3.2e-05  0.991917  0.0
H  H25  1  0.46024102  0.25479173  0.92372743  1  0.060438  0.000277  0.095557  0.143139  3.2e-05  0.99193  0.0
H  H26  1  0.46023897  0.75479595  0.57627879  1  0.060446  0.000276  0.095531  0.143109  3.2e-05  0.99184  0.0
H  H27  1  0.53976674  0.74520253  0.07627508  1  0.060574  0.000276  0.09555  0.143131  3.2e-05  0.991854  0.0
H  H28  1  0.66888574  0.25531530  0.49548857  1  0.036902  0.000369  0.095387  0.139308  0.000208  0.977639  0.0
H  H29  1  0.33112189  0.24468426  0.99549207  1  0.036846  0.000369  0.095366  0.1393  0.000208  0.977642  0.0
H  H30  1  0.33111168  0.74468931  0.50451238  1  0.036585  0.000368  0.095434  0.139337  0.000208  0.977638  0.0
H  H31  1  0.66889640  0.75530825  0.00451044  1  0.036537  0.000368  0.095458  0.139328  0.000208  0.97765  0.0
H  H32  1  0.42060216  0.54203601  0.93379406  1  0.142216  0.001023  0.124586  0.103457  0.000197  1.006495  0.0
H  H33  1  0.57939561  0.95796833  0.43379379  1  0.142121  0.001024  0.124576  0.10352  0.000198  1.006396  0.0
H  H34  1  0.57939814  0.45796740  0.06620273  1  0.142117  0.001023  0.124597  0.10352  0.000197  1.006428  0.0
H  H35  1  0.42059213  0.04203190  0.56620456  1  0.1422  0.001023  0.124581  0.103499  0.000197  1.006438  0.0
H  H36  1  0.51354835  0.64100314  0.83936344  1  0.089882  0.000619  0.107326  0.116783  0.000229  1.012817  0.0
H  H37  1  0.48645250  0.85899976  0.33936440  1  0.089985  0.000619  0.107342  0.116785  0.000229  1.012828  0.0
H  H38  1  0.48645169  0.35899965  0.16063335  1  0.090038  0.000619  0.107325  0.116784  0.000229  1.012891  0.0
H  H39  1  0.51354714  0.14099934  0.66063395  1  0.090014  0.000619  0.107314  0.11676  0.000229  1.012926  0.0
H  H40  1  0.22637254  0.79417710  0.92271469  1  0.11947  0.000552  0.111854  0.122369  0.000288  0.997564  0.0
H  H41  1  0.77362665  0.70582545  0.42271313  1  0.119529  0.000552  0.111835  0.12234  0.000288  0.997559  0.0
H  H42  1  0.77362110  0.20582379  0.07728886  1  0.119535  0.000552  0.111812  0.122323  0.000288  0.997641  0.0
H  H43  1  0.22638068  0.29417864  0.57729301  1  0.119553  0.000552  0.111842  0.122344  0.000288  0.997499  0.0
H  H44  1  0.14709746  0.68840463  0.01651556  1  0.094903  0.001447  0.117526  0.082876  0.000683  1.013428  0.001
H  H45  1  0.85291336  0.81159659  0.51651408  1  0.094865  0.001448  0.117546  0.08291  0.000684  1.013399  0.001
H  H46  1  0.85291183  0.31159333  0.98348747  1  0.094858  0.001448  0.117546  0.082899  0.000684  1.013433  0.001
H  H47  1  0.14708108  0.18841168  0.48348895  1  0.096782  0.001447  0.117553  0.082955  0.000683  1.01339  0.001
H  H48  1  0.42796561  0.03026296  0.75958414  1  0.028365  0.000252  0.098985  0.145717  0.000115  0.974664  0.0
H  H49  1  0.57204348  0.46973696  0.25958797  1  0.028391  0.000252  0.098993  0.14576  0.000115  0.974571  0.0
H  H50  1  0.57203732  0.96973863  0.24041577  1  0.028427  0.000252  0.098984  0.145729  0.000115  0.974638  0.0
H  H51  1  0.42795213  0.53025781  0.74041298  1  0.028504  0.000252  0.098992  0.145764  0.000115  0.974507  0.0
H  H52  1  0.23703881  0.96640980  0.76660815  1  0.064812  0.000192  0.093316  0.133576  9.7e-05  1.010345  0.0
H  H53  1  0.76296804  0.53359283  0.26661241  1  0.064771  0.000193  0.093328  0.133663  9.7e-05  1.010367  0.0
H  H54  1  0.76296112  0.03359544  0.23338968  1  0.06485  0.000192  0.09329  0.133551  9.7e-05  1.010428  0.0
H  H55  1  0.23703132  0.46640013  0.73338645  1  0.064828  0.000192  0.093346  0.133661  9.6e-05  1.010312  0.0
H  H56  1  0.33700161  0.98081604  0.68439473  1  0.095128  0.000452  0.093258  0.134927  8.4e-05  1.040627  0.0
H  H57  1  0.66300903  0.51918389  0.18439783  1  0.095222  0.000452  0.093294  0.134989  8.4e-05  1.040578  0.0
H  H58  1  0.66300393  0.01918373  0.31560466  1  0.095143  0.000452  0.093297  0.13497  8.4e-05  1.040588  0.0
H  H59  1  0.33698636  0.48081579  0.81560260  1  0.095179  0.000452  0.09329  0.134945  8.4e-05  1.040627  0.0
C  C60  1  0.11456589  0.35272289  0.14537834  1  0.514456  0.009899  0.048602  0.094671  0.007649  3.95652  0.006
C  C61  1  0.88543321  0.14727432  0.64537961  1  0.514606  0.009888  0.04854  0.094586  0.007641  3.956437  0.006
C  C62  1  0.88543238  0.64727558  0.85461949  1  0.514435  0.0099  0.048635  0.09472  0.007649  3.956324  0.006
C  C63  1  0.11456771  0.85272786  0.35462030  1  0.514445  0.0099  0.048524  0.094613  0.007649  3.956516  0.006
C  C64  1  0.06441191  0.29843362  0.19984831  1  -0.051058  -0.000107  -0.087773  -0.180916  -0.000791  3.957857  -0.001
C  C65  1  0.93559085  0.20156587  0.69984895  1  -0.050903  -0.000111  -0.087746  -0.180905  -0.000795  3.957898  -0.001
C  C66  1  0.93558461  0.70156607  0.80014952  1  -0.051035  -0.000109  -0.087754  -0.180874  -0.000793  3.957795  -0.001
C  C67  1  0.06441746  0.79843515  0.30015200  1  -0.050964  -0.000115  -0.087726  -0.180823  -0.000799  3.957737  -0.001
C  C68  1  0.95971274  0.31678426  0.24861074  1  -0.0076  0.011092  0.007934  0.096366  0.008675  4.020025  0.007
C  C69  1  0.04028083  0.18321371  0.74861341  1  -0.007395  0.011076  0.008021  0.096413  0.008662  4.02014  0.007
C  C70  1  0.04028341  0.68321726  0.75138604  1  -0.007437  0.011094  0.007898  0.096269  0.008677  4.020164  0.007
C  C71  1  0.95972170  0.81678419  0.25138546  1  -0.007423  0.01109  0.007963  0.096327  0.008674  4.020011  0.007
C  C72  1  0.91021077  0.38989974  0.23916137  1  0.001749  -0.000561  -0.079452  -0.155967  -0.001172  3.916582  -0.001
C  C73  1  0.08978991  0.11010202  0.73916388  1  0.001422  -0.000566  -0.079399  -0.155874  -0.001177  3.916595  -0.001
C  C74  1  0.08978476  0.61010301  0.76083490  1  0.001573  -0.000564  -0.07945  -0.155931  -0.001175  3.916507  -0.001
C  C75  1  0.91021149  0.88989587  0.26083394  1  0.001557  -0.000571  -0.079423  -0.155869  -0.001182  3.916337  -0.001
C  C76  1  0.96639135  0.44059095  0.18328592  1  0.489891  0.010685  0.048472  0.097463  0.008324  3.941018  0.007
C  C77  1  0.03361657  0.05941049  0.68328955  1  0.490874  0.010673  0.048368  0.097284  0.008315  3.941169  0.007
C  C78  1  0.03360604  0.55940813  0.81670723  1  0.49062  0.010687  0.048488  0.097462  0.008326  3.941145  0.007
C  C79  1  0.96639112  0.94059175  0.31670516  1  0.490772  0.010685  0.048478  0.097409  0.008324  3.940989  0.007
C  C80  1  0.90193784  0.26383204  0.30774786  1  0.419379  0.003509  0.115209  0.10553  0.003029  4.057675  0.002
C  C81  1  0.09805112  0.23616442  0.80775407  1  0.419724  0.003503  0.115144  0.105462  0.003024  4.057882  0.002
C  C82  1  0.09805354  0.73616883  0.69224997  1  0.419583  0.003509  0.115087  0.105498  0.003029  4.057863  0.002
C  C83  1  0.90195289  0.76383164  0.19224948  1  0.419495  0.003499  0.115117  0.105508  0.00302  4.057915  0.002
C  C84  1  0.85379051  0.16345339  0.40117742  1  -0.187416  0.005053  -0.026807  -0.238988  0.003132  3.920783  0.002
C  C85  1  0.14620415  0.33654398  0.90118283  1  -0.187641  0.005045  -0.026823  -0.238983  0.003125  3.920522  0.002
C  C86  1  0.14619927  0.83655176  0.59882404  1  -0.187504  0.005055  -0.02669  -0.238751  0.003133  3.920417  0.002
C  C87  1  0.85380737  0.66344847  0.09882124  1  -0.18743  0.005057  -0.026755  -0.238803  0.003135  3.920479  0.002
C  C88  1  0.75577946  0.21775170  0.39983410  1  0.498889  0.004413  0.109207  0.297109  0.0035  3.979047  0.003
C  C89  1  0.24421355  0.28224443  0.89983834  1  0.499082  0.004414  0.109116  0.297175  0.003502  3.978884  0.003
C  C90  1  0.24421083  0.78225468  0.60016685  1  0.498948  0.004414  0.109128  0.297001  0.003502  3.978911  0.003
C  C91  1  0.75580110  0.71774744  0.10016313  1  0.498725  0.004403  0.109224  0.297196  0.003492  3.978833  0.003
C  C92  1  0.86176231  0.09568359  0.44936014  1  1.577239  0.018764  0.211711  0.592429  0.019399  4.243855  0.017
C  C93  1  0.13824864  0.40431681  0.94936476  1  1.576824  0.018757  0.211604  0.592095  0.019391  4.24384  0.017
C  C94  1  0.13821978  0.90431658  0.55063457  1  1.577272  0.018754  0.211859  0.592479  0.019391  4.243764  0.017
C  C95  1  0.86178400  0.59568321  0.05063151  1  1.577299  0.018746  0.211962  0.592623  0.019383  4.243689  0.017
C  C96  1  0.62658885  0.21819512  0.44906133  1  -0.03194  0.000416  -0.240203  -0.436647  -1.2e-05  3.944648  0.0
C  C97  1  0.37341030  0.28180393  0.94906269  1  -0.032125  0.000414  -0.240169  -0.436634  -1.3e-05  3.9446  0.0
C  C98  1  0.37340821  0.78181132  0.55094065  1  -0.031719  0.000415  -0.240281  -0.436695  -1.2e-05  3.944556  0.0
C  C99  1  0.62659783  0.71818849  0.05093825  1  -0.03154  0.000417  -0.240325  -0.436802  -1.1e-05  3.944567  0.0
C  C100  1  0.37926294  0.59841965  0.93006861  1  0.513447  0.008288  0.057943  0.105685  0.006515  3.919991  0.006
C  C101  1  0.62072046  0.90157719  0.43006655  1  0.513842  0.008294  0.058037  0.105662  0.00652  3.919977  0.006
C  C102  1  0.62073245  0.40158002  0.06993233  1  0.51352  0.00829  0.057982  0.105651  0.006516  3.919862  0.006
C  C103  1  0.37925948  0.09842050  0.56993492  1  0.513577  0.008283  0.057989  0.105738  0.00651  3.919841  0.006
C  C104  1  0.43183997  0.65480913  0.87714085  1  -0.080998  -0.000547  -0.081792  -0.17294  -0.001198  3.931111  -0.001
C  C105  1  0.56816312  0.84518750  0.37713734  1  -0.08102  -0.000549  -0.081912  -0.173002  -0.0012  3.931282  -0.001
C  C106  1  0.56815865  0.34518751  0.12285854  1  -0.081177  -0.000546  -0.081854  -0.173053  -0.001197  3.931309  -0.001
C  C107  1  0.43184093  0.15481410  0.62286049  1  -0.081135  -0.000547  -0.081833  -0.172993  -0.001198  3.931448  -0.001
C  C108  1  0.37608428  0.72664540  0.87272820  1  0.044085  0.007119  0.009362  0.090393  0.005508  4.027287  0.004
C  C109  1  0.62391313  0.77335119  0.37272974  1  0.044037  0.007124  0.009495  0.090512  0.005511  4.027377  0.004
C  C110  1  0.62391562  0.27335432  0.12727275  1  0.044121  0.007122  0.00944  0.09053  0.00551  4.027425  0.004
C  C111  1  0.37609041  0.22664917  0.62727536  1  0.043981  0.007116  0.009467  0.090486  0.005505  4.027728  0.004
C  C112  1  0.27134105  0.73893460  0.92413957  1  -0.040906  -0.000579  -0.0778  -0.153136  -0.001193  3.920647  -0.001
C  C113  1  0.72866103  0.76106674  0.42414032  1  -0.040907  -0.000581  -0.077875  -0.153216  -0.001195  3.920681  -0.001
C  C114  1  0.72865408  0.26106446  0.07586086  1  -0.040987  -0.000578  -0.077807  -0.153114  -0.001192  3.92086  -0.001
C  C115  1  0.27134266  0.23893669  0.57586635  1  -0.041152  -0.000579  -0.077839  -0.153146  -0.001193  3.920772  -0.001
C  C116  1  0.22662453  0.68007866  0.97554749  1  0.487209  0.00829  0.054404  0.105012  0.006479  3.942515  0.006
C  C117  1  0.77337478  0.81992306  0.47554863  1  0.487239  0.008298  0.054431  0.105052  0.006485  3.942401  0.006
C  C118  1  0.77338152  0.31992234  0.02445449  1  0.487233  0.008292  0.054351  0.104881  0.00648  3.942545  0.006
C  C119  1  0.22661915  0.18008398  0.52445596  1  0.485584  0.008288  0.054389  0.104918  0.006476  3.942699  0.006
C  C120  1  0.42006442  0.78823451  0.81796401  1  0.408715  0.001527  0.114494  0.105283  0.001293  4.058692  0.001
C  C121  1  0.57992711  0.71176532  0.31796466  1  0.408291  0.001534  0.114515  0.105411  0.001299  4.058462  0.001
C  C122  1  0.57992722  0.21176698  0.18203694  1  0.408366  0.001532  0.114581  0.105475  0.001298  4.058496  0.001
C  C123  1  0.42007316  0.28823256  0.68204096  1  0.408914  0.001538  0.11455  0.105486  0.001302  4.058514  0.001
C  C124  1  0.52856060  0.87549680  0.72020004  1  -0.153666  0.001769  -0.019897  -0.196825  0.000686  3.897709  0.0
C  C125  1  0.47143722  0.62449857  0.22020237  1  -0.153153  0.001769  -0.01975  -0.196543  0.000685  3.897553  0.0
C  C126  1  0.47143730  0.12450351  0.27980143  1  -0.15366  0.001775  -0.01979  -0.196639  0.000691  3.897756  0.0
C  C127  1  0.52855977  0.37549682  0.77980117  1  -0.153698  0.001766  -0.019826  -0.196679  0.000682  3.897801  0.0
C  C128  1  0.41115948  0.89991764  0.75624910  1  0.488398  0.003109  0.106349  0.287176  0.002406  3.982567  0.002
C  C129  1  0.58884516  0.60008256  0.25625331  1  0.488304  0.003112  0.106332  0.28707  0.002408  3.982688  0.002
C  C130  1  0.58884257  0.10008456  0.24374872  1  0.488382  0.003106  0.106322  0.287093  0.002403  3.98265  0.002
C  C131  1  0.41115562  0.39991655  0.74374971  1  0.488331  0.003115  0.106396  0.287203  0.00241  3.982587  0.002
C  C132  1  0.62066034  0.91428945  0.66001405  1  1.572003  0.008689  0.192001  0.577874  0.010374  4.25933  0.006
C  C133  1  0.37933782  0.58570800  0.16001636  1  1.57214  0.008698  0.191925  0.577639  0.010386  4.259484  0.006
C  C134  1  0.37934218  0.08570844  0.33998430  1  1.572196  0.008698  0.191934  0.577727  0.010384  4.259498  0.006
C  C135  1  0.62065120  0.41429530  0.83998407  1  1.57243  0.008708  0.191806  0.57756  0.010395  4.25926  0.006
C  C136  1  0.34895685  0.97344750  0.74053162  1  -0.067865  0.000564  -0.23832  -0.441672  0.00038  3.958802  0.0
C  C137  1  0.65105131  0.52655341  0.24053519  1  -0.067956  0.000563  -0.238394  -0.441886  0.000379  3.95883  0.0
C  C138  1  0.65104320  0.02655529  0.25946776  1  -0.067928  0.000565  -0.238319  -0.441677  0.000381  3.958826  0.0
C  C139  1  0.34894506  0.47344320  0.75946628  1  -0.068058  0.000566  -0.238365  -0.441818  0.000382  3.958707  0.0
S  S140  1  0.98410257  0.18477925  0.33343798  1  0.285245  0.006297  0.125254  0.164381  0.003714  2.926533  0.004
S  S141  1  0.01589084  0.31521653  0.83344322  1  0.285215  0.006293  0.12527  0.1644  0.003711  2.926625  0.004
S  S142  1  0.01588317  0.81522157  0.66656141  1  0.285264  0.006295  0.125247  0.164347  0.003712  2.926472  0.004
S  S143  1  0.98411933  0.68478082  0.16656033  1  0.285235  0.006293  0.125197  0.164282  0.00371  2.926654  0.004
S  S144  1  0.56280896  0.78737895  0.75689867  1  0.257137  0.004561  0.105156  0.117163  0.00337  2.841572  0.002
S  S145  1  0.43718636  0.71261502  0.25690009  1  0.256977  0.004561  0.105095  0.117052  0.00337  2.841722  0.002
S  S146  1  0.43718490  0.21261703  0.24310176  1  0.257262  0.004562  0.105146  0.117114  0.003371  2.841695  0.002
S  S147  1  0.56281704  0.28738227  0.74310501  1  0.257223  0.004563  0.105157  0.117095  0.003372  2.841671  0.002
N  N148  1  0.06691610  0.42302685  0.13659222  1  -1.26399  0.048338  -0.319646  -0.241372  0.030194  3.492866  0.014
N  N149  1  0.93308770  0.07697105  0.63659593  1  -1.264037  0.048312  -0.319526  -0.241212  0.030186  3.492886  0.014
N  N150  1  0.93308806  0.57697229  0.86340405  1  -1.26386  0.048333  -0.319636  -0.241439  0.030192  3.492946  0.014
N  N151  1  0.06691322  0.92303113  0.36340190  1  -1.263803  0.048313  -0.319607  -0.241292  0.03019  3.492948  0.014
N  N152  1  0.78590112  0.27428832  0.34734397  1  -1.166516  0.002935  -0.325622  -0.350166  0.002028  3.26687  0.002
N  N153  1  0.21409114  0.22570985  0.84734732  1  -1.166748  0.002926  -0.325632  -0.350241  0.002021  3.266995  0.002
N  N154  1  0.21409353  0.72571503  0.65265489  1  -1.166608  0.002934  -0.32561  -0.35022  0.002027  3.266791  0.002
N  N155  1  0.78591021  0.77428250  0.15265466  1  -1.166447  0.002932  -0.325658  -0.350334  0.002026  3.266823  0.002
N  N156  1  0.27694562  0.61002623  0.97850110  1  -1.26616  0.04698  -0.31911  -0.246996  0.029767  3.505291  0.011
N  N157  1  0.72305172  0.88997607  0.47849615  1  -1.266589  0.047011  -0.319138  -0.247052  0.029768  3.505327  0.011
N  N158  1  0.72305592  0.38997473  0.02150037  1  -1.266064  0.046985  -0.319102  -0.246949  0.029769  3.505114  0.011
N  N159  1  0.27693832  0.11002970  0.52150323  1  -1.266141  0.04698  -0.319092  -0.247095  0.02977  3.505333  0.011
N  N160  1  0.35211450  0.85043462  0.81094464  1  -1.1659  0.002055  -0.323241  -0.34012  0.00144  3.263845  0.001
N  N161  1  0.64788666  0.64956962  0.31094566  1  -1.165781  0.002053  -0.323291  -0.340195  0.001438  3.263865  0.001
N  N162  1  0.64787903  0.14956872  0.18905371  1  -1.165736  0.002056  -0.32332  -0.340265  0.00144  3.263886  0.001
N  N163  1  0.35211524  0.35042950  0.68905789  1  -1.166195  0.002049  -0.323334  -0.340282  0.001435  3.263824  0.001
O  O164  1  0.96543973  0.05572813  0.43784706  1  -1.228582  0.073072  -0.310263  -0.581731  0.055052  2.406212  0.033
O  O165  1  0.03455669  0.44426726  0.93785809  1  -1.22858  0.073069  -0.310237  -0.581661  0.055052  2.406323  0.033
O  O166  1  0.03453720  0.94426769  0.56214609  1  -1.228808  0.073056  -0.310351  -0.581829  0.055047  2.406426  0.033
O  O167  1  0.96546881  0.55573453  0.06214390  1  -1.2289  0.073069  -0.310399  -0.581912  0.055048  2.406367  0.033
O  O168  1  0.76589725  0.07946179  0.49968055  1  -1.170419  0.068063  -0.298516  -0.524911  0.047411  2.257368  0.034
O  O169  1  0.23413077  0.42054346  0.99967697  1  -1.169929  0.068012  -0.298434  -0.524646  0.047393  2.257031  0.034
O  O170  1  0.23410480  0.92054040  0.50032248  1  -1.170412  0.068062  -0.298486  -0.524853  0.047401  2.257135  0.034
O  O171  1  0.76589877  0.57946267  0.00031982  1  -1.17049  0.068047  -0.298482  -0.524886  0.04739  2.257202  0.034
O  O172  1  0.73243799  0.88320141  0.64020310  1  -1.180154  0.056182  -0.331913  -0.582492  0.039489  2.273468  0.029
O  O173  1  0.26755664  0.61679610  0.14020664  1  -1.180318  0.056218  -0.331883  -0.582387  0.039498  2.273588  0.029
O  O174  1  0.26757371  0.11679965  0.35980409  1  -1.180014  0.056221  -0.331876  -0.58246  0.039501  2.273408  0.029
O  O175  1  0.73243820  0.38321586  0.85980107  1  -1.180323  0.05625  -0.331861  -0.582442  0.039519  2.273609  0.029
O  O176  1  0.58995442  0.97660251  0.63019379  1  -1.178144  0.047395  -0.307123  -0.533268  0.033768  2.12921  0.027
O  O177  1  0.41004163  0.52339321  0.13019743  1  -1.178177  0.047418  -0.307044  -0.533112  0.033778  2.129297  0.027
O  O178  1  0.41003616  0.02339098  0.36980196  1  -1.178593  0.047413  -0.307118  -0.533189  0.033777  2.129396  0.027
O  O179  1  0.58994863  0.47660765  0.86980455  1  -1.178463  0.047423  -0.30705  -0.533057  0.033782  2.12914  0.027
