# generated using pymatgen
data_Zn3H14C14(NO2)6
_symmetry_space_group_name_H-M   'P 1'
_cell_length_a   7.30656165
_cell_length_b   7.96089870
_cell_length_c   10.01205113
_cell_angle_alpha   108.56490283
_cell_angle_beta   96.99844865
_cell_angle_gamma   107.46256973
_symmetry_Int_Tables_number   1
_chemical_formula_structural   Zn3H14C14(NO2)6
_chemical_formula_sum   'Zn3 H14 C14 N6 O12'
_cell_volume   511.17868968
_cell_formula_units_Z   1
loop_
 _symmetry_equiv_pos_site_id
 _symmetry_equiv_pos_as_xyz
  1  'x, y, z'
loop_
 _atom_site_type_symbol
 _atom_site_label
 _atom_site_symmetry_multiplicity
 _atom_site_fract_x
 _atom_site_fract_y
 _atom_site_fract_z
 _atom_site_occupancy
 _atom_site_hle17_bader_spin_density
 _atom_site_hle17_ddec_charge
 _atom_site_hle17_ddec_spin_density
 _atom_site_hle17_ddec_sum_bond_order
 _atom_site_hle17_magmom
 _atom_site_hse06_10hf_bader_spin_density
 _atom_site_hse06_10hf_ddec_charge
 _atom_site_hse06_10hf_ddec_spin_density
 _atom_site_hse06_10hf_ddec_sum_bond_order
 _atom_site_hse06_10hf_magmom
 _atom_site_hse06_bader_spin_density
 _atom_site_hse06_ddec_charge
 _atom_site_hse06_ddec_spin_density
 _atom_site_hse06_ddec_sum_bond_order
 _atom_site_hse06_magmom
 _atom_site_pbe_bader_spin_density
 _atom_site_pbe_cm5_charge
 _atom_site_pbe_ddec_charge
 _atom_site_pbe_ddec_spin_density
 _atom_site_pbe_ddec_sum_bond_order
 _atom_site_pbe_magmom
Zn  Zn0  1  0.49999771  0.00000004  0.99999940  1  0  1.146258  0  1.736213  0  0  0.985055  0  2.173834  0  0  1.024417  0  2.124154  0  0  0.696997  0.956928  0  2.20902  0
Zn  Zn1  1  0.21571794  0.06618495  0.43732444  1  0  1.020548  0  1.871165  0  0  0.820031  0  2.358776  0  0  0.86395  0  2.30714  0  0  0.730999  0.78875  0  2.394932  0
Zn  Zn2  1  0.78427885  0.93381374  0.56267394  1  0  1.020544  0  1.871158  0  0  0.82004  0  2.35877  0  0  0.863952  0  2.307133  0  0  0.730986  0.788764  0  2.394927  0
H  H3  1  0.55751623  0.78424147  0.74401859  1  0  0.421198  0  0.887852  0  0  0.38803  0  0.956051  0  0  0.398089  0  0.941519  0  0  0.289274  0.380813  0  0.96645  0
H  H4  1  0.44248863  0.21576995  0.25598655  1  0  0.421212  0  0.88785  0  0  0.388142  0  0.955922  0  0  0.398203  0  0.941386  0  0  0.289325  0.380926  0  0.966317  0
H  H5  1  0.60160053  0.67880706  0.84392563  1  0  0.446655  0  0.806679  0  0  0.428129  0  0.859948  0  0  0.43689  0  0.847155  0  0  0.320134  0.421826  0  0.868039  0
H  H6  1  0.39841126  0.32120100  0.15607749  1  0  0.446666  0  0.806687  0  0  0.428183  0  0.859874  0  0  0.436947  0  0.847075  0  0  0.320154  0.421876  0  0.867976  0
H  H7  1  0.80063105  0.35008174  0.05006933  1  0  0.435714  0  0.865634  0  0  0.403221  0  0.930988  0  0  0.414483  0  0.914528  0  0  0.289465  0.395249  0  0.942706  0
H  H8  1  0.19936335  0.64991124  0.94992649  1  0  0.435767  0  0.865557  0  0  0.403263  0  0.930928  0  0  0.414525  0  0.914468  0  0  0.289498  0.395291  0  0.942647  0
H  H9  1  0.78732704  0.20805141  0.89147668  1  0  0.426959  0  0.863656  0  0  0.394495  0  0.933541  0  0  0.4056  0  0.917019  0  0  0.292594  0.386108  0  0.946037  0
H  H10  1  0.21267264  0.79194415  0.10851930  1  0  0.426915  0  0.863722  0  0  0.394447  0  0.933611  0  0  0.405555  0  0.917084  0  0  0.292562  0.386062  0  0.946104  0
H  H11  1  0.71135345  0.49602154  0.34002738  1  0  0.107088  0  0.986812  0  0  0.112353  0  1.057476  0  0  0.116954  0  1.053745  0  0  0.105237  0.108908  0  1.06052  0
H  H12  1  0.28864650  0.50397869  0.65997868  1  0  0.107028  0  0.986824  0  0  0.112287  0  1.057504  0  0  0.116888  0  1.053772  0  0  0.10522  0.108841  0  1.060549  0
H  H13  1  0.51305210  0.15617134  0.73431798  1  0  0.105198  0  0.977833  0  0  0.112999  0  1.040843  0  0  0.115372  0  1.037682  0  0  0.13669  0.111196  0  1.043174  0
H  H14  1  0.48694278  0.84382593  0.26567787  1  0  0.105254  0  0.977853  0  0  0.113038  0  1.040862  0  0  0.115413  0  1.037699  0  0  0.136676  0.111235  0  1.043192  0
H  H15  1  0.01162489  0.85283944  0.84108798  1  0  0.106779  0  0.91647  0  0  0.117245  0  0.975885  0  0  0.119849  0  0.971991  0  0  0.143772  0.115116  0  0.97907  0
H  H16  1  0.98837266  0.14715772  0.15890913  1  0  0.106815  0  0.916421  0  0  0.11729  0  0.975828  0  0  0.119891  0  0.971933  0  0  0.143795  0.11516  0  0.979009  0
C  C17  1  0.60511410  0.35567492  0.54335154  1  0  0.674449  0  3.864007  0  0  0.616567  0  4.168511  0  0  0.650682  0  4.159507  0  0  0.217461  0.5933  0  4.174034  0
C  C18  1  0.39488241  0.64432959  0.45664813  1  0  0.674475  0  3.863965  0  0  0.616623  0  4.168397  0  0  0.650756  0  4.159362  0  0  0.217456  0.593346  0  4.173935  0
C  C19  1  0.80920255  0.42429276  0.51957896  1  0  -0.050423  0  3.707853  0  0  -0.039386  0  3.950205  0  0  -0.042839  0  3.969282  0  0  -0.009538  -0.03756  0  3.93779  0
C  C20  1  0.19079916  0.57570135  0.48041990  1  0  -0.050637  0  3.708064  0  0  -0.039544  0  3.950455  0  0  -0.043009  0  3.969535  0  0  -0.009612  -0.037715  0  3.938044  0
C  C21  1  0.97398430  0.42892411  0.61151013  1  0  -0.072833  0  3.730348  0  0  -0.062945  0  3.9751  0  0  -0.067227  0  3.994856  0  0  -0.012901  -0.060156  0  3.961952  0
C  C22  1  0.02601853  0.57107298  0.38849353  1  0  -0.072618  0  3.7303  0  0  -0.062922  0  3.975251  0  0  -0.0672  0  3.995005  0  0  -0.012855  -0.060133  0  3.962099  0
C  C23  1  0.95638722  0.34724337  0.72818931  1  0  0.662916  0  3.86774  0  0  0.607393  0  4.166867  0  0  0.640734  0  4.158811  0  0  0.217779  0.584861  0  4.171637  0
C  C24  1  0.04361216  0.65275536  0.27181435  1  0  0.66288  0  3.867794  0  0  0.607439  0  4.166878  0  0  0.640785  0  4.158816  0  0  0.217801  0.584908  0  4.171646  0
C  C25  1  0.83745145  0.49418996  0.40904480  1  0  -0.100154  0  3.715417  0  0  -0.135179  0  3.976943  0  0  -0.135438  0  3.994229  0  0  -0.086441  -0.134825  0  3.965784  0
C  C26  1  0.16254997  0.50580997  0.59095535  1  0  -0.099917  0  3.715325  0  0  -0.134997  0  3.976804  0  0  -0.135253  0  3.994091  0  0  -0.086383  -0.134643  0  3.965644  0
C  C27  1  0.36212382  0.07866507  0.73213803  1  0  0.250758  0  3.667909  0  0  0.190073  0  3.935888  0  0  0.206059  0  3.947042  0  0  0.154745  0.179531  0  3.928228  0
C  C28  1  0.63786969  0.92133231  0.26785870  1  0  0.250599  0  3.668322  0  0  0.189976  0  3.93622  0  0  0.205961  0  3.947376  0  0  0.154808  0.179433  0  3.92856  0
C  C29  1  0.10717889  0.92391073  0.78544536  1  0  0.255959  0  3.647419  0  0  0.196968  0  3.91518  0  0  0.211736  0  3.928339  0  0  0.162523  0.187224  0  3.906417  0
C  C30  1  0.89281730  0.07608654  0.21455263  1  0  0.255973  0  3.647584  0  0  0.196951  0  3.915339  0  0  0.211726  0  3.928496  0  0  0.162517  0.187204  0  3.906571  0
N  N31  1  0.30652778  0.00449861  0.83076741  1  0  -0.421468  0  3.193468  0  0  -0.337718  0  3.471649  0  0  -0.361363  0  3.484169  0  0  -0.343252  -0.321594  0  3.463136  0
N  N32  1  0.69346768  0.99550012  0.16922984  1  0  -0.4214  0  3.193576  0  0  -0.33763  0  3.471686  0  0  -0.361277  0  3.484208  0  0  -0.343197  -0.321507  0  3.463173  0
N  N33  1  0.20704038  0.04511274  0.62946824  1  0  -0.314837  0  3.256539  0  0  -0.242916  0  3.566449  0  0  -0.261686  0  3.580415  0  0  -0.271106  -0.230149  0  3.557083  0
N  N34  1  0.79295193  0.95488181  0.37052771  1  0  -0.314829  0  3.256785  0  0  -0.242967  0  3.566679  0  0  -0.261732  0  3.580643  0  0  -0.271198  -0.230208  0  3.557319  0
N  N35  1  0.04237705  0.94448425  0.66339308  1  0  -0.311211  0  3.264906  0  0  -0.236752  0  3.568048  0  0  -0.255955  0  3.584748  0  0  -0.265506  -0.223664  0  3.556477  0
N  N36  1  0.95761733  0.05550877  0.33660374  1  0  -0.311251  0  3.264978  0  0  -0.236757  0  3.568123  0  0  -0.255965  0  3.584824  0  0  -0.265536  -0.223654  0  3.55654  0
O  O37  1  0.60406131  0.80329111  0.84704827  1  0  -0.834649  0  1.86331  0  0  -0.781342  0  2.0637  0  0  -0.800637  0  2.032107  0  0  -0.576937  -0.767468  0  2.08483  0
O  O38  1  0.39594714  0.19671576  0.15295621  1  0  -0.834695  0  1.863317  0  0  -0.78153  0  2.06348  0  0  -0.800826  0  2.031881  0  0  -0.577016  -0.767654  0  2.084619  0
O  O39  1  0.74434008  0.21419505  0.98197667  1  0  -0.861893  0  1.896952  0  0  -0.801446  0  2.104265  0  0  -0.821542  0  2.068154  0  0  -0.585684  -0.786944  0  2.130402  0
O  O40  1  0.25565557  0.78580069  0.01801791  1  0  -0.86193  0  1.896882  0  0  -0.801474  0  2.104203  0  0  -0.82157  0  2.068091  0  0  -0.585704  -0.78697  0  2.130342  0
O  O41  1  0.47333223  0.22036039  0.42856754  1  0  -0.671162  0  2.112727  0  0  -0.575155  0  2.385052  0  0  -0.60541  0  2.368548  0  0  -0.325357  -0.553614  0  2.395822  0
O  O42  1  0.52666329  0.77964871  0.57143807  1  0  -0.671246  0  2.112669  0  0  -0.575203  0  2.384974  0  0  -0.605465  0  2.368467  0  0  -0.32537  -0.55366  0  2.39575  0
O  O43  1  0.56952451  0.42636052  0.66212110  1  0  -0.588748  0  1.947248  0  0  -0.544487  0  2.171761  0  0  -0.567104  0  2.162456  0  0  -0.298433  -0.528518  0  2.177621  0
O  O44  1  0.43047863  0.57364649  0.33787885  1  0  -0.588691  0  1.947253  0  0  -0.544449  0  2.171761  0  0  -0.567071  0  2.162445  0  0  -0.298375  -0.528477  0  2.17763  0
O  O45  1  0.80518475  0.19235037  0.69987363  1  0  -0.690047  0  2.095672  0  0  -0.605592  0  2.361581  0  0  -0.633721  0  2.345392  0  0  -0.334872  -0.585285  0  2.372486  0
O  O46  1  0.19481679  0.80764668  0.30012688  1  0  -0.690089  0  2.095699  0  0  -0.605624  0  2.361549  0  0  -0.633772  0  2.345375  0  0  -0.33488  -0.58532  0  2.37246  0
O  O47  1  0.08521855  0.42534689  0.84488314  1  0  -0.569942  0  1.939769  0  0  -0.51711  0  2.147023  0  0  -0.539675  0  2.137194  0  0  -0.299135  -0.501566  0  2.153922  0
O  O48  1  0.91478277  0.57465322  0.15512204  1  0  -0.569938  0  1.939864  0  0  -0.517114  0  2.147069  0  0  -0.539678  0  2.137236  0  0  -0.29918  -0.501572  0  2.153965  0
