# generated using pymatgen
data_Zn2H17C31N3O8
_symmetry_space_group_name_H-M   'P 1'
_cell_length_a   8.51956634
_cell_length_b   9.71726426
_cell_length_c   16.57200000
_cell_angle_alpha   105.93967586
_cell_angle_beta   101.33718609
_cell_angle_gamma   90.40292033
_symmetry_Int_Tables_number   1
_chemical_formula_structural   Zn2H17C31N3O8
_chemical_formula_sum   'Zn4 H34 C62 N6 O16'
_cell_volume   1290.74177930
_cell_formula_units_Z   2
loop_
 _symmetry_equiv_pos_site_id
 _symmetry_equiv_pos_as_xyz
  1  'x, y, z'
loop_
 _atom_site_type_symbol
 _atom_site_label
 _atom_site_symmetry_multiplicity
 _atom_site_fract_x
 _atom_site_fract_y
 _atom_site_fract_z
 _atom_site_occupancy
 _atom_site_hle17_bader_spin_density
 _atom_site_hle17_ddec_charge
 _atom_site_hle17_ddec_spin_density
 _atom_site_hle17_ddec_sum_bond_order
 _atom_site_hle17_magmom
 _atom_site_hse06_10hf_bader_spin_density
 _atom_site_hse06_10hf_ddec_charge
 _atom_site_hse06_10hf_ddec_spin_density
 _atom_site_hse06_10hf_ddec_sum_bond_order
 _atom_site_hse06_10hf_magmom
 _atom_site_hse06_bader_spin_density
 _atom_site_hse06_ddec_charge
 _atom_site_hse06_ddec_spin_density
 _atom_site_hse06_ddec_sum_bond_order
 _atom_site_hse06_magmom
 _atom_site_pbe_bader_charge
 _atom_site_pbe_bader_spin_density
 _atom_site_pbe_cm5_charge
 _atom_site_pbe_ddec_charge
 _atom_site_pbe_ddec_spin_density
 _atom_site_pbe_ddec_sum_bond_order
 _atom_site_pbe_magmom
Zn  Zn0  1  0.12785164  0.45473867  0.15757926  1  0  1.111437  0  1.746135  0  0  0.924135  0  2.225809  0  0  0.974134  0  2.165712  0  1.301904  0  0.705488  0.886781  0  2.2698  0
Zn  Zn1  1  0.87214942  0.54526149  0.84242045  1  0  1.111458  0  1.746156  0  0  0.924177  0  2.225826  0  0  0.974172  0  2.165729  0  1.301902  0  0.705504  0.886821  0  2.269816  0
Zn  Zn2  1  0.37501792  0.48137943  0.87032530  1  0  1.099777  0  1.734674  0  0  0.91413  0  2.202874  0  0  0.963779  0  2.145179  0  1.303118  0  0.702241  0.879427  0  2.242244  0
Zn  Zn3  1  0.62498202  0.51862180  0.12967447  1  0  1.099763  0  1.734669  0  0  0.914108  0  2.202876  0  0  0.963755  0  2.145181  0  1.30311  0  0.702223  0.879403  0  2.242246  0
H  H4  1  0.13382560  0.70634048  0.29602429  1  0  0.09308  0  0.96076  0  0  0.100907  0  1.025399  0  0  0.103882  0  1.022065  0  0.139171  0  0.121001  0.098591  0  1.028275  0
H  H5  1  0.86617538  0.29365860  0.70397524  1  0  0.093074  0  0.960759  0  0  0.100905  0  1.025395  0  0  0.103882  0  1.022056  0  0.139168  0  0.120997  0.098589  0  1.028272  0
H  H6  1  0.52556301  0.69999132  0.50344751  1  0  0.099491  0  0.952741  0  0  0.104923  0  1.024379  0  0  0.108498  0  1.02096  0  0.116564  0  0.107546  0.10222  0  1.027121  0
H  H7  1  0.47443670  0.30000670  0.49655171  1  0  0.099462  0  0.952766  0  0  0.104937  0  1.024357  0  0  0.108514  0  1.020934  0  0.116547  0  0.107544  0.102232  0  1.027101  0
H  H8  1  0.58025384  0.45565351  0.41353230  1  0  0.105586  0  0.945023  0  0  0.118574  0  0.99874  0  0  0.121258  0  0.999167  0  0.090527  0  0.109414  0.116595  0  0.99875  0
H  H9  1  0.41974595  0.54434558  0.58646772  1  0  0.105605  0  0.94502  0  0  0.118594  0  0.998734  0  0  0.121279  0  0.99916  0  0.090534  0  0.109417  0.116615  0  0.998745  0
H  H10  1  0.40346608  0.35277235  0.26780378  1  0  0.1013  0  0.926937  0  0  0.109461  0  0.987781  0  0  0.112785  0  0.983991  0  0.166865  0  0.125579  0.106927  0  0.990669  0
H  H11  1  0.59653483  0.64722567  0.73219557  1  0  0.101314  0  0.92691  0  0  0.109474  0  0.987759  0  0  0.112799  0  0.983968  0  0.166891  0  0.125598  0.106941  0  0.990646  0
H  H12  1  0.14921363  0.91699660  0.34253466  1  0  0.110146  0  0.959893  0  0  0.122827  0  1.01803  0  0  0.12581  0  1.017171  0  0.072558  0  0.109884  0.120468  0  1.019284  0
H  H13  1  0.85078624  0.08300355  0.65746553  1  0  0.110158  0  0.95988  0  0  0.122839  0  1.01801  0  0  0.12582  0  1.017157  0  0.072553  0  0.109889  0.12048  0  1.019265  0
H  H14  1  0.19533082  0.23933140  0.58283977  1  0  0.112145  0  0.966502  0  0  0.123071  0  1.027573  0  0  0.126315  0  1.026546  0  0.09352  0  0.107409  0.120607  0  1.028702  0
H  H15  1  0.80466777  0.76066768  0.41716073  1  0  0.112149  0  0.966517  0  0  0.123081  0  1.027575  0  0  0.126324  0  1.026553  0  0.093529  0  0.1074  0.120617  0  1.028704  0
H  H16  1  0.27962397  0.29520407  0.70385993  1  0  0.083682  0  1.028715  0  0  0.092497  0  1.092374  0  0  0.09532  0  1.08988  0  0.162908  0  0.11275  0.090219  0  1.094622  0
H  H17  1  0.72037470  0.70479609  0.29613954  1  0  0.083704  0  1.02868  0  0  0.092519  0  1.092346  0  0  0.095342  0  1.089852  0  0.162924  0  0.112763  0.09024  0  1.094593  0
H  H18  1  0.54668743  0.91467894  0.67611802  1  0  0.108731  0  0.930268  0  0  0.118124  0  0.990848  0  0  0.121939  0  0.987185  0  0.127848  0  0.113084  0.115266  0  0.993658  0
H  H19  1  0.45330869  0.08531907  0.32388205  1  0  0.108742  0  0.930265  0  0  0.118134  0  0.990846  0  0  0.121949  0  0.987185  0  0.127834  0  0.113075  0.115298  0  0.993633  0
H  H20  1  0.67946949  0.01198941  0.82964031  1  0  0.120869  0  0.985616  0  0  0.128729  0  1.045841  0  0  0.132354  0  1.044662  0  0.163971  0  0.108895  0.126051  0  1.046988  0
H  H21  1  0.32052798  0.98801074  0.17035904  1  0  0.1209  0  0.985532  0  0  0.128708  0  1.04584  0  0  0.132333  0  1.044662  0  0.163957  0  0.10888  0.12603  0  1.046986  0
H  H22  1  0.61006459  0.25708547  0.91298543  1  0  0.102733  0  0.943664  0  0  0.111364  0  1.00358  0  0  0.114413  0  1.000425  0  0.146745  0  0.124909  0.109069  0  1.005881  0
H  H23  1  0.38993288  0.74291469  0.08701392  1  0  0.102762  0  0.943611  0  0  0.111371  0  1.003553  0  0  0.11442  0  1.000398  0  0.146739  0  0.124909  0.109077  0  1.005852  0
H  H24  1  0.90291046  0.00669022  0.32181428  1  0  0.085054  0  0.964448  0  0  0.096867  0  1.025449  0  0  0.09884  0  1.026  0  0.080983  0  0.098047  0.095078  0  1.025852  0
H  H25  1  0.09708813  0.99330887  0.67818622  1  0  0.085028  0  0.964493  0  0  0.096843  0  1.025493  0  0  0.098818  0  1.026043  0  0.081001  0  0.098052  0.095064  0  1.025886  0
H  H26  1  0.75099182  0.16188873  0.24149147  1  0  0.100382  0  0.944389  0  0  0.110839  0  1.004281  0  0  0.113508  0  1.003604  0  0.111793  0  0.104697  0.108987  0  1.004673  0
H  H27  1  0.24900805  0.83811143  0.75850872  1  0  0.100357  0  0.94442  0  0  0.110812  0  1.004316  0  0  0.113481  0  1.003641  0  0.111851  0  0.10469  0.10896  0  1.004708  0
H  H28  1  0.04449136  0.53020045  0.40805996  1  0  0.092273  0  0.96401  0  0  0.10093  0  1.028522  0  0  0.103673  0  1.027739  0  0.102045  0  0.098979  0.099076  0  1.028871  0
H  H29  1  0.95550962  0.46979864  0.59194018  1  0  0.092245  0  0.963987  0  0  0.100916  0  1.028485  0  0  0.103659  0  1.027702  0  0.102037  0  0.098986  0.099062  0  1.028834  0
H  H30  1  0.19052166  0.37859479  0.49259324  1  0  0.084275  0  0.969926  0  0  0.095532  0  1.033912  0  0  0.097956  0  1.033471  0  0.06897  0  0.097172  0.093938  0  1.034048  0
H  H31  1  0.80948172  0.62140429  0.50740653  1  0  0.08426  0  0.969937  0  0  0.095522  0  1.033914  0  0  0.097946  0  1.033472  0  0.068985  0  0.097167  0.093928  0  1.034049  0
H  H32  1  0.92083858  0.09244579  0.83723268  1  0  0.101052  0  0.967955  0  0  0.107925  0  1.036993  0  0  0.111881  0  1.033832  0  0.110358  0  0.105017  0.105135  0  1.039373  0
H  H33  1  0.07916129  0.90755436  0.16276812  1  0  0.101058  0  0.967985  0  0  0.107952  0  1.03699  0  0  0.111908  0  1.033828  0  0.110347  0  0.105025  0.105162  0  1.03937  0
H  H34  1  0.24593086  0.85526812  0.97153073  1  0  0.114915  0  0.936543  0  0  0.125032  0  0.995396  0  0  0.128874  0  0.992335  0  0.106654  0  0.111104  0.122381  0  0.997154  0
H  H35  1  0.75406908  0.14473311  0.02847085  1  0  0.114883  0  0.936573  0  0  0.125039  0  0.995386  0  0  0.128882  0  0.992324  0  0.106649  0  0.111118  0.122388  0  0.997144  0
H  H36  1  0.41771963  0.08118997  0.04907012  1  0  0.10087  0  0.943159  0  0  0.112846  0  1.000892  0  0  0.115725  0  1.000464  0  0.093274  0  0.106827  0.110721  0  1.001407  0
H  H37  1  0.58228159  0.91881234  0.95093056  1  0  0.100873  0  0.943144  0  0  0.11285  0  1.000875  0  0  0.115729  0  1.000448  0  0.093346  0  0.106836  0.110725  0  1.00139  0
C  C38  1  0.23637201  0.65822624  0.32522274  1  0  0.104437  0  3.664552  0  0  0.063316  0  3.911718  0  0  0.071086  0  3.928597  0  0.485223  0  0.05595  0.05849  0  3.899819  0
C  C39  1  0.76362897  0.34177284  0.67477619  1  0  0.10442  0  3.664574  0  0  0.063312  0  3.911761  0  0  0.07108  0  3.928642  0  0.485323  0  0.055946  0.058485  0  3.899862  0
C  C40  1  0.32773977  0.72537082  0.40680401  1  0  -0.030533  0  3.757357  0  0  -0.009444  0  3.987177  0  0  -0.016164  0  4.010702  0  -0.030139  0  -0.002117  -0.005229  0  3.971029  0
C  C41  1  0.67226122  0.27462826  0.59319552  1  0  -0.030527  0  3.757362  0  0  -0.009459  0  3.987238  0  0  -0.016179  0  4.010764  0  -0.030515  0  -0.002133  -0.005243  0  3.971089  0
C  C42  1  0.45295217  0.65039596  0.43981012  1  0  -0.036096  0  3.700862  0  0  -0.065409  0  3.954118  0  0  -0.060789  0  3.971403  0  -0.02905  0  -0.061874  -0.068062  0  3.942392  0
C  C43  1  0.54704642  0.34960313  0.56018977  1  0  -0.036065  0  3.700826  0  0  -0.0654  0  3.954086  0  0  -0.060779  0  3.97137  0  -0.029041  0  -0.061871  -0.068052  0  3.94236  0
C  C44  1  0.48260327  0.51594914  0.39035647  1  0  -0.128072  0  3.739039  0  0  -0.138162  0  3.99208  0  0  -0.147272  0  4.015168  0  0.053667  0  -0.084769  -0.132497  0  3.976817  0
C  C45  1  0.51739780  0.48405102  0.60964324  1  0  -0.128144  0  3.73903  0  0  -0.138233  0  3.992076  0  0  -0.147344  0  4.015165  0  0.053656  0  -0.084787  -0.132567  0  3.976813  0
C  C46  1  0.38638371  0.45742205  0.30924291  1  0  0.156893  0  3.656126  0  0  0.119363  0  3.909629  0  0  0.128529  0  3.925817  0  0.396813  0  0.060826  0.113554  0  3.898506  0
C  C47  1  0.61361728  0.54257703  0.69075662  1  0  0.156896  0  3.656102  0  0  0.11938  0  3.909612  0  0  0.128546  0  3.925801  0  0.396815  0  0.060811  0.113572  0  3.898488  0
C  C48  1  0.29129243  0.86996880  0.45459142  1  0  0.227051  0  3.797731  0  0  0.224815  0  4.045874  0  0  0.233545  0  4.065711  0  0.501009  0  0.118902  0.219176  0  4.032232  0
C  C49  1  0.70870720  0.13002814  0.54540823  1  0  0.227102  0  3.797757  0  0  0.224838  0  4.04596  0  0  0.233569  0  4.065799  0  0.501307  0  0.118942  0.219199  0  4.032318  0
C  C50  1  0.19292345  0.95364481  0.41161834  1  0  -0.195971  0  3.669172  0  0  -0.221454  0  3.914887  0  0  -0.22993  0  3.935716  0  0.021913  0  -0.081062  -0.216167  0  3.901256  0
C  C51  1  0.80707738  0.04635213  0.58838143  1  0  -0.196001  0  3.669166  0  0  -0.221468  0  3.914875  0  0  -0.229946  0  3.935706  0  0.022059  0  -0.081089  -0.216184  0  3.901246  0
C  C52  1  0.15675328  0.08928086  0.45711775  1  0  0.116089  0  3.793722  0  0  0.126101  0  4.02981  0  0  0.131059  0  4.051575  0  -0.066816  0  0.009138  0.122883  0  4.014985  0
C  C53  1  0.84324763  0.91071715  0.54288159  1  0  0.116032  0  3.793764  0  0  0.126062  0  4.029837  0  0  0.131019  0  4.051603  0  -0.066857  0  0.00913  0.122845  0  4.015012  0
C  C54  1  0.22362573  0.13551180  0.54498826  1  0  -0.203158  0  3.664314  0  0  -0.228158  0  3.911688  0  0  -0.236964  0  3.932679  0  -0.001637  0  -0.084708  -0.222249  0  3.897699  0
C  C55  1  0.77637293  0.86448835  0.45501181  1  0  -0.203185  0  3.664269  0  0  -0.228189  0  3.911647  0  0  -0.236996  0  3.932636  0  -0.001619  0  -0.084731  -0.222282  0  3.897659  0
C  C56  1  0.32603148  0.04801664  0.58311274  1  0  0.219923  0  3.801905  0  0  0.217286  0  4.054412  0  0  0.225695  0  4.074788  0  0.494189  0  0.119675  0.212011  0  4.040218  0
C  C57  1  0.67396352  0.95198244  0.41688739  1  0  0.219927  0  3.801846  0  0  0.21729  0  4.054357  0  0  0.225701  0  4.074727  0  0.494154  0  0.119704  0.212015  0  4.040161  0
C  C58  1  0.37115642  0.22957278  0.72692741  1  0  0.080701  0  3.668346  0  0  0.040417  0  3.91471  0  0  0.047772  0  3.932168  0  0.455593  0  0.041179  0.035783  0  3.902963  0
C  C59  1  0.62884097  0.77042631  0.27307175  1  0  0.080755  0  3.668358  0  0  0.040435  0  3.914744  0  0  0.047789  0  3.932202  0  0.455608  0  0.041185  0.035802  0  3.902995  0
C  C60  1  0.40562382  0.09823834  0.67508733  1  0  -0.035583  0  3.767791  0  0  -0.01625  0  4.002626  0  0  -0.023027  0  4.026937  0  -0.058128  0  -0.004263  -0.012102  0  3.985975  0
C  C61  1  0.59437477  0.90176075  0.32491316  1  0  -0.035614  0  3.76781  0  0  -0.01627  0  4.002642  0  0  -0.023046  0  4.026954  0  -0.05811  0  -0.004282  -0.012122  0  3.985996  0
C  C62  1  0.51786482  0.01854343  0.71379822  1  0  -0.015397  0  3.664957  0  0  -0.043579  0  3.913204  0  0  -0.038729  0  3.929582  0  0.013868  0  -0.055251  -0.046265  0  3.901787  0
C  C63  1  0.48213138  0.98145566  0.28620324  1  0  -0.01542  0  3.664945  0  0  -0.043601  0  3.913178  0  0  -0.038752  0  3.929558  0  0.013875  0  -0.055233  -0.046304  0  3.901753  0
C  C64  1  0.59176599  0.07395706  0.79980272  1  0  -0.123176  0  3.708643  0  0  -0.130517  0  3.954924  0  0  -0.139442  0  3.976525  0  -0.052069  0  -0.079759  -0.124866  0  3.94051  0
C  C65  1  0.40823268  0.92604309  0.20019796  1  0  -0.123191  0  3.708596  0  0  -0.130504  0  3.954887  0  0  -0.13943  0  3.976488  0  -0.052057  0  -0.079765  -0.124855  0  3.94048  0
C  C66  1  0.55427110  0.20807034  0.84603848  1  0  0.152416  0  3.644638  0  0  0.115116  0  3.900021  0  0  0.123526  0  3.917378  0  0.447841  0  0.055741  0.109712  0  3.888262  0
C  C67  1  0.44572764  0.79193089  0.15396177  1  0  0.152424  0  3.644619  0  0  0.115132  0  3.899977  0  0  0.123543  0  3.917334  0  0.447867  0  0.055756  0.109727  0  3.88822  0
C  C68  1  0.05886689  0.18114429  0.41238129  1  0  0.051591  0  3.765521  0  0  0.068116  0  3.99238  0  0  0.068797  0  4.014438  0  -0.061145  0  -0.006391  0.067652  0  3.977318  0
C  C69  1  0.94113186  0.81885694  0.58761896  1  0  0.051627  0  3.765406  0  0  0.068119  0  3.992304  0  0  0.0688  0  4.014362  0  -0.0612  0  -0.006393  0.067654  0  3.977246  0
C  C70  1  0.93372011  0.12175385  0.34154873  1  0  -0.09756  0  3.722612  0  0  -0.118429  0  3.973817  0  0  -0.121751  0  3.995094  0  -0.037635  0  -0.08674  -0.115922  0  3.959281  0
C  C71  1  0.06627976  0.87824631  0.65845147  1  0  -0.097532  0  3.722575  0  0  -0.118398  0  3.973798  0  0  -0.12172  0  3.995075  0  -0.037633  0  -0.086734  -0.115898  0  3.95926  0
C  C72  1  0.84782455  0.20808321  0.29649811  1  0  -0.054491  0  3.721543  0  0  -0.079343  0  3.970492  0  0  -0.078975  0  3.990884  0  -0.046364  0  -0.0801  -0.079329  0  3.956481  0
C  C73  1  0.15217659  0.79191802  0.70350238  1  0  -0.054398  0  3.721572  0  0  -0.07925  0  3.970518  0  0  -0.078884  0  3.990912  0  -0.046447  0  -0.080073  -0.079237  0  3.956509  0
C  C74  1  0.88989520  0.35538709  0.31931224  1  0  -0.061977  0  3.749396  0  0  -0.036744  0  3.978619  0  0  -0.045155  0  4.002115  0  -0.013639  0  -0.017618  -0.03138  0  3.962852  0
C  C75  1  0.11010714  0.64461414  0.68068656  1  0  -0.062107  0  3.749541  0  0  -0.036877  0  3.978772  0  0  -0.045288  0  4.002268  0  -0.013742  0  -0.017655  -0.031511  0  3.963003  0
C  C76  1  0.01262071  0.41562802  0.39082453  1  0  -0.06584  0  3.759824  0  0  -0.089832  0  4.007244  0  0  -0.089755  0  4.028949  0  -0.050901  0  -0.086755  -0.089421  0  3.99212  0
C  C77  1  0.98738035  0.58437214  0.60917518  1  0  -0.06573  0  3.759748  0  0  -0.08973  0  4.00716  0  0  -0.089653  0  4.028866  0  -0.050765  0  -0.086724  -0.08932  0  3.992039  0
C  C78  1  0.09431150  0.33015237  0.43765562  1  0  -0.11492  0  3.7478  0  0  -0.130874  0  3.991119  0  0  -0.134619  0  4.012415  0  -0.024464  0  -0.091304  -0.128493  0  3.976506  0
C  C79  1  0.90568956  0.66984779  0.56234409  1  0  -0.11495  0  3.747707  0  0  -0.130898  0  3.991041  0  0  -0.134642  0  4.012336  0  -0.024448  0  -0.091323  -0.128518  0  3.976429  0
C  C80  1  0.81590193  0.44853537  0.26547035  1  0  0.630179  0  3.940571  0  0  0.580593  0  4.235623  0  0  0.61504  0  4.228284  0  1.552847  0  0.198044  0.557302  0  4.239653  0
C  C81  1  0.18409921  0.55146587  0.73453075  1  0  0.63022  0  3.940703  0  0  0.580634  0  4.235747  0  0  0.615083  0  4.228408  0  1.5517  0  0.198043  0.557344  0  4.239776  0
C  C82  1  0.36722942  0.34459243  0.04045174  1  0  0.681734  0  3.865823  0  0  0.624255  0  4.161651  0  0  0.660464  0  4.151294  0  1.589272  0  0.224221  0.59929  0  4.16805  0
C  C83  1  0.63277053  0.65540880  0.95954803  1  0  0.681689  0  3.865945  0  0  0.624199  0  4.1618  0  0  0.660407  0  4.151445  0  1.589276  0  0.224205  0.599232  0  4.168198  0
C  C84  1  0.26521878  0.21303384  0.98627149  1  0  -0.047312  0  3.724332  0  0  -0.035889  0  3.961048  0  0  -0.038122  0  3.980965  0  -0.035619  0  -0.002909  -0.033807  0  3.947068  0
C  C85  1  0.73478356  0.78696739  0.01372853  1  0  -0.047374  0  3.724301  0  0  -0.035939  0  3.961014  0  0  -0.038173  0  3.980934  0  -0.035405  0  -0.002941  -0.033852  0  3.947038  0
C  C86  1  0.12548462  0.21629959  0.92529384  1  0  -0.094649  0  3.747956  0  0  -0.078552  0  3.983485  0  0  -0.087446  0  4.006184  0  -0.01458  0  -0.016784  -0.072665  0  3.968157  0
C  C87  1  0.87451652  0.78370164  0.07470665  1  0  -0.094574  0  3.747972  0  0  -0.078491  0  3.983508  0  0  -0.087385  0  4.006209  0  -0.014715  0  -0.016791  -0.072623  0  3.968204  0
C  C88  1  0.08240585  0.35270478  0.90387961  1  0  0.676762  0  3.865976  0  0  0.6226  0  4.155334  0  0  0.658441  0  4.146841  0  1.568407  0  0.223148  0.597955  0  4.160484  0
C  C89  1  0.91759529  0.64729645  0.09612088  1  0  0.676702  0  3.866153  0  0  0.622548  0  4.155492  0  0  0.658389  0  4.147001  0  1.568405  0  0.223127  0.597907  0  4.160641  0
C  C90  1  0.02951576  0.08966696  0.88375082  1  0  -0.057178  0  3.692366  0  0  -0.092189  0  3.939442  0  0  -0.089378  0  3.957499  0  -0.01018  0  -0.073379  -0.094619  0  3.928732  0
C  C91  1  0.97048418  0.91033427  0.11625015  1  0  -0.057242  0  3.692481  0  0  -0.092272  0  3.939542  0  0  -0.089456  0  3.957603  0  -0.010195  0  -0.073387  -0.0947  0  3.928832  0
C  C92  1  0.07068811  0.96038865  0.90116620  1  0  -0.060636  0  3.743084  0  0  -0.036554  0  3.977766  0  0  -0.045239  0  4.001119  0  -0.011788  0  -0.014446  -0.03151  0  3.96316  0
C  C93  1  0.92931184  0.03961258  0.09883538  1  0  -0.060605  0  3.743074  0  0  -0.036495  0  3.977736  0  0  -0.045197  0  4.001112  0  -0.011747  0  -0.014417  -0.031436  0  3.963107  0
C  C94  1  0.21321812  0.95716366  0.95955884  1  0  -0.038853  0  3.685063  0  0  -0.067164  0  3.938194  0  0  -0.064221  0  3.954971  0  -0.086173  0  -0.072371  -0.067998  0  3.925946  0
C  C95  1  0.78678182  0.04283757  0.04044214  1  0  -0.038837  0  3.684959  0  0  -0.067196  0  3.938101  0  0  -0.064248  0  3.954883  0  -0.086399  0  -0.072394  -0.068036  0  3.92585  0
C  C96  1  0.30915216  0.08266250  0.00190629  1  0  -0.089003  0  3.732849  0  0  -0.111263  0  3.987692  0  0  -0.115019  0  4.008114  0  -0.00832  0  -0.084069  -0.109053  0  3.973741  0
C  C97  1  0.69084778  0.91733873  0.99809469  1  0  -0.088973  0  3.732704  0  0  -0.111234  0  3.987562  0  0  -0.11499  0  4.007985  0  -0.008262  0  -0.084067  -0.109023  0  3.973612  0
C  C98  1  0.96038001  0.82735002  0.86032723  1  0  0.633376  0  3.941058  0  0  0.583399  0  4.23805  0  0  0.616568  0  4.233433  0  1.581038  0  0.200245  0.560807  0  4.240347  0
C  C99  1  0.03961994  0.17265121  0.13967374  1  0  0.63333  0  3.941011  0  0  0.583336  0  4.23802  0  0  0.61651  0  4.233405  0  1.581103  0  0.200214  0.560741  0  4.240315  0
N  N100  1  0.26478820  0.52841689  0.27810600  1  0  -0.328278  0  3.323499  0  0  -0.240828  0  3.603875  0  0  -0.261294  0  3.617983  0  -1.265875  0  -0.326139  -0.226758  0  3.593868  0
N  N101  1  0.73521398  0.47158220  0.72189365  1  0  -0.328217  0  3.323446  0  0  -0.24081  0  3.603881  0  0  -0.261278  0  3.617991  0  -1.265977  0  -0.326113  -0.226739  0  3.593872  0
N  N102  1  0.35861007  0.91690866  0.53860949  1  0  -0.378852  0  3.023108  0  0  -0.351577  0  3.288792  0  0  -0.364555  0  3.303368  0  -1.172034  0  -0.309361  -0.342728  0  3.27841  0
N  N103  1  0.64138860  0.08309150  0.46139058  1  0  -0.378837  0  3.02316  0  0  -0.351554  0  3.288861  0  0  -0.364528  0  3.303428  0  -1.172075  0  -0.309356  -0.342708  0  3.278487  0
N  N104  1  0.44298922  0.28366725  0.80997123  1  0  -0.341642  0  3.313316  0  0  -0.255259  0  3.597965  0  0  -0.276848  0  3.613851  0  -1.278271  0  -0.326081  -0.240776  0  3.586958  0
N  N105  1  0.55700945  0.71633291  0.19002884  1  0  -0.341704  0  3.313393  0  0  -0.255271  0  3.598008  0  0  -0.276857  0  3.61389  0  -1.278307  0  -0.326071  -0.240788  0  3.587001  0
O  O106  1  0.68208363  0.40114613  0.21202588  1  0  -0.64367  0  2.019945  0  0  -0.573292  0  2.285505  0  0  -0.603132  0  2.272448  0  -1.163544  0  -0.327863  -0.552701  0  2.293571  0
O  O107  1  0.31791759  0.59885617  0.78797480  1  0  -0.643726  0  2.02001  0  0  -0.573318  0  2.285551  0  0  -0.603152  0  2.272475  0  -1.163597  0  -0.327869  -0.552726  0  2.293617  0
O  O108  1  0.88818948  0.56708567  0.27418028  1  0  -0.639248  0  1.969809  0  0  -0.590715  0  2.205996  0  0  -0.614271  0  2.196144  0  -1.193348  0  -0.323816  -0.573988  0  2.212913  0
O  O109  1  0.11181397  0.43291449  0.72582027  1  0  -0.639222  0  1.969879  0  0  -0.590706  0  2.20607  0  0  -0.614264  0  2.196218  0  -1.192144  0  -0.323806  -0.573978  0  2.212987  0
O  O110  1  0.32040572  0.43202968  0.10210665  1  0  -0.641932  0  2.103975  0  0  -0.570012  0  2.390638  0  0  -0.599424  0  2.373634  0  -1.181578  0  -0.30583  -0.548803  0  2.401606  0
O  O111  1  0.67959430  0.56797263  0.89789330  1  0  -0.641921  0  2.104101  0  0  -0.569988  0  2.390752  0  0  -0.599393  0  2.373736  0  -1.181558  0  -0.305823  -0.548785  0  2.401736  0
O  O112  1  0.50881870  0.36015540  0.02815961  1  0  -0.609529  0  2.032689  0  0  -0.534293  0  2.291749  0  0  -0.563095  0  2.276844  0  -1.147175  0  -0.295818  -0.514075  0  2.301238  0
O  O113  1  0.49118125  0.63984583  0.97183956  1  0  -0.609511  0  2.032716  0  0  -0.534288  0  2.29181  0  0  -0.563093  0  2.276906  0  -1.14713  0  -0.295816  -0.514069  0  2.301298  0
O  O114  1  0.19055869  0.45439547  0.92400431  1  0  -0.64231  0  2.100653  0  0  -0.567692  0  2.373043  0  0  -0.594798  0  2.355585  0  -1.190519  0  -0.317007  -0.548145  0  2.384669  0
O  O115  1  0.80944245  0.54560576  0.07599619  1  0  -0.642287  0  2.100762  0  0  -0.567652  0  2.373126  0  0  -0.594758  0  2.35567  0  -1.190472  0  -0.316992  -0.548103  0  2.384748  0
O  O116  1  0.93760323  0.36139091  0.86721431  1  0  -0.614252  0  2.034326  0  0  -0.539488  0  2.298889  0  0  -0.568219  0  2.284466  0  -1.156895  0  -0.306084  -0.518948  0  2.30863  0
O  O117  1  0.06239791  0.63861032  0.13278558  1  0  -0.614214  0  2.03439  0  0  -0.539457  0  2.298952  0  0  -0.568189  0  2.28453  0  -1.156918  0  -0.306062  -0.518918  0  2.30869  0
O  O118  1  0.82925360  0.83017497  0.81155330  1  0  -0.613417  0  1.918946  0  0  -0.570276  0  2.142525  0  0  -0.592813  0  2.135816  0  -1.183826  0  -0.321682  -0.554088  0  2.146515  0
O  O119  1  0.17074754  0.16982626  0.18844779  1  0  -0.613375  0  1.918876  0  0  -0.570216  0  2.142465  0  0  -0.592753  0  2.135754  0  -1.183852  0  -0.321664  -0.55403  0  2.146454  0
O  O120  1  0.01412368  0.71499015  0.88242340  1  0  -0.655427  0  2.077786  0  0  -0.580875  0  2.362013  0  0  -0.611046  0  2.346631  0  -1.149778  0  -0.33077  -0.55953  0  2.372967  0
O  O121  1  0.98587746  0.28501108  0.11757709  1  0  -0.655421  0  2.077756  0  0  -0.580877  0  2.362017  0  0  -0.611047  0  2.346635  0  -1.149838  0  -0.330765  -0.559527  0  2.37296  0
