# generated using pymatgen
data_ZnH9IrC17N3O4
_symmetry_space_group_name_H-M   'P 1'
_cell_length_a   13.97645159
_cell_length_b   14.96273688
_cell_length_c   15.21808625
_cell_angle_alpha   85.65367817
_cell_angle_beta   85.40362405
_cell_angle_gamma   86.85371489
_symmetry_Int_Tables_number   1
_chemical_formula_structural   ZnH9IrC17N3O4
_chemical_formula_sum   'Zn4 H36 Ir4 C68 N12 O16'
_cell_volume   3159.32223100
_cell_formula_units_Z   4
loop_
 _symmetry_equiv_pos_site_id
 _symmetry_equiv_pos_as_xyz
  1  'x, y, z'
loop_
 _atom_site_type_symbol
 _atom_site_label
 _atom_site_symmetry_multiplicity
 _atom_site_fract_x
 _atom_site_fract_y
 _atom_site_fract_z
 _atom_site_occupancy
 _atom_site_pbe_bader_charge
 _atom_site_pbe_bader_spin_density
 _atom_site_pbe_cm5_charge
 _atom_site_pbe_ddec_charge
 _atom_site_pbe_ddec_spin_density
 _atom_site_pbe_ddec_sum_bond_order
 _atom_site_pbe_magmom
Zn  Zn0  1  0.69366634  0.61354260  0.35062225  1  1.289355  0  0.668381  0.822756  0  2.415672  0
Zn  Zn1  1  0.30633627  0.38645698  0.64937877  1  1.289652  0  0.668399  0.822777  0  2.415873  0
Zn  Zn2  1  0.89894726  0.60267304  0.33554162  1  1.280525  0  0.672266  0.824178  0  2.40693  0
Zn  Zn3  1  0.10105694  0.39732386  0.66445687  1  1.280439  0  0.672282  0.824118  0  2.406899  0
H  H4  1  0.20809438  0.64677862  0.47922013  1  0.10416  0  0.111316  0.119432  0  1.029902  0
H  H5  1  0.79190608  0.35322095  0.52077973  1  0.104093  0  0.111315  0.119435  0  1.029914  0
H  H6  1  0.03222932  0.63460880  0.47050274  1  0.157237  0  0.125721  0.102817  0  1.001312  0
H  H7  1  0.96777273  0.36538808  0.52949524  1  0.157185  0  0.1257  0.102803  0  1.001325  0
H  H8  1  0.06798873  0.57549545  0.20828105  1  0.107254  0  0.12819  0.104314  0  0.983537  0
H  H9  1  0.93201381  0.42450546  0.79171856  1  0.107545  0  0.128167  0.104285  0  0.983506  0
H  H10  1  0.24618999  0.57925835  0.20622459  1  0.092665  0  0.114592  0.122019  0  0.99418  0
H  H11  1  0.75381104  0.42074390  0.79377634  1  0.092891  0  0.114552  0.121933  0  0.994181  0
H  H12  1  0.95554422  0.58731265  0.04897349  1  0.095358  0  0.1044  0.107988  0  1.005688  0
H  H13  1  0.04445999  0.41268423  0.95102302  1  0.095388  0  0.10439  0.107965  0  1.005656  0
H  H14  1  0.64960328  0.63778183  0.07488670  1  0.07984  0  0.101837  0.102946  0  1.011974  0
H  H15  1  0.35039929  0.36221843  0.92511559  1  0.079771  0  0.101823  0.102934  0  1.012065  0
H  H16  1  0.64123437  0.33435989  0.38223035  1  0.060099  0  0.090765  0.106217  0  1.026517  0
H  H17  1  0.35876330  0.66563833  0.61777376  1  0.059643  0  0.090787  0.106239  0  1.026523  0
H  H18  1  0.94562740  0.32490072  0.30640155  1  0.090924  0  0.093913  0.108791  0  1.059673  0
H  H19  1  0.05437083  0.67510019  0.69359969  1  0.090901  0  0.093932  0.108842  0  1.059613  0
H  H20  1  0.64170566  0.89837842  0.38088302  1  0.148232  0  0.123469  0.112391  0  0.987992  0
H  H21  1  0.35829699  0.10162049  0.61911870  1  0.14823  0  0.123461  0.112388  0  0.987992  0
H  H22  1  0.94841194  0.88922805  0.30896759  1  0.155609  0  0.129005  0.121859  0  0.968088  0
H  H23  1  0.05159276  0.11077287  0.69102923  1  0.155691  0  0.128935  0.121755  0  0.968181  0
H  H24  1  0.52882216  0.58616751  0.48483995  1  0.121689  0  0.122613  0.095765  0  1.001892  0
H  H25  1  0.47118185  0.41383274  0.51515960  1  0.1218  0  0.122646  0.095804  0  1.001831  0
H  H26  1  0.35100936  0.57685318  0.48707211  1  0.157342  0  0.112439  0.126182  0  1.028503  0
H  H27  1  0.64899537  0.42314708  0.51292870  1  0.157676  0  0.112458  0.126199  0  1.028479  0
H  H28  1  0.37682895  0.65396882  0.20598734  1  0.103447  0  0.117318  0.123979  0  0.986729  0
H  H29  1  0.62317427  0.34603277  0.79401217  1  0.103409  0  0.117278  0.123943  0  0.986738  0
H  H30  1  0.55457131  0.65285937  0.21586931  1  0.128239  0  0.126224  0.101947  0  0.998122  0
H  H31  1  0.44543247  0.34714490  0.78412929  1  0.128287  0  0.126227  0.101966  0  0.998074  0
H  H32  1  0.63599203  0.61816943  0.64397996  1  0.099934  0  0.116084  0.089463  0  0.973162  0
H  H33  1  0.36401043  0.38183282  0.35601757  1  0.09978  0  0.116072  0.089446  0  0.973173  0
H  H34  1  0.94513216  0.61750461  0.61401631  1  0.125101  0  0.118781  0.091274  0  1.001443  0
H  H35  1  0.05486814  0.38249765  0.38598532  1  0.125105  0  0.118767  0.091283  0  1.001405  0
H  H36  1  0.64523858  0.64119306  0.91010628  1  0.097397  0  0.102492  0.103592  0  1.017522  0
H  H37  1  0.35476463  0.35880855  0.08989585  1  0.097335  0  0.102482  0.103594  0  1.017434  0
H  H38  1  0.95176607  0.59234799  0.88402355  1  0.109515  0  0.106654  0.110055  0  1.011067  0
H  H39  1  0.04823655  0.40765158  0.11597418  1  0.109581  0  0.106655  0.110072  0  1.01112  0
Ir  Ir40  1  0.60625939  0.11007307  0.39589088  1  0.179231  0  0.266467  -0.040942  0  2.640871  0
Ir  Ir41  1  0.39374179  0.88992648  0.60410367  1  0.179181  0  0.266472  -0.040936  0  2.64077  0
Ir  Ir42  1  0.98338140  0.09993902  0.30286217  1  0.211991  0  0.291404  -0.005965  0  2.618961  0
Ir  Ir43  1  0.01662264  0.90006059  0.69714532  1  0.211924  0  0.291376  -0.006015  0  2.618928  0
C  C44  1  0.24304725  0.61334864  0.34312316  1  0.020305  0  0.016214  0.101508  0  3.986364  0
C  C45  1  0.75695661  0.38665430  0.65687553  1  0.020664  0  0.016194  0.101572  0  3.986205  0
C  C46  1  0.18102820  0.62916496  0.41797646  1  -0.01167  0  -0.071386  -0.150972  0  3.899715  0
C  C47  1  0.81897517  0.37083395  0.58202259  1  -0.011556  0  -0.07136  -0.150937  0  3.899814  0
C  C48  1  0.78725907  0.60860014  0.51697903  1  1.603659  0  0.211016  0.59311  0  4.212201  0
C  C49  1  0.21273940  0.39139672  0.48301987  1  1.603677  0  0.211053  0.593176  0  4.212439  0
C  C50  1  0.80530546  0.61254988  0.17014619  1  1.550399  0  0.216738  0.592497  0  4.16676  0
C  C51  1  0.19469201  0.38745168  0.82985307  1  1.550609  0  0.21679  0.592542  0  4.167011  0
C  C52  1  0.08279843  0.62375991  0.41366654  1  0.496182  0  0.063358  0.116247  0  3.887312  0
C  C53  1  0.91720199  0.37624033  0.58633327  1  0.496162  0  0.063321  0.116153  0  3.887466  0
C  C54  1  0.79443546  0.43356443  0.34899255  1  1.547889  0  0.211991  0.579646  0  4.172044  0
C  C55  1  0.20556284  0.56643513  0.65100944  1  1.547462  0  0.211951  0.579592  0  4.172194  0
C  C56  1  0.10283886  0.59095208  0.26648109  1  0.46631  0  0.057946  0.104982  0  3.923596  0
C  C57  1  0.89716225  0.40904883  0.73351731  1  0.465996  0  0.057983  0.105042  0  3.92351  0
C  C58  1  0.80290210  0.61309821  0.07168269  1  -0.025989  0  -0.012457  -0.021509  0  3.948868  0
C  C59  1  0.19709692  0.38690135  0.92831662  1  -0.026097  0  -0.012496  -0.021637  0  3.948686  0
C  C60  1  0.79820227  0.61782012  0.88726574  1  -0.028887  0  -0.008556  0.006361  0  3.984561  0
C  C61  1  0.20180174  0.38218013  0.11273381  1  -0.028824  0  -0.008573  0.006348  0  3.984436  0
C  C62  1  0.79407951  0.33308274  0.34788605  1  -0.140374  0  -0.014283  0.004467  0  3.91663  0
C  C63  1  0.20592103  0.66691549  0.65211588  1  -0.14042  0  -0.01429  0.004489  0  3.916601  0
C  C64  1  0.20185177  0.59454197  0.26585994  1  -0.032422  0  -0.078025  -0.174655  0  3.950709  0
C  C65  1  0.79815284  0.40546030  0.73413875  1  -0.032631  0  -0.077935  -0.174569  0  3.950635  0
C  C66  1  0.79518438  0.88249828  0.34463865  1  -0.008166  0  -0.020903  -0.115347  0  3.998732  0
C  C67  1  0.20481899  0.11750063  0.65536105  1  -0.00826  0  -0.020927  -0.115397  0  3.998802  0
C  C68  1  0.88802156  0.59952608  0.01789455  1  -0.006507  0  -0.081959  -0.088331  0  3.968927  0
C  C69  1  0.11198196  0.40047015  0.98210666  1  -0.006343  0  -0.081951  -0.088229  0  3.969022  0
C  C70  1  0.71534004  0.62773133  0.03255255  1  -0.063872  0  -0.085419  -0.092315  0  3.985671  0
C  C71  1  0.28466492  0.37226489  0.96744658  1  -0.063939  0  -0.085348  -0.092165  0  3.98552  0
C  C72  1  0.70565367  0.29142686  0.36976993  1  -0.056634  0  -0.123661  -0.172679  0  3.981526  0
C  C73  1  0.29434471  0.70857138  0.63023742  1  -0.056105  0  -0.123684  -0.172694  0  3.981522  0
C  C74  1  0.79496605  0.78269067  0.34156149  1  1.60633  0  0.214273  0.600125  0  4.199552  0
C  C75  1  0.20502149  0.21730884  0.65843931  1  1.606084  0  0.214124  0.599911  0  4.200003  0
C  C76  1  0.88251322  0.28635645  0.32592083  1  -0.006325  0  -0.117984  -0.160228  0  3.951735  0
C  C77  1  0.11748497  0.71364512  0.67407838  1  -0.006375  0  -0.117982  -0.160306  0  3.951732  0
C  C78  1  0.79505210  0.15343891  0.35167430  1  0.086573  0  -0.064148  -0.080775  0  4.15499  0
C  C79  1  0.20494984  0.84655999  0.64832353  1  0.086492  0  -0.064135  -0.0808  0  4.155071  0
C  C80  1  0.79545875  0.06076741  0.35072755  1  0.819821  0  0.211885  0.287201  0  3.93881  0
C  C81  1  0.20454530  0.93923216  0.64926745  1  0.819575  0  0.211863  0.287162  0  3.938809  0
C  C82  1  0.70923618  0.93127678  0.36644692  1  0.468161  0  0.039004  0.03369  0  3.862652  0
C  C83  1  0.29076583  0.06872078  0.63355299  1  0.468269  0  0.038975  0.033644  0  3.862825  0
C  C84  1  0.88122695  0.92631560  0.32596302  1  0.43261  0  0.04336  0.038033  0  3.858167  0
C  C85  1  0.11877499  0.07368330  0.67403678  1  0.432605  0  0.043438  0.038183  0  3.858169  0
C  C86  1  0.34799371  0.61564451  0.34596307  1  -0.09601  0  0.019617  0.110589  0  3.973586  0
C  C87  1  0.65201162  0.38435777  0.65403754  1  -0.09629  0  0.019651  0.110617  0  3.973222  0
C  C88  1  0.49132690  0.59976270  0.42475980  1  0.493911  0  0.055038  0.096329  0  3.919552  0
C  C89  1  0.50867703  0.40023890  0.57524031  1  0.494017  0  0.055107  0.096529  0  3.919484  0
C  C90  1  0.39221125  0.59632470  0.42536480  1  -0.026511  0  -0.072148  -0.162383  0  3.916604  0
C  C91  1  0.60779340  0.40367690  0.57463526  1  -0.027083  0  -0.072203  -0.162589  0  3.91666  0
C  C92  1  0.40709464  0.63701596  0.26920487  1  -0.024353  0  -0.073367  -0.167305  0  3.939711  0
C  C93  1  0.59290850  0.36298698  0.73079585  1  -0.024057  0  -0.07335  -0.167233  0  3.939551  0
C  C94  1  0.50571583  0.63775115  0.27389776  1  0.49112  0  0.058888  0.104245  0  3.921116  0
C  C95  1  0.49428731  0.36225178  0.72610165  1  0.490872  0  0.058841  0.104093  0  3.921141  0
C  C96  1  0.78998282  0.61536484  0.61409207  1  -0.08332  0  -0.021418  -0.142198  0  3.975497  0
C  C97  1  0.21001832  0.38463540  0.38590770  1  -0.08334  0  -0.021413  -0.142263  0  3.975553  0
C  C98  1  0.70620467  0.61835795  0.67092024  1  0.545669  0  0.06484  0.118546  0  3.97414  0
C  C99  1  0.29379711  0.38164364  0.32908003  1  0.545772  0  0.064885  0.11863  0  3.973934  0
C  C100  1  0.87648833  0.61888284  0.65383650  1  0.565195  0  0.067616  0.121233  0  3.941657  0
C  C101  1  0.12351269  0.38111942  0.34616311  1  0.565233  0  0.067621  0.121283  0  3.94165  0
C  C102  1  0.79515784  0.62080460  0.79034774  1  1.058194  0  0.242485  0.329698  0  4.018566  0
C  C103  1  0.20484323  0.37919698  0.20965258  1  1.058083  0  0.242535  0.329754  0  4.018475  0
C  C104  1  0.71273059  0.62978444  0.94137133  1  0.005191  0  -0.085466  -0.1072  0  3.975069  0
C  C105  1  0.28727130  0.37021513  0.05862842  1  0.005175  0  -0.085463  -0.107275  0  3.975069  0
C  C106  1  0.88597260  0.60210926  0.92647432  1  -0.084326  0  -0.083768  -0.110961  0  3.967656  0
C  C107  1  0.11403013  0.39788830  0.07352422  1  -0.084317  0  -0.083796  -0.111028  0  3.967754  0
C  C108  1  0.70477993  0.19750563  0.37242124  1  -0.030806  0  -0.132501  -0.047027  0  4.12187  0
C  C109  1  0.29522053  0.80249394  0.62757928  1  -0.03073  0  -0.132487  -0.04698  0  4.121788  0
C  C110  1  0.88422906  0.19238111  0.32743117  1  -0.056496  0  -0.129175  -0.045395  0  4.117422  0
C  C111  1  0.11577223  0.80761645  0.67256944  1  -0.056373  0  -0.129195  -0.04536  0  4.117371  0
N  N112  1  0.04430414  0.60471061  0.33933775  1  -1.245173  0  -0.322319  -0.204969  0  3.520538  0
N  N113  1  0.95569919  0.39528897  0.66066125  1  -1.245159  0  -0.322329  -0.204937  0  3.520487  0
N  N114  1  0.54725254  0.61944357  0.35038723  1  -1.233611  0  -0.320719  -0.197387  0  3.524564  0
N  N115  1  0.45275199  0.38056005  0.64961268  1  -1.233667  0  -0.320775  -0.197441  0  3.524619  0
N  N116  1  0.88149175  0.01663128  0.32832243  1  -1.114388  0  -0.330713  -0.099249  0  3.805006  0
N  N117  1  0.11850954  0.98336627  0.67167753  1  -1.11449  0  -0.330709  -0.099265  0  3.804936  0
N  N118  1  0.70773401  0.62025837  0.75824314  1  -1.184291  0  -0.319236  -0.344025  0  3.277802  0
N  N119  1  0.29226634  0.37974321  0.24175723  1  -1.184181  0  -0.319307  -0.344113  0  3.277677  0
N  N120  1  0.70940931  0.02141938  0.36996325  1  -1.131736  0  -0.331415  -0.092168  0  3.801886  0
N  N121  1  0.29059331  0.97858019  0.63003383  1  -1.131463  0  -0.331344  -0.092081  0  3.801917  0
N  N122  1  0.87984650  0.62246216  0.74086502  1  -1.220268  0  -0.310551  -0.329934  0  3.275634  0
N  N123  1  0.12015238  0.37754009  0.25913475  1  -1.220246  0  -0.310541  -0.32995  0  3.27558  0
O  O124  1  0.72481506  0.62230996  0.21507915  1  -1.17689  0  -0.316663  -0.558604  0  2.343144  0
O  O125  1  0.27517517  0.37769290  0.78491594  1  -1.17703  0  -0.316667  -0.558585  0  2.343394  0
O  O126  1  0.70495837  0.60399884  0.48772187  1  -1.167548  0  -0.316364  -0.553519  0  2.320674  0
O  O127  1  0.29503918  0.39600140  0.51228078  1  -1.167557  0  -0.316474  -0.553636  0  2.320785  0
O  O128  1  0.86783448  0.60775706  0.47180706  1  -1.173487  0  -0.309538  -0.550428  0  2.348568  0
O  O129  1  0.13216286  0.39223444  0.52819169  1  -1.173514  0  -0.30947  -0.550372  0  2.348801  0
O  O130  1  0.88728961  0.60269947  0.20160456  1  -1.160377  0  -0.313912  -0.53983  0  2.316592  0
O  O131  1  0.11270117  0.39730612  0.79840080  1  -1.160419  0  -0.313921  -0.539826  0  2.316566  0
O  O132  1  0.71302658  0.47665430  0.35487889  1  -1.175002  0  -0.321519  -0.552513  0  2.345508  0
O  O133  1  0.28696482  0.52334055  0.64512660  1  -1.175038  0  -0.321506  -0.552443  0  2.345698  0
O  O134  1  0.87584613  0.74148777  0.32671697  1  -1.162377  0  -0.315761  -0.544482  0  2.310201  0
O  O135  1  0.12414976  0.25850373  0.67328582  1  -1.162615  0  -0.31558  -0.544167  0  2.310643  0
O  O136  1  0.87594012  0.46833933  0.34581870  1  -1.161616  0  -0.31336  -0.536936  0  2.345916  0
O  O137  1  0.12405461  0.53166020  0.65417895  1  -1.161058  0  -0.313395  -0.537018  0  2.345901  0
O  O138  1  0.71337578  0.74809970  0.35459521  1  -1.163213  0  -0.319903  -0.546236  0  2.318698  0
O  O139  1  0.28661788  0.25190588  0.64540403  1  -1.163098  0  -0.319908  -0.546258  0  2.318628  0
