# generated using pymatgen
data_CdH22C21(N3O2)2
_symmetry_space_group_name_H-M   'P 1'
_cell_length_a   11.16901494
_cell_length_b   12.08229305
_cell_length_c   12.24940000
_cell_angle_alpha   60.30430089
_cell_angle_beta   76.97003443
_cell_angle_gamma   70.37603265
_symmetry_Int_Tables_number   1
_chemical_formula_structural   CdH22C21(N3O2)2
_chemical_formula_sum   'Cd2 H44 C42 N12 O8'
_cell_volume   1348.99578158
_cell_formula_units_Z   2
loop_
 _symmetry_equiv_pos_site_id
 _symmetry_equiv_pos_as_xyz
  1  'x, y, z'
loop_
 _atom_site_type_symbol
 _atom_site_label
 _atom_site_symmetry_multiplicity
 _atom_site_fract_x
 _atom_site_fract_y
 _atom_site_fract_z
 _atom_site_occupancy
 _atom_site_hle17_bader_spin_density
 _atom_site_hle17_ddec_charge
 _atom_site_hle17_ddec_spin_density
 _atom_site_hle17_ddec_sum_bond_order
 _atom_site_hle17_magmom
 _atom_site_hse06_10hf_bader_spin_density
 _atom_site_hse06_10hf_ddec_charge
 _atom_site_hse06_10hf_ddec_spin_density
 _atom_site_hse06_10hf_ddec_sum_bond_order
 _atom_site_hse06_10hf_magmom
 _atom_site_hse06_bader_spin_density
 _atom_site_hse06_ddec_charge
 _atom_site_hse06_ddec_spin_density
 _atom_site_hse06_ddec_sum_bond_order
 _atom_site_hse06_magmom
 _atom_site_pbe_bader_charge
 _atom_site_pbe_bader_spin_density
 _atom_site_pbe_cm5_charge
 _atom_site_pbe_ddec_charge
 _atom_site_pbe_ddec_spin_density
 _atom_site_pbe_ddec_sum_bond_order
 _atom_site_pbe_magmom
Cd  Cd0  1  0.23764167  0.29176809  0.24067076  1  0  1.076264  0  1.756509  0  0  0.877638  0  2.209443  0  0  0.934436  0  2.158727  0  1.250742  0  0.761894  0.836342  0  2.244674  0
Cd  Cd1  1  0.76235785  0.70823143  0.75932859  1  0  1.076276  0  1.756503  0  0  0.877644  0  2.209447  0  0  0.934442  0  2.158731  0  1.250778  0  0.761891  0.83635  0  2.24468  0
H  H2  1  0.80318368  0.18967312  0.99231947  1  0  0.124139  0  0.985198  0  0  0.131341  0  1.051678  0  0  0.135572  0  1.048737  0  0.16673  0  0.107086  0.128219  0  1.053916  0
H  H3  1  0.19681675  0.81032640  0.00768051  1  0  0.124127  0  0.985201  0  0  0.131334  0  1.051676  0  0  0.135564  0  1.048737  0  0.166735  0  0.107071  0.128212  0  1.053914  0
H  H4  1  0.78072980  0.78630231  0.19521066  1  0  0.088031  0  0.968719  0  0  0.097249  0  1.036801  0  0  0.100032  0  1.035663  0  0.052349  0  0.099166  0.095235  0  1.037802  0
H  H5  1  0.21927038  0.21369820  0.80478807  1  0  0.088049  0  0.968703  0  0  0.097248  0  1.036804  0  0  0.100032  0  1.035666  0  0.052352  0  0.099173  0.095234  0  1.037804  0
H  H6  1  0.03334148  0.90646623  0.30782297  1  0  0.110222  0  0.94363  0  0  0.124318  0  0.99834  0  0  0.127463  0  0.996696  0  0.082407  0  0.111338  0.121925  0  0.999887  0
H  H7  1  0.96665778  0.09353428  0.69217432  1  0  0.11023  0  0.943576  0  0  0.124312  0  0.9983  0  0  0.127459  0  0.996656  0  0.082379  0  0.111346  0.12192  0  0.999846  0
H  H8  1  0.05941243  0.08031579  0.30468022  1  0  0.110728  0  0.938268  0  0  0.119606  0  1.001189  0  0  0.123122  0  0.996156  0  0.178063  0  0.139312  0.116951  0  1.005015  0
H  H9  1  0.94058708  0.91968373  0.69531994  1  0  0.110703  0  0.938275  0  0  0.119609  0  1.00117  0  0  0.123126  0  0.996133  0  0.178082  0  0.139306  0.116943  0  1.005008  0
H  H10  1  0.08532506  0.42289077  0.96566352  1  0  0.107224  0  0.955914  0  0  0.113978  0  1.019934  0  0  0.116624  0  1.018956  0  0.128666  0  0.117223  0.112316  0  1.020136  0
H  H11  1  0.91467512  0.57710974  0.03433603  1  0  0.107214  0  0.955945  0  0  0.11397  0  1.019961  0  0  0.116617  0  1.018981  0  0.128673  0  0.117218  0.112309  0  1.020166  0
H  H12  1  0.94565634  0.29394878  0.92897175  1  0  0.116217  0  0.982948  0  0  0.12295  0  1.049385  0  0  0.125159  0  1.049187  0  0.15379  0  0.121357  0.121334  0  1.049613  0
H  H13  1  0.05434384  0.70605173  0.07102698  1  0  0.116218  0  0.982946  0  0  0.122952  0  1.049384  0  0  0.125156  0  1.049199  0  0.153826  0  0.12137  0.121337  0  1.049611  0
H  H14  1  0.67122173  0.12000287  0.92312535  1  0  0.094004  0  0.907401  0  0  0.11163  0  0.962178  0  0  0.112814  0  0.961124  0  0.076053  0  0.120736  0.110636  0  0.963192  0
H  H15  1  0.32877753  0.87999764  0.07687357  1  0  0.094041  0  0.907394  0  0  0.111673  0  0.962171  0  0  0.112861  0  0.96112  0  0.076062  0  0.120747  0.110678  0  0.963185  0
H  H16  1  0.68245454  0.94941298  0.98263674  1  0  0.094141  0  0.92254  0  0  0.106468  0  0.986067  0  0  0.107427  0  0.986103  0  0.087181  0  0.114333  0.105806  0  0.986177  0
H  H17  1  0.31754564  0.05058754  0.01736199  1  0  0.09419  0  0.922479  0  0  0.106523  0  0.985999  0  0  0.107486  0  0.986038  0  0.087193  0  0.114361  0.105861  0  0.986108  0
H  H18  1  0.49450540  0.25382497  0.01844035  1  0  0.112104  0  0.930409  0  0  0.119417  0  0.99502  0  0  0.122691  0  0.990808  0  0.196968  0  0.13926  0.116972  0  0.998049  0
H  H19  1  0.50549437  0.74617356  0.98155943  1  0  0.112084  0  0.930417  0  0  0.119398  0  0.995029  0  0  0.122672  0  0.990817  0  0.197188  0  0.139251  0.116953  0  0.998058  0
H  H20  1  0.34783647  0.95396208  0.32720771  1  0  0.110491  0  0.955047  0  0  0.120994  0  1.010532  0  0  0.123774  0  1.009149  0  0.135013  0  0.117604  0.11879  0  1.011937  0
H  H21  1  0.65216631  0.04603547  0.67279276  1  0  0.110461  0  0.955138  0  0  0.120962  0  1.010619  0  0  0.123741  0  1.009239  0  0.134982  0  0.117592  0.118759  0  1.012023  0
H  H22  1  0.55465493  0.83764276  0.20632451  1  0  0.108185  0  0.947642  0  0  0.123085  0  0.999446  0  0  0.125814  0  0.998037  0  0.084377  0  0.122583  0.121078  0  1.000598  0
H  H23  1  0.44534642  0.16235676  0.79367447  1  0  0.108203  0  0.947636  0  0  0.123103  0  0.999437  0  0  0.125833  0  0.998027  0  0.084395  0  0.122594  0.121097  0  1.000588  0
H  H24  1  0.01724099  0.68783951  0.42486068  1  0  0.082207  0  0.937771  0  0  0.094872  0  1.002171  0  0  0.095425  0  1.002591  0  0.085749  0  0.112279  0.094421  0  1.001941  0
H  H25  1  0.98275986  0.31216199  0.57513825  1  0  0.082197  0  0.937784  0  0  0.094862  0  1.00219  0  0  0.095414  0  1.002611  0  0.08574  0  0.112269  0.094411  0  1.001961  0
H  H26  1  0.85250075  0.69863227  0.45049308  1  0  0.107752  0  0.920209  0  0  0.120858  0  0.982167  0  0  0.12218  0  0.981502  0  0.106675  0  0.12018  0.119895  0  0.982617  0
H  H27  1  0.14749943  0.30136824  0.54950647  1  0  0.107776  0  0.920219  0  0  0.120886  0  0.982167  0  0  0.122212  0  0.981489  0  0.106663  0  0.120189  0.119922  0  0.982622  0
H  H28  1  0.15769110  0.56724775  0.28382218  1  0  0.113202  0  0.934895  0  0  0.12143  0  0.997315  0  0  0.125322  0  0.991993  0  0.170774  0  0.137365  0.118388  0  1.001382  0
H  H29  1  0.84231051  0.43275079  0.71617641  1  0  0.113156  0  0.934883  0  0  0.121386  0  0.997307  0  0  0.125277  0  0.991985  0  0.170781  0  0.137365  0.118343  0  1.001377  0
H  H30  1  0.90193702  0.35888318  0.32413304  1  0  0.108335  0  0.940389  0  0  0.119128  0  0.995428  0  0  0.121675  0  0.994243  0  0.097355  0  0.121256  0.11727  0  0.996356  0
H  H31  1  0.09805898  0.64111930  0.67586967  1  0  0.108308  0  0.940387  0  0  0.119096  0  0.995433  0  0  0.121643  0  0.994246  0  0.097257  0  0.121244  0.117238  0  0.996361  0
H  H32  1  0.77352877  0.55198098  0.40420957  1  0  0.120314  0  0.935878  0  0  0.134903  0  0.985098  0  0  0.137697  0  0.984001  0  0.085329  0  0.12944  0.132849  0  0.986077  0
H  H33  1  0.22647024  0.44802052  0.59579382  1  0  0.120325  0  0.935832  0  0  0.134912  0  0.985059  0  0  0.137707  0  0.983961  0  0.085353  0  0.129466  0.132858  0  0.986038  0
H  H34  1  0.43257403  0.91894366  0.58096450  1  0  0.14614  0  0.937918  0  0  0.166523  0  0.994908  0  0  0.169064  0  0.994228  0  0.077506  0  0.098763  0.164696  0  0.995509  0
H  H35  1  0.56742431  0.08105685  0.41903298  1  0  0.146125  0  0.937918  0  0  0.166505  0  0.994916  0  0  0.169047  0  0.994236  0  0.077509  0  0.098752  0.164679  0  0.995517  0
H  H36  1  0.27904379  0.90859060  0.65999644  1  0  0.117921  0  0.963668  0  0  0.134919  0  1.026493  0  0  0.136965  0  1.026129  0  0.036981  0  0.084177  0.13326  0  1.027293  0
H  H37  1  0.72095664  0.09140892  0.34000191  1  0  0.11794  0  0.96365  0  0  0.134938  0  1.026471  0  0  0.136985  0  1.026106  0  0.037141  0  0.084185  0.133279  0  1.027271  0
H  H38  1  0.35941825  0.01342598  0.66312730  1  0  0.122648  0  0.972723  0  0  0.137214  0  1.040444  0  0  0.139012  0  1.041887  0  0.050971  0  0.084352  0.135969  0  1.039499  0
H  H39  1  0.64058034  0.98657354  0.33687469  1  0  0.12261  0  0.972792  0  0  0.137186  0  1.040506  0  0  0.138985  0  1.04195  0  0.05097  0  0.084334  0.13594  0  1.039562  0
H  H40  1  0.36245682  0.72795838  0.86909842  1  0  0.1143  0  0.980734  0  0  0.131119  0  1.047461  0  0  0.132808  0  1.048042  0  0.02393  0  0.083045  0.129719  0  1.047662  0
H  H41  1  0.63754386  0.27204016  0.13090281  1  0  0.114255  0  0.98076  0  0  0.131088  0  1.047483  0  0  0.132776  0  1.048067  0  0.023887  0  0.083026  0.129688  0  1.047685  0
H  H42  1  0.29018788  0.64035355  0.83154584  1  0  0.120629  0  0.94152  0  0  0.140046  0  1.000398  0  0  0.142997  0  0.998662  0  0.032187  0  0.088168  0.137996  0  1.001686  0
H  H43  1  0.70981297  0.35964795  0.16845472  1  0  0.120632  0  0.941459  0  0  0.140049  0  1.000348  0  0  0.143001  0  0.99861  0  0.032181  0  0.088173  0.137999  0  1.001636  0
H  H44  1  0.45163003  0.57541420  0.86700182  1  0  0.139118  0  0.945862  0  0  0.160835  0  1.000559  0  0  0.163233  0  0.999674  0  0.055845  0  0.096275  0.159056  0  1.00134  0
H  H45  1  0.54837015  0.42458631  0.13299936  1  0  0.139112  0  0.945873  0  0  0.160831  0  1.00057  0  0  0.163233  0  0.999681  0  0.055835  0  0.096276  0.159052  0  1.001351  0
C  C46  1  0.92941567  0.05675116  0.14398478  1  0  0.202338  0  3.796269  0  0  0.196068  0  4.045107  0  0  0.202623  0  4.067951  0  0.296139  0  0.10185  0.191621  0  4.029585  0
C  C47  1  0.07058384  0.94324837  0.85601702  1  0  0.202398  0  3.796158  0  0  0.196103  0  4.04503  0  0  0.202658  0  4.067873  0  0.295949  0  0.101847  0.191654  0  4.029509  0
C  C48  1  0.83793703  0.08820558  0.06470897  1  0  -0.196453  0  3.68049  0  0  -0.226998  0  3.93119  0  0  -0.232664  0  3.951412  0  -0.024018  0  -0.089175  -0.22309  0  3.917725  0
C  C49  1  0.16206315  0.91179493  0.93529058  1  0  -0.19642  0  3.680449  0  0  -0.22696  0  3.931154  0  0  -0.232623  0  3.951373  0  -0.023761  0  -0.089122  -0.22305  0  3.917689  0
C  C50  1  0.78480062  0.99020176  0.08377019  1  0  0.0956  0  3.770235  0  0  0.116523  0  4.013144  0  0  0.11736  0  4.036636  0  -0.011033  0  -0.009638  0.116054  0  3.997261  0
C  C51  1  0.21519839  0.00979974  0.91622994  1  0  0.095567  0  3.770267  0  0  0.116493  0  4.013176  0  0  0.117334  0  4.036672  0  -0.011105  0  -0.009639  0.116023  0  3.997293  0
C  C52  1  0.82173179  0.86275176  0.18172613  1  0  -0.170515  0  3.728343  0  0  -0.205127  0  3.984553  0  0  -0.208945  0  4.005413  0  -0.073935  0  -0.095164  -0.203176  0  3.970798  0
C  C53  1  0.17826865  0.13724777  0.81827304  1  0  -0.170489  0  3.728369  0  0  -0.205082  0  3.984561  0  0  -0.208902  0  4.005422  0  -0.07395  0  -0.095159  -0.203132  0  3.970806  0
C  C54  1  0.90811153  0.83354323  0.26473494  1  0  0.101395  0  3.764217  0  0  0.123494  0  4.004832  0  0  0.123943  0  4.029349  0  -0.002477  0  -0.006821  0.123434  0  3.988165  0
C  C55  1  0.09188982  0.16645629  0.73526403  1  0  0.101382  0  3.76421  0  0  0.123498  0  4.004792  0  0  0.123946  0  4.02931  0  -0.002455  0  -0.006839  0.123437  0  3.988125  0
C  C56  1  0.96407955  0.93011881  0.24433972  1  0  -0.197842  0  3.705971  0  0  -0.227024  0  3.951871  0  0  -0.232627  0  3.972947  0  0.004517  0  -0.087225  -0.223378  0  3.937804  0
C  C57  1  0.03591996  0.06988072  0.75565963  1  0  -0.19788  0  3.705851  0  0  -0.227045  0  3.951747  0  0  -0.232651  0  3.972828  0  0.004548  0  -0.087242  -0.223398  0  3.937681  0
C  C58  1  0.04891325  0.15494026  0.20724727  1  0  0.157645  0  3.642489  0  0  0.098271  0  3.904385  0  0  0.111802  0  3.916649  0  0.942036  0  0.142283  0.08925  0  3.896278  0
C  C59  1  0.95108719  0.84505926  0.79275189  1  0  0.157673  0  3.642504  0  0  0.098271  0  3.904386  0  0  0.111802  0  3.916651  0  0.942067  0  0.142273  0.089261  0  3.896284  0
C  C60  1  0.05870698  0.33201343  0.03050377  1  0  0.001598  0  3.74565  0  0  -0.029256  0  4.010581  0  0  -0.027962  0  4.030823  0  0.397571  0  -0.002401  -0.029944  0  3.996319  0
C  C61  1  0.94129136  0.66798708  0.96949534  1  0  0.001614  0  3.745629  0  0  -0.02924  0  4.010556  0  0  -0.027948  0  4.030798  0  0.397114  0  -0.002365  -0.029932  0  3.996299  0
C  C62  1  0.99138923  0.26851964  0.01023226  1  0  -0.052472  0  3.662953  0  0  -0.093083  0  3.921488  0  0  -0.091883  0  3.941873  0  0.276921  0  0.000815  -0.093807  0  3.907411  0
C  C63  1  0.00861095  0.73148087  0.98976647  1  0  -0.05245  0  3.662965  0  0  -0.093067  0  3.921507  0  0  -0.091868  0  3.941889  0  0.276954  0  0.000799  -0.093791  0  3.90743  0
C  C64  1  0.67526784  0.02610004  0.00911859  1  0  -0.046611  0  3.648713  0  0  -0.115614  0  3.901151  0  0  -0.110785  0  3.910243  0  0.293274  0  -0.044474  -0.118901  0  3.895136  0
C  C65  1  0.32473259  0.97389949  0.99088057  1  0  -0.046694  0  3.648679  0  0  -0.115727  0  3.901161  0  0  -0.110917  0  3.910277  0  0.293284  0  -0.044505  -0.119013  0  3.895146  0
C  C66  1  0.48083912  0.15705376  0.08630222  1  0  0.153921  0  3.649023  0  0  0.094896  0  3.91738  0  0  0.108447  0  3.92947  0  0.936968  0  0.141186  0.086341  0  3.908815  0
C  C67  1  0.51916156  0.84294478  0.91369819  1  0  0.153984  0  3.649167  0  0  0.094957  0  3.917523  0  0  0.108508  0  3.929613  0  0.93676  0  0.141218  0.086401  0  3.908959  0
C  C68  1  0.40916484  0.99816170  0.24455208  1  0  -0.001208  0  3.77153  0  0  -0.031957  0  4.034869  0  0  -0.030299  0  4.055824  0  0.430571  0  -0.002349  -0.033106  0  4.020865  0
C  C69  1  0.59083794  0.00183585  0.75544757  1  0  -0.00123  0  3.77152  0  0  -0.031976  0  4.034863  0  0  -0.030318  0  4.055818  0  0.430576  0  -0.002379  -0.033125  0  4.020858  0
C  C70  1  0.51094033  0.93982666  0.18642070  1  0  -0.08493  0  3.719644  0  0  -0.126183  0  3.984648  0  0  -0.125253  0  4.003738  0  0.28101  0  -0.007138  -0.126598  0  3.971713  0
C  C71  1  0.48906102  0.06017287  0.81357827  1  0  -0.084915  0  3.719605  0  0  -0.126168  0  3.984605  0  0  -0.125237  0  4.003691  0  0.281044  0  -0.007123  -0.126584  0  3.97167  0
C  C72  1  0.93466254  0.70171210  0.38068623  1  0  -0.051113  0  3.644658  0  0  -0.115725  0  3.889794  0  0  -0.112024  0  3.900949  0  0.291103  0  -0.045787  -0.118036  0  3.882069  0
C  C73  1  0.06533764  0.29828841  0.61931332  1  0  -0.051116  0  3.644676  0  0  -0.115742  0  3.889815  0  0  -0.112035  0  3.900967  0  0.291117  0  -0.045783  -0.118055  0  3.882092  0
C  C74  1  0.07138598  0.53451376  0.30850013  1  0  0.153456  0  3.65627  0  0  0.092621  0  3.927391  0  0  0.106026  0  3.939029  0  0.964371  0  0.141017  0.084113  0  3.919158  0
C  C75  1  0.92861395  0.46548774  0.69149899  1  0  0.153551  0  3.656129  0  0  0.092713  0  3.927256  0  0  0.10612  0  3.938894  0  0.964397  0  0.141014  0.084204  0  3.919023  0
C  C76  1  0.93582185  0.43105722  0.32802916  1  0  -0.001305  0  3.781211  0  0  -0.033879  0  4.049463  0  0  -0.031536  0  4.069349  0  0.416197  0  -0.000146  -0.035523  0  4.036041  0
C  C77  1  0.06417741  0.56894329  0.67197384  1  0  -0.001344  0  3.781141  0  0  -0.033902  0  4.049387  0  0  -0.031559  0  4.069273  0  0.416018  0  -0.000144  -0.035546  0  4.035965  0
C  C78  1  0.87092048  0.52574162  0.36748582  1  0  -0.093105  0  3.711233  0  0  -0.133083  0  3.9726  0  0  -0.132294  0  3.991436  0  0.325847  0  -0.004636  -0.133601  0  3.960096  0
C  C79  1  0.12907919  0.47426087  0.63251695  1  0  -0.0931  0  3.711253  0  0  -0.133081  0  3.972626  0  0  -0.132293  0  3.991465  0  0.326054  0  -0.004679  -0.1336  0  3.960122  0
C  C80  1  0.34021699  0.97562170  0.60569675  1  0  -0.451357  0  3.666005  0  0  -0.521671  0  3.893264  0  0  -0.529931  0  3.89806  0  -0.093155  0  -0.255729  -0.515919  0  3.890157  0
C  C81  1  0.65978253  0.02437782  0.39430342  1  0  -0.451318  0  3.666045  0  0  -0.521645  0  3.893284  0  0  -0.529908  0  3.898081  0  -0.093391  0  -0.255711  -0.515893  0  3.890177  0
C  C82  1  0.28173555  0.08743290  0.48539622  1  0  0.726121  0  3.87389  0  0  0.691293  0  4.16283  0  0  0.724617  0  4.157116  0  1.531431  0  0.181903  0.668733  0  4.165334  0
C  C83  1  0.71826371  0.91256761  0.51460515  1  0  0.726141  0  3.873853  0  0  0.691328  0  4.162768  0  0  0.724653  0  4.157053  0  1.531363  0  0.181909  0.668768  0  4.165274  0
C  C84  1  0.35779071  0.62997677  0.89094993  1  0  -0.454219  0  3.673588  0  0  -0.525853  0  3.901243  0  0  -0.533011  0  3.904409  0  -0.077471  0  -0.255558  -0.520822  0  3.899203  0
C  C85  1  0.64220972  0.37002276  0.10905168  1  0  -0.454168  0  3.673546  0  0  -0.52583  0  3.901194  0  0  -0.532997  0  3.904369  0  -0.077422  0  -0.255551  -0.520797  0  3.89915  0
C  C86  1  0.31744500  0.55124980  0.02918420  1  0  0.735818  0  3.896177  0  0  0.696977  0  4.195966  0  0  0.730246  0  4.189694  0  1.586906  0  0.18944  0.674352  0  4.199103  0
C  C87  1  0.68255452  0.44874972  0.97081597  1  0  0.735804  0  3.896233  0  0  0.696992  0  4.195981  0  0  0.73026  0  4.189709  0  1.586904  0  0.189417  0.674368  0  4.199117  0
N  N88  1  0.98614682  0.15511317  0.12289855  1  0  -0.094855  0  3.592786  0  0  -0.004372  0  3.801107  0  0  -0.019732  0  3.826886  0  -1.260975  0  -0.22542  0.006064  0  3.783361  0
N  N89  1  0.01385361  0.84488635  0.87710061  1  0  -0.094885  0  3.592852  0  0  -0.004395  0  3.80119  0  0  -0.019755  0  3.82697  0  -1.260977  0  -0.22542  0.006043  0  3.783439  0
N  N90  1  0.09310983  0.26062788  0.15336572  1  0  -0.363062  0  3.258566  0  0  -0.292193  0  3.540631  0  0  -0.311696  0  3.558247  0  -1.20476  0  -0.350176  -0.278937  0  3.52842  0
N  N91  1  0.90688969  0.73937165  0.84663363  1  0  -0.363092  0  3.258615  0  0  -0.292216  0  3.540683  0  0  -0.311718  0  3.5583  0  -1.204403  0  -0.350196  -0.278959  0  3.528468  0
N  N92  1  0.55504050  0.04180452  0.08543778  1  0  -0.0741  0  3.580842  0  0  0.018328  0  3.805885  0  0  0.003208  0  3.8329  0  -1.223707  0  -0.247894  0.028416  0  3.787335  0
N  N93  1  0.44496111  0.95819401  0.91456163  1  0  -0.074109  0  3.580884  0  0  0.01833  0  3.805939  0  0  0.003214  0  3.832959  0  -1.223667  0  -0.247888  0.028418  0  3.787388  0
N  N94  1  0.39158841  0.13320950  0.18121856  1  0  -0.366365  0  3.221379  0  0  -0.29708  0  3.500055  0  0  -0.317113  0  3.518621  0  -1.206905  0  -0.347603  -0.283322  0  3.487126  0
N  N95  1  0.60841161  0.86678805  0.81878165  1  0  -0.366409  0  3.221449  0  0  -0.297129  0  3.500142  0  0  -0.317163  0  3.518707  0  -1.207063  0  -0.347643  -0.283371  0  3.487215  0
N  N96  1  0.95857011  0.59010294  0.35498391  1  0  -0.062151  0  3.597031  0  0  0.030575  0  3.820173  0  0  0.015969  0  3.847279  0  -1.235336  0  -0.246745  0.040211  0  3.801557  0
N  N97  1  0.04143074  0.40989856  0.64501665  1  0  -0.062189  0  3.596982  0  0  0.030538  0  3.820128  0  0  0.015929  0  3.847235  0  -1.235246  0  -0.246736  0.040176  0  3.801513  0
N  N98  1  0.06028238  0.43787001  0.29183653  1  0  -0.370303  0  3.239134  0  0  -0.300391  0  3.525981  0  0  -0.320136  0  3.542605  0  -1.213846  0  -0.348788  -0.286807  0  3.514031  0
N  N99  1  0.93971571  0.56213149  0.70816378  1  0  -0.37027  0  3.238957  0  0  -0.300362  0  3.525816  0  0  -0.320108  0  3.542438  0  -1.213912  0  -0.348766  -0.286776  0  3.513864  0
O  O100  1  0.20163242  0.07302477  0.43795008  1  0  -0.682577  0  1.853792  0  0  -0.632867  0  2.072709  0  0  -0.658399  0  2.062008  0  -1.195315  0  -0.365155  -0.614494  0  2.079042  0
O  O101  1  0.79836526  0.92697475  0.56205292  1  0  -0.682573  0  1.853822  0  0  -0.632866  0  2.072732  0  0  -0.658398  0  2.062027  0  -1.195306  0  -0.365158  -0.614499  0  2.079073  0
O  O102  1  0.32079999  0.19310076  0.43297530  1  0  -0.684525  0  1.894556  0  0  -0.61899  0  2.125262  0  0  -0.647685  0  2.112896  0  -1.168322  0  -0.363903  -0.59855  0  2.13325  0
O  O103  1  0.67919743  0.80689975  0.56702482  1  0  -0.68456  0  1.894512  0  0  -0.619034  0  2.125208  0  0  -0.647728  0  2.112844  0  -1.168183  0  -0.363909  -0.598593  0  2.133196  0
O  O104  1  0.30846979  0.43650449  0.05690865  1  0  -0.689142  0  1.988263  0  0  -0.617586  0  2.245214  0  0  -0.648494  0  2.233389  0  -1.181573  0  -0.360019  -0.595188  0  2.252293  0
O  O105  1  0.69153064  0.56349503  0.94309133  1  0  -0.689138  0  1.988281  0  0  -0.617579  0  2.245208  0  0  -0.648486  0  2.233386  0  -1.181556  0  -0.36001  -0.595178  0  2.25228  0
O  O106  1  0.29643058  0.59894524  0.10501464  1  0  -0.684001  0  1.855346  0  0  -0.640636  0  2.071067  0  0  -0.663076  0  2.059759  0  -1.217708  0  -0.363735  -0.624515  0  2.078325  0
O  O107  1  0.70356960  0.40105527  0.89498572  1  0  -0.683996  0  1.855385  0  0  -0.640644  0  2.071093  0  0  -0.663085  0  2.059783  0  -1.217683  0  -0.363713  -0.624524  0  2.078349  0
