# generated using pymatgen
data_ZnH18C28N3O4
_symmetry_space_group_name_H-M   'P 1'
_cell_length_a   10.23375138
_cell_length_b   11.38859152
_cell_length_c   12.89924857
_cell_angle_alpha   104.82872422
_cell_angle_beta   96.63570299
_cell_angle_gamma   111.72393634
_symmetry_Int_Tables_number   1
_chemical_formula_structural   ZnH18C28N3O4
_chemical_formula_sum   'Zn2 H36 C56 N6 O8'
_cell_volume   1312.55957986
_cell_formula_units_Z   2
loop_
 _symmetry_equiv_pos_site_id
 _symmetry_equiv_pos_as_xyz
  1  'x, y, z'
loop_
 _atom_site_type_symbol
 _atom_site_label
 _atom_site_symmetry_multiplicity
 _atom_site_fract_x
 _atom_site_fract_y
 _atom_site_fract_z
 _atom_site_occupancy
 _atom_site_pbe_bader_charge
 _atom_site_pbe_bader_spin_density
 _atom_site_pbe_cm5_charge
 _atom_site_pbe_ddec_charge
 _atom_site_pbe_ddec_spin_density
 _atom_site_pbe_ddec_sum_bond_order
 _atom_site_pbe_magmom
Zn  Zn0  1  0.63987944  0.55672676  0.90458817  1  1.319902  0  0.679355  0.815488  0  2.356531  0
Zn  Zn1  1  0.36012007  0.44326706  0.09540883  1  1.319808  0  0.679367  0.815534  0  2.356459  0
H  H2  1  0.86049553  0.46668702  0.99050824  1  0.107008  0  0.12078  0.094045  0  1.011214  0
H  H3  1  0.13950794  0.53330239  0.00948212  1  0.10692  0  0.12082  0.094067  0  1.011132  0
H  H4  1  0.43002583  0.25932495  0.82591597  1  0.12584  0  0.118721  0.091013  0  1.014545  0
H  H5  1  0.56997784  0.74067769  0.17408000  1  0.125897  0  0.118692  0.091005  0  1.014571  0
H  H6  1  0.19123756  0.70688628  0.26397266  1  0.072975  0  0.100076  0.111974  0  1.023991  0
H  H7  1  0.80876382  0.29311158  0.73602606  1  0.07305  0  0.100066  0.111938  0  1.023996  0
H  H8  1  0.70996279  0.59198265  0.36593148  1  0.040399  0  0.103347  0.111288  0  1.000469  0
H  H9  1  0.29003910  0.40801189  0.63406124  1  0.040222  0  0.103398  0.111336  0  1.000522  0
H  H10  1  0.88542248  0.25993228  0.99664141  1  0.158314  0  0.110372  0.13267  0  1.050596  0
H  H11  1  0.11457471  0.74005651  0.00335363  1  0.158435  0  0.110365  0.132676  0  1.05061  0
H  H12  1  0.96854710  0.66602345  0.13051744  1  0.088282  0  0.100901  0.105723  0  1.033937  0
H  H13  1  0.03146266  0.33396897  0.86947568  1  0.088376  0  0.100934  0.105788  0  1.033934  0
H  H14  1  0.43275939  0.04159229  0.82299321  1  0.079994  0  0.1071  0.111002  0  1.014417  0
H  H15  1  0.56723376  0.95840276  0.17700570  1  0.080067  0  0.107123  0.111033  0  1.014437  0
H  H16  1  0.13427380  0.67361118  0.83061945  1  0.057942  0  0.095674  0.09271  0  1.051571  0
H  H17  1  0.86572306  0.32639181  0.16938056  1  0.057968  0  0.095657  0.092667  0  1.051471  0
H  H18  1  0.76425302  0.60442001  0.58953663  1  0.096269  0  0.103219  0.110787  0  0.999031  0
H  H19  1  0.23575020  0.39558179  0.41046225  1  0.096237  0  0.103223  0.110793  0  0.999035  0
H  H20  1  0.33086352  0.65408959  0.40042770  1  0.098678  0  0.115066  0.109732  0  0.996229  0
H  H21  1  0.66914772  0.34592533  0.59957757  1  0.098633  0  0.115049  0.10973  0  0.996151  0
H  H22  1  0.37346660  0.69414555  0.54469605  1  0.067189  0  0.115577  0.101428  0  0.963858  0
H  H23  1  0.62654174  0.30586732  0.45530699  1  0.067218  0  0.115548  0.101428  0  0.96392  0
H  H24  1  0.29203410  0.70950799  0.69955246  1  0.035565  0  0.095153  0.097696  0  1.054784  0
H  H25  1  0.70796193  0.29049360  0.30045807  1  0.035557  0  0.095155  0.097675  0  1.054718  0
H  H26  1  0.29038482  0.94322261  0.58672360  1  0.030756  0  0.102372  0.104533  0  1.009676  0
H  H27  1  0.70961687  0.05678455  0.41328156  1  0.030888  0  0.102382  0.104507  0  1.009686  0
H  H28  1  0.83025240  0.08114399  0.06026418  1  0.130665  0  0.112511  0.124369  0  1.011252  0
H  H29  1  0.16974265  0.91885300  0.93973451  1  0.130628  0  0.112518  0.124377  0  1.01125  0
H  H30  1  0.50652917  0.88705837  0.75234555  1  0.077343  0  0.105219  0.106617  0  1.035531  0
H  H31  1  0.49346113  0.11293715  0.24766092  1  0.077352  0  0.105207  0.106586  0  1.035527  0
H  H32  1  0.43990596  0.17985304  0.60734952  1  0.07381  0  0.103008  0.107362  0  0.998946  0
H  H33  1  0.56010059  0.82015396  0.39265456  1  0.073956  0  0.103013  0.107412  0  0.998816  0
H  H34  1  0.81458367  0.85429431  0.05498411  1  0.127664  0  0.12464  0.105729  0  0.977468  0
H  H35  1  0.18541351  0.14569671  0.94501523  1  0.127585  0  0.124672  0.105735  0  0.977506  0
H  H36  1  0.50287480  0.66858004  0.76295189  1  0.108429  0  0.119541  0.094471  0  1.004053  0
H  H37  1  0.49711590  0.33141609  0.23704775  1  0.108493  0  0.119525  0.094467  0  1.004046  0
C  C38  1  0.69591728  0.58869895  0.15491715  1  1.541144  0  0.209829  0.585078  0  4.211722  0
C  C39  1  0.30408504  0.41129873  0.84507853  1  1.54119  0  0.209901  0.58529  0  4.211709  0
C  C40  1  0.66501809  0.00236670  0.90783728  1  -0.025539  0  0.014036  0.11041  0  3.978578  0
C  C41  1  0.33496982  0.99762571  0.09216603  1  -0.02489  0  0.014123  0.110353  0  3.978524  0
C  C42  1  0.76859846  0.36973576  0.95500790  1  0.460368  0  0.054  0.107209  0  3.913101  0
C  C43  1  0.23140934  0.63025665  0.04498424  1  0.460416  0  0.054009  0.107356  0  3.912959  0
C  C44  1  0.52856548  0.25418762  0.86165327  1  0.461282  0  0.050346  0.100292  0  3.952945  0
C  C45  1  0.47143975  0.74580988  0.13834035  1  0.461102  0  0.050411  0.100293  0  3.953043  0
C  C46  1  0.08783372  0.68388797  0.28721426  1  0.015519  0  -0.10154  -0.175513  0  4.005745  0
C  C47  1  0.91217207  0.31610878  0.71278392  1  0.015359  0  -0.101518  -0.175476  0  4.00574  0
C  C48  1  0.65998578  0.13031465  0.90845314  1  -0.07001  0  0.01301  0.105092  0  3.974372  0
C  C49  1  0.34001669  0.86967930  0.09154729  1  -0.069865  0  0.012982  0.105125  0  3.974292  0
C  C50  1  0.84766779  0.60955890  0.79698503  1  1.540262  0  0.186112  0.555907  0  4.242336  0
C  C51  1  0.15232843  0.39045125  0.20301859  1  1.540438  0  0.18615  0.556146  0  4.242397  0
C  C52  1  0.81587060  0.61924687  0.34634940  1  -0.006496  0  -0.08523  -0.120675  0  3.976061  0
C  C53  1  0.18413553  0.38075473  0.65364663  1  -0.00625  0  -0.085249  -0.120697  0  3.976129  0
C  C54  1  0.82773970  0.62402776  0.24036228  1  -0.033911  0  -0.037558  -0.072798  0  4.027835  0
C  C55  1  0.17226602  0.37597083  0.75963314  1  -0.034079  0  -0.037525  -0.072811  0  4.027937  0
C  C56  1  0.93974543  0.64882409  0.42394394  1  0.014073  0  -0.021767  -0.023825  0  4.051445  0
C  C57  1  0.06025964  0.35118162  0.57605431  1  0.013695  0  -0.021843  -0.02395  0  4.051509  0
C  C58  1  0.07418400  0.67663103  0.39230134  1  0.335622  0  0.102177  0.143179  0  4.003078  0
C  C59  1  0.92581784  0.32336778  0.60769683  1  0.3358  0  0.102178  0.143188  0  4.003089  0
C  C60  1  0.78097628  0.25281461  0.95727336  1  -0.021866  0  -0.078936  -0.173794  0  3.910111  0
C  C61  1  0.21902423  0.74717707  0.04272101  1  -0.021826  0  -0.078923  -0.173887  0  3.909998  0
C  C62  1  0.96365891  0.65950369  0.21285837  1  -0.049003  0  -0.091496  -0.093674  0  3.989634  0
C  C63  1  0.03634588  0.34049290  0.78713658  1  -0.0488  0  -0.09158  -0.093758  0  3.98983  0
C  C64  1  0.53141501  0.13289487  0.86007626  1  0.010285  0  -0.08303  -0.176303  0  3.956847  0
C  C65  1  0.46858261  0.86709701  0.13992096  1  0.010279  0  -0.083061  -0.176275  0  3.957057  0
C  C66  1  0.09012344  0.67069778  0.74870178  1  -0.015824  0  -0.093153  -0.089047  0  4.012691  0
C  C67  1  0.90987779  0.32930841  0.25130394  1  -0.015699  0  -0.093138  -0.08903  0  4.012409  0
C  C68  1  0.94118325  0.63884458  0.71800654  1  -0.015637  0  -0.035528  -0.063614  0  4.016865  0
C  C69  1  0.05881882  0.36116537  0.28199531  1  -0.016212  0  -0.035483  -0.063555  0  4.01677  0
C  C70  1  0.87979716  0.63012424  0.61202998  1  -0.050398  0  -0.08415  -0.11809  0  3.959367  0
C  C71  1  0.12020634  0.36988665  0.38797141  1  -0.049981  0  -0.084136  -0.118129  0  3.959302  0
C  C72  1  0.32768077  0.72123484  0.47767289  1  0.326795  0  -0.043941  -0.10293  0  3.918518  0
C  C73  1  0.67232538  0.27876915  0.52233058  1  0.326728  0  -0.043968  -0.103079  0  3.918719  0
C  C74  1  0.96703459  0.65257378  0.53749385  1  0.00289  0  -0.021432  -0.021852  0  4.046846  0
C  C75  1  0.03296557  0.34743414  0.46250664  1  0.002814  0  -0.02144  -0.021758  0  4.046924  0
C  C76  1  0.41622214  0.86578356  0.48928099  1  0.011221  0  -0.016318  0.081916  0  3.987493  0
C  C77  1  0.58377899  0.13422666  0.51072547  1  0.011058  0  -0.016342  0.08193  0  3.987745  0
C  C78  1  0.11661546  0.68115618  0.56940363  1  0.326045  0  0.096978  0.129589  0  4.031879  0
C  C79  1  0.88338961  0.31885184  0.43060049  1  0.325972  0  0.096916  0.129534  0  4.032112  0
C  C80  1  0.17900675  0.69111482  0.67532976  1  0.002624  0  -0.110221  -0.196642  0  4.050708  0
C  C81  1  0.82099356  0.30888943  0.32467627  1  0.002598  0  -0.110223  -0.196627  0  4.050679  0
C  C82  1  0.38288587  0.96800513  0.54897949  1  -0.022326  0  -0.098123  -0.139085  0  4.007104  0
C  C83  1  0.61711613  0.03200905  0.45102703  1  -0.021994  0  -0.098136  -0.139  0  4.00714  0
C  C84  1  0.75604826  0.99266182  0.99228662  1  -0.066049  0  -0.078287  -0.170973  0  3.918446  0
C  C85  1  0.24394293  0.00733552  0.00771718  1  -0.065751  0  -0.078356  -0.171021  0  3.918618  0
C  C86  1  0.57459280  0.88409682  0.82228960  1  0.003956  0  -0.084796  -0.179357  0  3.952098  0
C  C87  1  0.42539755  0.11589673  0.17771728  1  0.003226  0  -0.084818  -0.179213  0  3.951965  0
C  C88  1  0.46603282  0.10084031  0.55974416  1  -0.112295  0  -0.095456  -0.135572  0  4.005499  0
C  C89  1  0.53397066  0.89917281  0.44026153  1  -0.112618  0  -0.095501  -0.135747  0  4.005472  0
C  C90  1  0.74804799  0.86726713  0.99026104  1  0.484934  0  0.053774  0.09946  0  3.931488  0
C  C91  1  0.25194428  0.13272618  0.00974211  1  0.485109  0  0.05373  0.099426  0  3.931652  0
C  C92  1  0.57324167  0.76309950  0.82659245  1  0.488256  0  0.049875  0.100949  0  3.937624  0
C  C93  1  0.42674527  0.23689300  0.17341233  1  0.487949  0  0.049904  0.100831  0  3.937541  0
N  N94  1  0.64495502  0.37120425  0.90804098  1  -1.226538  0  -0.317125  -0.226456  0  3.52424  0
N  N95  1  0.35505170  0.62879219  0.09195181  1  -1.226653  0  -0.317236  -0.226657  0  3.524375  0
N  N96  1  0.65653782  0.75409384  0.91016738  1  -1.225315  0  -0.311146  -0.209502  0  3.496766  0
N  N97  1  0.34345349  0.24589961  0.08983802  1  -1.225421  0  -0.311125  -0.209383  0  3.49675  0
N  N98  1  0.17819244  0.69292354  0.48019180  1  -1.214836  0  -0.252446  -0.065106  0  3.72219  0
N  N99  1  0.82181317  0.30708133  0.51980945  1  -1.21488  0  -0.252325  -0.064975  0  3.722175  0
O  O100  1  0.57433545  0.51985358  0.17127309  1  -1.191117  0  -0.321854  -0.560093  0  2.384368  0
O  O101  1  0.42566564  0.48013512  0.82872155  1  -1.19129  0  -0.321866  -0.560169  0  2.384525  0
O  O102  1  0.71361543  0.63125025  0.07306733  1  -1.198442  0  -0.325998  -0.584183  0  2.429491  0
O  O103  1  0.28637774  0.36874257  0.92692728  1  -1.198304  0  -0.326023  -0.584288  0  2.429415  0
O  O104  1  0.70983549  0.54545671  0.75685820  1  -1.180467  0  -0.341134  -0.576824  0  2.249241  0
O  O105  1  0.29016047  0.45454214  0.24313861  1  -1.180329  0  -0.341216  -0.577  0  2.249345  0
O  O106  1  0.90336338  0.64735242  0.89943199  1  -1.196237  0  -0.332067  -0.571734  0  2.167092  0
O  O107  1  0.09663327  0.35266078  0.10057302  1  -1.196172  0  -0.332027  -0.571815  0  2.167115  0
