# generated using pymatgen
data_Ni3H20C28(NO7)2
_symmetry_space_group_name_H-M   'P 1'
_cell_length_a   7.59563743
_cell_length_b   10.83503052
_cell_length_c   17.29036971
_cell_angle_alpha   89.99161917
_cell_angle_beta   90.02660553
_cell_angle_gamma   105.13156058
_symmetry_Int_Tables_number   1
_chemical_formula_structural   Ni3H20C28(NO7)2
_chemical_formula_sum   'Ni6 H40 C56 N4 O28'
_cell_volume   1373.64321753
_cell_formula_units_Z   2
loop_
 _symmetry_equiv_pos_site_id
 _symmetry_equiv_pos_as_xyz
  1  'x, y, z'
loop_
 _atom_site_type_symbol
 _atom_site_label
 _atom_site_symmetry_multiplicity
 _atom_site_fract_x
 _atom_site_fract_y
 _atom_site_fract_z
 _atom_site_occupancy
 _atom_site_hle17_ddec_charge
 _atom_site_hle17_ddec_spin_density
 _atom_site_hle17_ddec_sum_bond_order
 _atom_site_hle17_magmom
 _atom_site_hse06_10hf_ddec_charge
 _atom_site_hse06_10hf_ddec_spin_density
 _atom_site_hse06_10hf_ddec_sum_bond_order
 _atom_site_hse06_10hf_magmom
 _atom_site_hse06_ddec_charge
 _atom_site_hse06_ddec_spin_density
 _atom_site_hse06_ddec_sum_bond_order
 _atom_site_hse06_magmom
 _atom_site_pbe_cm5_charge
 _atom_site_pbe_ddec_charge
 _atom_site_pbe_ddec_spin_density
 _atom_site_pbe_ddec_sum_bond_order
 _atom_site_pbe_magmom
Ni  Ni0  1  0.58978187  0.29904578  0.07470457  1  0.900355  1.872548  1.968841  1.521  0.909241  1.872368  2.363763  1.637  1.001211  1.932691  2.28489  1.721  0.639192  0.839917  1.821512  2.425151  1.566
Ni  Ni1  1  0.90533933  0.70256536  0.57354939  1  0.894065  -1.79814  1.97459  -1.516  0.90262  -1.835944  2.370244  -1.636  0.995484  -1.891524  2.291205  -1.721  0.639223  0.83163  -1.787133  2.43269  -1.563
Ni  Ni2  1  0.40610407  0.70167755  0.92668244  1  0.893763  -1.793174  1.980288  -1.512  0.901595  -1.834109  2.376  -1.634  0.994804  -1.891011  2.296481  -1.72  0.639868  0.830398  -1.779231  2.438806  -1.556
Ni  Ni3  1  0.09116807  0.29785492  0.42551327  1  0.903049  -1.806528  1.963881  -1.522  0.912013  -1.839095  2.358583  -1.638  1.003812  -1.893119  2.280132  -1.722  0.639894  0.842417  -1.792669  2.420312  -1.567
Ni  Ni4  1  0.99729682  0.49699147  0.00225605  1  1.066151  1.89389  1.816398  1.553  1.087297  1.918438  2.214956  1.691  1.174287  1.974735  2.144479  1.772  0.649579  1.016603  1.854963  2.267178  1.607
Ni  Ni5  1  0.49713581  0.49867036  0.49848359  1  1.067098  -1.833406  1.815926  -1.558  1.088768  -1.887794  2.214299  -1.693  1.174962  -1.935338  2.143985  -1.773  0.651619  1.02011  -1.83649  2.265829  -1.616
H  H6  1  0.46371098  0.47396600  0.01618677  1  0.426127  0.000178  0.856987  0.0  0.39996  0.000479  0.925357  0.0  0.409981  0.000309  0.911059  0.0  0.298132  0.392726  0.000628  0.934357  0.001
H  H7  1  0.09884806  0.54249942  0.59958854  1  0.413302  0.000474  0.831896  0.001  0.393638  3e-05  0.893006  0.0  0.401329  0.000122  0.885685  0.0  0.318968  0.388149  -5.7e-05  0.898206  0.0
H  H8  1  0.59370907  0.54377551  0.89320180  1  0.411052  0.000432  0.835374  0.001  0.390588  2e-06  0.898848  0.0  0.398204  9.9e-05  0.891572  0.0  0.31725  0.385229  -9.4e-05  0.90387  0.0
H  H9  1  0.96570083  0.47608419  0.48093064  1  0.42598  7.8e-05  0.859535  0.0  0.399483  -0.000299  0.927111  0.0  0.409693  -0.000111  0.912519  0.0  0.297206  0.392122  -0.000478  0.937596  -0.001
H  H10  1  0.28514344  0.37613123  0.05088487  1  0.423852  9.3e-05  0.877488  0.0  0.39626  0.000347  0.936886  0.0  0.407864  0.000154  0.920281  0.0  0.294571  0.38808  0.000541  0.948526  0.001
H  H11  1  0.22277490  0.63489606  0.54138607  1  0.434139  7e-05  0.857132  0.0  0.405877  -0.000168  0.922604  0.0  0.418086  -2e-05  0.905197  0.0  0.302652  0.397231  -0.000324  0.934873  -0.001
H  H12  1  0.72364200  0.62954578  0.95336087  1  0.43376  -0.000114  0.861653  0.0  0.405276  -0.00035  0.924918  0.0  0.417521  -0.000256  0.907493  0.0  0.30148  0.396584  -0.000421  0.937221  -0.001
H  H13  1  0.78516028  0.37524524  0.45025239  1  0.424342  -0.00011  0.876204  0.0  0.397018  -0.000367  0.935224  -0.001  0.408659  -0.000169  0.918568  0.0  0.29434  0.388756  -0.000565  0.946979  -0.001
H  H14  1  0.36066721  0.05024011  0.01149944  1  0.092629  0.000929  0.934169  0.002  0.099872  0.00064  0.99788  0.001  0.102456  0.000466  0.994882  0.001  0.119785  0.097853  0.000819  1.000373  0.002
H  H15  1  0.13810261  0.94899223  0.50992469  1  0.099702  -0.000847  0.927433  -0.002  0.106888  -0.000582  0.990027  -0.001  0.109949  -0.000408  0.98664  -0.001  0.124725  0.104399  -0.000758  0.992941  -0.002
H  H16  1  0.63620749  0.94882358  0.98981485  1  0.099723  -0.000947  0.928054  -0.002  0.106676  -0.000654  0.990957  -0.001  0.109726  -0.000467  0.987582  -0.001  0.124508  0.104226  -0.00085  0.993857  -0.002
H  H17  1  0.85863563  0.05006171  0.48942549  1  0.092391  -0.000837  0.933916  -0.002  0.099501  -0.000587  0.99755  -0.001  0.102048  -0.000414  0.994594  -0.001  0.119859  0.097546  -0.000759  0.999952  -0.002
H  H18  1  0.14189098  0.85961843  0.06397976  1  0.108382  0.000266  0.977625  0.0  0.119705  0.000283  1.034649  0.0  0.122265  0.000202  1.034673  0.0  0.10754  0.117652  0.000375  1.035045  0.0
H  H19  1  0.35936831  0.13849957  0.56202137  1  0.112046  -9.8e-05  0.973346  0.0  0.122935  -0.000171  1.030231  0.0  0.125716  -0.000104  1.030003  0.0  0.110025  0.120714  -0.000243  1.030831  0.0
H  H20  1  0.85736597  0.13827545  0.93765753  1  0.112231  -0.000351  0.972718  0.0  0.123087  -0.000366  1.029745  0.0  0.12583  -0.000272  1.029541  0.0  0.110429  0.120952  -0.000474  1.030261  0.0
H  H21  1  0.63732080  0.86034004  0.43714663  1  0.109368  -0.000103  0.976462  0.0  0.119735  -0.000173  1.034697  0.0  0.122388  -0.000106  1.034619  0.0  0.107442  0.117657  -0.000249  1.035166  0.0
H  H22  1  0.72982259  0.50267338  0.30438671  1  0.122367  0.000391  0.93443  0.0  0.130831  0.000347  0.99417  0.0  0.135349  0.000246  0.989764  0.0  0.114592  0.127451  0.000446  0.997413  0.0
H  H23  1  0.78647952  0.49137745  0.80186332  1  0.112783  -0.0003  0.947942  0.0  0.121034  -0.000287  1.0104  0.0  0.125824  -0.000201  1.005505  0.0  0.109557  0.117401  -0.000369  1.014111  0.0
H  H24  1  0.28140034  0.49229016  0.69884988  1  0.113684  -0.000415  0.947391  0.0  0.121818  -0.000222  1.009695  0.0  0.12667  -0.000131  1.004733  0.0  0.109412  0.118138  -0.000308  1.013367  0.0
H  H25  1  0.23020413  0.50239164  0.19542199  1  0.122052  -0.000441  0.934133  0.0  0.130665  -0.000361  0.993652  0.0  0.135054  -0.000255  0.989413  0.0  0.115046  0.127448  -0.000464  0.996676  0.0
H  H26  1  0.05844363  0.88613242  0.33441932  1  0.103209  -4.5e-05  0.945762  0.0  0.11353  -7.5e-05  1.007981  0.0  0.117008  -3.9e-05  1.004931  0.0  0.106539  0.111028  -0.000117  1.010135  0.0
H  H27  1  0.43399341  0.11551411  0.83396946  1  0.106047  5.7e-05  0.941858  0.0  0.117199  0.000101  1.002225  0.0  0.120946  6.4e-05  0.998875  0.0  0.108562  0.114389  0.000149  1.004734  0.0
H  H28  1  0.93440508  0.11478513  0.66622477  1  0.106077  -0.000319  0.942227  0.0  0.117368  -0.000145  1.002494  0.0  0.121113  -9.5e-05  0.999122  0.0  0.108338  0.114603  -0.0002  1.004943  0.0
H  H29  1  0.56025973  0.88552730  0.16607848  1  0.102964  -0.000293  0.945653  0.0  0.11295  -0.000153  1.00827  0.0  0.116386  -0.000103  1.005282  0.0  0.10636  0.110526  -0.000205  1.010319  0.0
H  H30  1  0.94704695  0.72259134  0.10487330  1  0.105199  7.9e-05  0.968894  0.0  0.111066  7e-05  1.035975  0.0  0.11469  1.4e-05  1.032594  0.0  0.106673  0.108352  0.000132  1.038584  0.0
H  H31  1  0.54690361  0.27748646  0.60384143  1  0.109375  -2.2e-05  0.967478  0.0  0.11551  -2.1e-05  1.034041  0.0  0.11944  2e-05  1.030513  0.0  0.109682  0.112466  -7e-05  1.0369  0.0
H  H32  1  0.05024545  0.27456855  0.89674880  1  0.110315  -0.000466  0.963117  0.0  0.116451  -0.000275  1.029423  0.0  0.120417  -0.00022  1.025745  0.0  0.110368  0.113438  -0.000326  1.032321  0.0
H  H33  1  0.44670120  0.72167787  0.39540723  1  0.104982  -0.000106  0.971474  0.0  0.110542  -3.2e-05  1.039314  0.0  0.114138  1e-05  1.035989  0.0  0.106206  0.107876  -8.1e-05  1.041831  0.0
H  H34  1  0.02688849  0.16104119  0.10226708  1  0.005763  0.009042  0.940726  0.013  0.012193  0.005454  1.011078  0.007  0.008692  0.003715  1.009679  0.005  0.105922  0.015325  0.007265  1.011882  0.009
H  H35  1  0.46857882  0.83859158  0.60277685  1  0.003582  -0.008125  0.94039  -0.012  0.010432  -0.005089  1.01087  -0.007  0.007255  -0.003474  1.009153  -0.005  0.105476  0.013407  -0.00681  1.011832  -0.009
H  H36  1  0.96961472  0.83800915  0.89834736  1  0.005547  -0.000995  0.939363  -0.001  0.011231  -0.000453  1.010396  -0.001  0.007814  -0.000367  1.008695  0.0  0.106165  0.014937  -0.000493  1.011055  -0.001
H  H37  1  0.53138084  0.16472755  0.39704889  1  0.00665  -0.008797  0.940229  -0.013  0.012914  -0.005367  1.010402  -0.007  0.009366  -0.003634  1.009074  -0.005  0.106374  0.01618  -0.007213  1.011058  -0.009
H  H38  1  0.39530823  0.24037497  0.22098884  1  0.104496  0.000798  0.932825  0.002  0.113004  0.000566  0.991801  0.001  0.116364  0.000409  0.98836  0.001  0.125231  0.110301  0.000724  0.994696  0.002
H  H39  1  0.09063733  0.76373482  0.72148847  1  0.101691  -0.000724  0.941373  -0.002  0.109604  -0.000538  1.00229  -0.001  0.112847  -0.000369  0.998828  -0.001  0.121858  0.106959  -0.000702  1.005261  -0.002
H  H40  1  0.59112020  0.76237074  0.77872918  1  0.101063  -0.000754  0.940718  -0.002  0.108546  -0.000556  1.002053  -0.001  0.111895  -0.000383  0.998436  -0.001  0.121427  0.105867  -0.000729  1.005065  -0.002
H  H41  1  0.89924323  0.23841404  0.27912867  1  0.105372  -0.000765  0.933116  -0.002  0.113217  -0.000556  0.992719  -0.001  0.116672  -0.000398  0.989164  -0.001  0.125628  0.110503  -0.000715  0.995615  -0.002
H  H42  1  0.17808623  0.05979519  0.28323989  1  0.116903  0.000321  0.962326  0.0  0.124659  0.000349  1.024864  0.0  0.128307  0.000266  1.023478  0.0  0.108098  0.121975  0.00043  1.026068  0.0
H  H43  1  0.30976655  0.94335023  0.78355309  1  0.116852  -0.000297  0.962142  0.0  0.124912  -0.000322  1.024035  0.0  0.128568  -0.000211  1.022674  0.0  0.108241  0.122172  -0.000436  1.025239  0.0
H  H44  1  0.81109311  0.94139174  0.71672657  1  0.116828  -0.00028  0.964248  0.0  0.124527  -0.000325  1.026671  0.0  0.12819  -0.000214  1.025327  0.0  0.107979  0.12184  -0.000446  1.027861  0.0
H  H45  1  0.68027839  0.05847110  0.21698369  1  0.116204  -0.000287  0.963299  0.0  0.124326  -0.000331  1.025099  0.0  0.127968  -0.000253  1.023757  0.0  0.108371  0.121657  -0.000408  1.026263  0.0
C  C46  1  0.31585460  0.04759175  0.07151294  1  0.123094  -0.009621  3.702094  -0.012  0.094744  -0.002452  3.964625  -0.004  0.10463  -0.002727  3.981578  -0.004  0.044767  0.087515  -0.002476  3.953988  -0.004
C  C47  1  0.18048668  0.95266113  0.57032824  1  0.12886  0.01037  3.684334  0.013  0.102094  0.002639  3.943608  0.004  0.11249  0.002956  3.959067  0.004  0.049217  0.094388  0.002625  3.934288  0.004
C  C48  1  0.67933617  0.95212650  0.92954842  1  0.128984  0.010879  3.684523  0.013  0.102316  0.002744  3.943564  0.004  0.112728  0.003063  3.959066  0.005  0.049783  0.094615  0.002713  3.934113  0.004
C  C49  1  0.81463014  0.04714473  0.42925830  1  0.123488  0.010263  3.701635  0.013  0.095588  0.00257  3.96441  0.004  0.10549  0.002876  3.981324  0.004  0.04509  0.088394  0.002576  3.953664  0.004
C  C50  1  0.19101241  0.94157140  0.10168674  1  -0.171079  0.010415  3.718768  0.012  -0.188659  0.003294  3.965046  0.004  -0.197699  0.003032  3.98595  0.004  -0.08728  -0.183037  0.003654  3.95225  0.005
C  C51  1  0.30638990  0.05819879  0.60049451  1  -0.162255  -0.010126  3.704704  -0.013  -0.178418  -0.003177  3.948405  -0.004  -0.187096  -0.002924  3.968547  -0.004  -0.08268  -0.17312  -0.0035  3.93629  -0.005
C  C52  1  0.80539624  0.05751678  0.89938402  1  -0.163583  -0.011115  3.704249  -0.014  -0.179938  -0.003412  3.947695  -0.005  -0.188674  -0.003181  3.967915  -0.004  -0.083448  -0.174533  -0.003728  3.935356  -0.005
C  C53  1  0.68868028  0.94158145  0.39914986  1  -0.170805  -0.010326  3.718292  -0.013  -0.188056  -0.003204  3.964352  -0.004  -0.197142  -0.002961  3.985188  -0.004  -0.087231  -0.182375  -0.003553  3.9515  -0.005
C  C54  1  0.75833325  0.48704802  0.15210421  1  0.657504  -0.005052  3.807462  -0.01  0.619658  0.002019  4.095521  0.0  0.659323  0.001206  4.089928  0.0  0.218572  0.590768  0.002842  4.098788  0.0
C  C55  1  0.74623914  0.50971269  0.65053393  1  0.642215  0.004775  3.84117  0.008  0.605745  -0.001348  4.126606  0.0  0.644704  -0.000809  4.120714  0.0  0.211156  0.577487  -0.001788  4.130181  0.0
C  C56  1  0.24444573  0.50887588  0.85005404  1  0.643267  0.006652  3.83796  0.011  0.605811  0.004109  4.123484  0.008  0.645037  0.003499  4.117453  0.007  0.211292  0.577048  0.004757  4.127076  0.009
C  C57  1  0.25897370  0.48606056  0.34772991  1  0.656501  0.005288  3.809111  0.01  0.620067  -0.001955  4.096094  0.0  0.659658  -0.00113  4.090558  0.0  0.218404  0.591362  -0.002851  4.099059  0.0
C  C58  1  0.02006576  0.82105013  0.21476654  1  0.021096  0.001642  3.756804  0.002  0.039252  0.000271  3.996358  0.001  0.032697  0.000356  4.021526  0.001  -0.010196  0.04371  0.000251  3.979472  0.001
C  C59  1  0.47527393  0.17908575  0.71394465  1  0.026379  -0.001606  3.753728  -0.002  0.046881  -0.000207  3.989043  0.0  0.041218  -0.000297  4.013416  -0.001  -0.007086  0.050657  -0.00017  3.972844  -0.001
C  C60  1  0.97628402  0.17773947  0.78629440  1  0.025628  -0.00547  3.750149  -0.007  0.044988  -0.001206  3.986978  -0.002  0.039158  -0.001186  4.011407  -0.002  -0.007985  0.048903  -0.001325  3.97063  -0.002
C  C61  1  0.51983298  0.82046343  0.28568123  1  0.021991  -0.003132  3.756645  -0.004  0.040183  -0.000501  3.995892  -0.001  0.033696  -0.000629  4.021077  -0.001  -0.009673  0.044649  -0.000442  3.9789  -0.001
C  C62  1  0.81069567  0.59140259  0.27939575  1  -0.026213  -0.001621  3.654805  -0.002  -0.066508  7.5e-05  3.900473  0.0  -0.059763  -7.6e-05  3.915567  0.0  -0.060391  -0.071067  -0.000137  3.890929  0.0
C  C63  1  0.69553425  0.40515533  0.77792480  1  -0.059382  0.001459  3.699333  0.002  -0.097816  -8e-05  3.948027  0.0  -0.092046  7.4e-05  3.96376  0.0  -0.073689  -0.101768  6.5e-05  3.938238  0.0
C  C64  1  0.19295648  0.40508000  0.72268332  1  -0.05685  0.006596  3.700397  0.007  -0.095804  0.001345  3.949507  0.001  -0.089968  0.001365  3.965326  0.001  -0.073416  -0.099652  0.001642  3.93949  0.002
C  C65  1  0.31114600  0.59093973  0.22059654  1  -0.026813  0.003288  3.654242  0.004  -0.06659  -0.000216  3.900592  0.0  -0.059916  0.000184  3.915755  0.0  -0.060483  -0.071009  -0.000266  3.890844  0.0
C  C66  1  0.83841008  0.60115602  0.19977226  1  -0.065318  0.00352  3.772305  0.004  -0.038433  0.001286  4.003318  0.001  -0.049474  0.000909  4.024581  0.001  -0.013472  -0.031663  0.001745  3.990382  0.002
C  C67  1  0.66378531  0.39655103  0.69847258  1  -0.0598  -0.002665  3.78272  -0.003  -0.034965  -0.000976  4.015716  -0.001  -0.045695  -0.000672  4.037179  -0.001  -0.01694  -0.028436  -0.001338  4.002769  -0.001
C  C68  1  0.16303890  0.39544931  0.80218918  1  -0.061574  -0.006178  3.784254  -0.007  -0.036525  -0.002369  4.017187  -0.003  -0.047457  -0.001963  4.03871  -0.002  -0.016928  -0.029844  -0.002844  4.004138  -0.003
C  C69  1  0.33862914  0.60043538  0.30025015  1  -0.065637  -0.005584  3.772503  -0.007  -0.040217  -0.001917  4.005269  -0.002  -0.051176  -0.001438  4.026528  -0.002  -0.014213  -0.033555  -0.002507  3.992317  -0.003
C  C70  1  0.99509369  0.80815377  0.29545820  1  -0.077007  -0.001767  3.65902  -0.002  -0.114235  -0.000766  3.911077  -0.001  -0.110465  -0.000683  3.930178  -0.001  -0.069651  -0.116283  -0.001192  3.89781  -0.001
C  C71  1  0.50043939  0.19202220  0.79458746  1  -0.07215  0.002304  3.650734  0.002  -0.109094  0.000882  3.901329  0.001  -0.105351  0.000756  3.919861  0.001  -0.068094  -0.111209  0.001327  3.888718  0.001
C  C72  1  0.00077297  0.19131089  0.70562406  1  -0.071922  0.007748  3.650088  0.009  -0.108678  0.001933  3.900847  0.002  -0.104806  0.001763  3.919296  0.002  -0.067426  -0.110766  0.002425  3.888127  0.003
C  C73  1  0.49611427  0.80757492  0.20492231  1  -0.078226  0.005078  3.658545  0.006  -0.115059  0.001522  3.910926  0.002  -0.111372  0.001431  3.930121  0.002  -0.069623  -0.117005  0.001942  3.897461  0.002
C  C74  1  0.88540636  0.69560747  0.32720768  1  -0.06506  -0.010134  3.750843  -0.013  -0.040545  -0.005428  3.985333  -0.007  -0.052822  -0.003627  4.008438  -0.005  -0.014958  -0.032564  -0.007184  3.970294  -0.009
C  C75  1  0.61513892  0.30289710  0.82624552  1  -0.071446  0.009303  3.767561  0.012  -0.046551  0.005304  4.003077  0.007  -0.058296  0.003671  4.026395  0.005  -0.019527  -0.039031  0.006839  3.988129  0.009
C  C76  1  0.11409420  0.30285514  0.67412540  1  -0.072507  -0.014175  3.769816  -0.018  -0.047596  -0.006227  4.005433  -0.009  -0.059434  -0.004705  4.02886  -0.006  -0.020714  -0.040013  -0.007856  3.990313  -0.011
C  C77  1  0.38657842  0.69517166  0.17296061  1  -0.061454  -0.002861  3.74844  -0.004  -0.037521  -0.000971  3.983279  -0.001  -0.049707  -0.001033  4.006306  -0.001  -0.013879  -0.029495  -0.000922  3.968218  -0.001
C  C78  1  0.83351926  0.68061659  0.41102671  1  0.664051  0.00352  3.861637  0.008  0.626733  -0.001805  4.160359  -0.001  0.667635  -0.001323  4.15019  -0.001  0.218823  0.597284  -0.002073  4.166698  0.0
C  C79  1  0.66459884  0.31744894  0.91073499  1  0.642199  -0.003586  3.900104  -0.008  0.603966  0.001067  4.199992  0.0  0.643951  0.000796  4.189962  0.0  0.209717  0.575194  0.000983  4.206457  -0.001
C  C80  1  0.16371595  0.31866077  0.58973702  1  0.639822  0.003749  3.900004  0.008  0.601639  -0.001347  4.200302  0.0  0.641472  -0.000969  4.190318  0.0  0.210181  0.573044  -0.001444  4.206618  0.001
C  C81  1  0.33587711  0.68035428  0.08900773  1  0.664074  0.003307  3.862291  0.006  0.626879  0.002102  4.161405  0.005  0.667854  0.001857  4.151049  0.004  0.218849  0.597232  0.002255  4.167958  0.005
C  C82  1  0.13837620  0.93827585  0.17993334  1  0.105885  -0.009973  3.757606  -0.012  0.116587  -0.003326  3.987077  -0.004  0.124183  -0.002959  4.008974  -0.004  0.012672  0.110686  -0.004234  3.973187  -0.005
C  C83  1  0.35544484  0.06244698  0.67915568  1  0.101895  0.010497  3.761077  0.012  0.111464  0.003393  3.991043  0.004  0.118275  0.003041  4.013354  0.004  0.011365  0.106176  0.004267  3.976844  0.005
C  C84  1  0.85589680  0.06115314  0.82090932  1  0.102341  0.01132  3.759512  0.013  0.112927  0.00365  3.988592  0.004  0.11978  0.003274  4.010924  0.004  0.01198  0.107609  0.004571  3.974334  0.005
C  C85  1  0.63783929  0.93772012  0.32064987  1  0.105634  0.010695  3.756984  0.012  0.117091  0.003467  3.985426  0.004  0.124694  0.003114  4.007287  0.004  0.013043  0.111199  0.004356  3.971516  0.005
C  C86  1  0.93618140  0.71675499  0.16748073  1  -0.056159  -0.00215  3.646243  -0.002  -0.092988  -0.000184  3.895008  0.0  -0.088145  -0.000325  3.911279  0.0  -0.065794  -0.096565  -8.4e-05  3.884775  0.0
C  C87  1  0.56040367  0.28264102  0.66639819  1  -0.058422  0.001981  3.641266  0.002  -0.093766  0.000168  3.886992  0.0  -0.089224  0.000316  3.90285  0.0  -0.06574  -0.097278  2.8e-05  3.877341  0.0
C  C88  1  0.06200110  0.28074604  0.83415359  1  -0.054858  0.007283  3.63799  0.008  -0.08986  0.001777  3.883958  0.002  -0.084943  0.001607  3.899469  0.002  -0.064047  -0.093525  0.002399  3.874318  0.003
C  C89  1  0.43592159  0.71599072  0.33278598  1  -0.058326  0.005138  3.646379  0.006  -0.094964  0.001012  3.896154  0.001  -0.090302  0.001091  3.912635  0.001  -0.066626  -0.098372  0.001023  3.885707  0.001
C  C90  1  0.95213538  0.22959652  0.08068040  1  0.586402  -0.006518  3.878718  -0.011  0.5331  -2.6e-05  4.183652  -0.002  0.572549  -0.000305  4.175296  -0.001  0.152432  0.504623  5.7e-05  4.188035  -0.003
C  C91  1  0.54295605  0.77008593  0.58077289  1  0.587  0.006608  3.879269  0.011  0.533442  0.000178  4.182187  0.002  0.572463  0.000417  4.173721  0.001  0.153523  0.50539  0.000103  4.18648  0.002
C  C92  1  0.04348883  0.76880799  0.91973735  1  0.584864  0.002431  3.883614  0.003  0.531548  0.000655  4.187057  0.001  0.5708  0.000495  4.178637  0.001  0.152833  0.50299  0.000842  4.191279  0.001
C  C93  1  0.45431969  0.23098839  0.41986874  1  0.585401  0.006981  3.879086  0.011  0.532544  2.3e-05  4.183888  0.002  0.571974  0.000309  4.175639  0.001  0.152679  0.504122  -8.8e-05  4.187873  0.003
C  C94  1  0.33561080  0.15335619  0.18851341  1  0.126227  -0.00884  3.675681  -0.011  0.098512  -0.001603  3.935378  -0.003  0.108713  -0.002041  3.951089  -0.003  0.04865  0.090881  -0.001478  3.925963  -0.003
C  C95  1  0.15379703  0.84949305  0.68852844  1  0.118499  0.00902  3.69221  0.011  0.089441  0.001444  3.955066  0.003  0.098955  0.001956  3.971766  0.003  0.0435  0.082268  0.001272  3.944961  0.002
C  C96  1  0.65415445  0.84823001  0.81164164  1  0.1185  0.009531  3.692833  0.012  0.089872  0.00153  3.955474  0.003  0.099356  0.002058  3.972188  0.003  0.043895  0.082704  0.001359  3.945305  0.002
C  C97  1  0.83775339  0.15189980  0.31177311  1  0.124657  0.009451  3.67627  0.012  0.097679  0.001714  3.936544  0.003  0.107735  0.002176  3.952285  0.004  0.048305  0.090151  0.001571  3.92706  0.003
C  C98  1  0.21207672  0.05033039  0.22273305  1  -0.167227  0.011096  3.696149  0.013  -0.184457  0.003788  3.945425  0.005  -0.193487  0.003441  3.965289  0.004  -0.083617  -0.178748  0.004186  3.933413  0.006
C  C99  1  0.27802069  0.95197941  0.72269610  1  -0.166313  -0.010657  3.704532  -0.013  -0.183703  -0.003691  3.954807  -0.005  -0.192713  -0.003332  3.975357  -0.004  -0.083869  -0.177943  -0.004091  3.942287  -0.006
C  C100  1  0.77883021  0.95048148  0.77747246  1  -0.167386  -0.011371  3.705358  -0.014  -0.185014  -0.00374  3.9553  -0.005  -0.194069  -0.00344  3.975878  -0.005  -0.084966  -0.179196  -0.004119  3.942647  -0.006
C  C101  1  0.71342115  0.04922242  0.27762281  1  -0.166214  -0.011075  3.697796  -0.014  -0.183871  -0.00378  3.946652  -0.005  -0.192921  -0.003446  3.966625  -0.005  -0.083644  -0.178089  -0.004174  3.934472  -0.006
N  N102  1  0.39053180  0.15203646  0.11431398  1  -0.295974  0.06534  3.321524  0.095  -0.259307  0.040117  3.620856  0.06  -0.288309  0.032572  3.638215  0.05  -0.337105  -0.239066  0.046249  3.609752  0.068
N  N103  1  0.10210051  0.84996234  0.61382626  1  -0.300105  -0.063968  3.33773  -0.097  -0.263881  -0.040247  3.638895  -0.062  -0.292996  -0.032482  3.656732  -0.051  -0.339081  -0.24347  -0.046499  3.627653  -0.069
N  N104  1  0.60183463  0.84902828  0.88619935  1  -0.299608  -0.065193  3.340842  -0.099  -0.263472  -0.040531  3.641629  -0.062  -0.292646  -0.032757  3.659475  -0.052  -0.33995  -0.243022  -0.046843  3.630382  -0.07
N  N105  1  0.89173900  0.15072392  0.38615283  1  -0.295821  -0.063577  3.318799  -0.096  -0.260093  -0.039579  3.61923  -0.061  -0.289085  -0.032027  3.636677  -0.051  -0.337714  -0.239811  -0.045779  3.608162  -0.068
O  O106  1  0.68389697  0.59796920  0.42348751  1  -0.630907  -0.043716  2.178402  -0.07  -0.613891  -0.026477  2.474028  -0.042  -0.651608  -0.01983  2.463041  -0.032  -0.309749  -0.585116  -0.033046  2.480411  -0.051
O  O107  1  0.81417014  0.40093593  0.92341532  1  -0.639727  0.042049  2.174725  0.065  -0.622031  0.025466  2.472109  0.041  -0.65883  0.019318  2.460765  0.031  -0.315345  -0.593936  0.031324  2.478751  0.049
O  O108  1  0.30919819  0.40642356  0.57712813  1  -0.642372  -0.041302  2.170484  -0.066  -0.624097  -0.026027  2.466125  -0.042  -0.660493  -0.019594  2.454502  -0.032  -0.316275  -0.596391  -0.032297  2.473028  -0.051
O  O109  1  0.18349232  0.60095833  0.07630499  1  -0.632894  0.043293  2.17378  0.065  -0.616161  0.025943  2.470388  0.039  -0.653788  0.020171  2.459255  0.031  -0.310381  -0.587243  0.031244  2.47692  0.047
O  O110  1  0.05086985  0.32844079  0.04675852  1  -0.590638  0.048057  2.131996  0.075  -0.55649  0.029597  2.398699  0.049  -0.593991  0.021775  2.38586  0.037  -0.302728  -0.528265  0.036702  2.406575  0.059
O  O111  1  0.44770446  0.67565887  0.54211972  1  -0.595786  -0.034694  2.134044  -0.056  -0.557154  -0.02415  2.397008  -0.04  -0.59197  -0.017988  2.383744  -0.03  -0.301989  -0.531151  -0.030079  2.405325  -0.048
O  O112  1  0.94635613  0.67139603  0.95526022  1  -0.591945  0.036537  2.138157  0.056  -0.553004  0.025224  2.399547  0.04  -0.588245  0.019601  2.386532  0.032  -0.300134  -0.526361  0.030243  2.407793  0.047
O  O113  1  0.55018522  0.32819523  0.45626858  1  -0.589732  -0.046596  2.130424  -0.076  -0.5565  -0.029087  2.397257  -0.049  -0.593938  -0.021176  2.384528  -0.036  -0.302481  -0.528032  -0.036688  2.404831  -0.06
O  O114  1  0.78460797  0.48593098  0.07798176  1  -0.632205  0.078479  2.155795  0.119  -0.614937  0.050897  2.451871  0.078  -0.662126  0.038654  2.441658  0.06  -0.315589  -0.577897  0.062633  2.456993  0.095
O  O115  1  0.71189744  0.51448281  0.57769444  1  -0.628584  -0.063982  2.163305  -0.1  -0.606585  -0.045315  2.453872  -0.07  -0.65039  -0.034755  2.442815  -0.054  -0.309011  -0.572648  -0.055591  2.460248  -0.084
O  O116  1  0.21258305  0.51326134  0.92310527  1  -0.63005  -0.010884  2.164128  -0.018  -0.605336  -0.007274  2.452869  -0.013  -0.649359  -0.004954  2.442001  -0.01  -0.30791  -0.570564  -0.00946  2.458895  -0.016
O  O117  1  0.28545459  0.48483324  0.42185649  1  -0.633372  -0.07634  2.160876  -0.12  -0.617098  -0.050507  2.457329  -0.079  -0.66426  -0.03817  2.447141  -0.061  -0.3161  -0.579957  -0.062533  2.462248  -0.096
O  O118  1  0.65556091  0.38823630  0.18315575  1  -0.550929  0.072512  1.968477  0.109  -0.530088  0.045493  2.214806  0.072  -0.569768  0.033698  2.208805  0.055  -0.29  -0.499814  0.056699  2.217813  0.087
O  O119  1  0.85986189  0.60492167  0.68107858  1  -0.581236  -0.058982  1.982174  -0.092  -0.555084  -0.039574  2.228373  -0.064  -0.592726  -0.029553  2.221202  -0.049  -0.303645  -0.526356  -0.049104  2.232383  -0.077
O  O120  1  0.35526806  0.60520233  0.81913930  1  -0.584201  -0.043262  1.983823  -0.068  -0.55738  -0.029861  2.230389  -0.049  -0.595398  -0.023224  2.223273  -0.039  -0.303951  -0.527607  -0.034939  2.233912  -0.056
O  O121  1  0.15637398  0.38722790  0.31667406  1  -0.550314  -0.069874  1.968877  -0.109  -0.52968  -0.044467  2.214452  -0.072  -0.569316  -0.032732  2.208587  -0.055  -0.28907  -0.499102  -0.055746  2.217158  -0.088
O  O122  1  0.78232326  0.19861702  0.09205737  1  -0.562741  0.043649  2.115596  0.068  -0.536311  0.028156  2.388014  0.045  -0.57318  0.02173  2.376012  0.036  -0.309627  -0.508293  0.034555  2.395247  0.055
O  O123  1  0.71076485  0.79700561  0.59675157  1  -0.557116  -0.046987  2.116813  -0.076  -0.531028  -0.030098  2.38934  -0.05  -0.568967  -0.022917  2.377845  -0.039  -0.3084  -0.501912  -0.037166  2.396237  -0.06
O  O124  1  0.21252647  0.79804046  0.90617129  1  -0.556113  -0.046878  2.116508  -0.076  -0.530554  -0.030293  2.389075  -0.05  -0.568805  -0.023591  2.377522  -0.04  -0.307965  -0.500798  -0.036574  2.395917  -0.059
O  O125  1  0.28498709  0.19926565  0.40730124  1  -0.561717  -0.042798  2.117895  -0.069  -0.53567  -0.027995  2.390293  -0.046  -0.57266  -0.021469  2.378397  -0.036  -0.309371  -0.507339  -0.034508  2.397366  -0.056
O  O126  1  0.93787183  0.75049782  0.46103315  1  -0.597404  -0.054328  2.051789  -0.087  -0.577856  -0.03256  2.326408  -0.054  -0.617063  -0.024264  2.314479  -0.041  -0.316776  -0.547836  -0.040336  2.333653  -0.065
O  O127  1  0.55810240  0.24924940  0.96002690  1  -0.596874  0.045179  2.07171  0.07  -0.573342  0.028535  2.343259  0.046  -0.60916  0.021821  2.330427  0.036  -0.30958  -0.546316  0.034996  2.351239  0.055
O  O128  1  0.06140453  0.24768145  0.54027852  1  -0.595826  -0.043832  2.073271  -0.07  -0.572442  -0.02799  2.345068  -0.046  -0.608225  -0.021304  2.332447  -0.036  -0.309025  -0.545278  -0.034546  2.352885  -0.055
O  O129  1  0.44391601  0.74741338  0.03911858  1  -0.594865  -0.057075  2.051098  -0.091  -0.575446  -0.034426  2.325163  -0.056  -0.61468  -0.026269  2.312939  -0.044  -0.315929  -0.545128  -0.041727  2.33247  -0.067
O  O130  1  0.41745624  0.41521105  0.05944215  1  -0.791643  0.045958  1.982183  0.069  -0.760351  0.032524  2.192637  0.05  -0.79116  0.025602  2.160442  0.041  -0.573962  -0.736671  0.038672  2.213963  0.058
O  O131  1  0.09079109  0.59162365  0.55306511  1  -0.779151  -0.03566  2.018048  -0.056  -0.73862  -0.028768  2.222445  -0.045  -0.767678  -0.022805  2.195155  -0.037  -0.544562  -0.71676  -0.034092  2.241859  -0.052
O  O132  1  0.59071632  0.58800247  0.94211542  1  -0.780021  -0.036055  2.014028  -0.056  -0.739701  -0.029192  2.216962  -0.045  -0.768788  -0.023338  2.189819  -0.037  -0.545085  -0.717755  -0.034293  2.236112  -0.052
O  O133  1  0.91707328  0.41298946  0.44001598  1  -0.796114  -0.04321  1.982002  -0.068  -0.763896  -0.031289  2.18953  -0.05  -0.794692  -0.02451  2.157157  -0.04  -0.575347  -0.740201  -0.037376  2.212419  -0.058
