# generated using pymatgen
data_Zn3H9C34I10Cl11O12
_symmetry_space_group_name_H-M   'P 1'
_cell_length_a   21.61478653
_cell_length_b   21.77324434
_cell_length_c   21.93434207
_cell_angle_alpha   60.13001465
_cell_angle_beta   60.79963230
_cell_angle_gamma   89.76696997
_symmetry_Int_Tables_number   1
_chemical_formula_structural   Zn3H9C34I10Cl11O12
_chemical_formula_sum   'Zn6 H18 C68 I20 Cl22 O24'
_cell_volume   7414.56467780
_cell_formula_units_Z   2
loop_
 _symmetry_equiv_pos_site_id
 _symmetry_equiv_pos_as_xyz
  1  'x, y, z'
loop_
 _atom_site_type_symbol
 _atom_site_label
 _atom_site_symmetry_multiplicity
 _atom_site_fract_x
 _atom_site_fract_y
 _atom_site_fract_z
 _atom_site_occupancy
 _atom_site_pbe_bader_charge
 _atom_site_pbe_bader_spin_density
 _atom_site_pbe_cm5_charge
 _atom_site_pbe_ddec_charge
 _atom_site_pbe_ddec_spin_density
 _atom_site_pbe_ddec_sum_bond_order
 _atom_site_pbe_magmom
Zn  Zn0  1  0.03531073  0.99932988  0.50638213  1  1.310613  0  0.738574  0.992432  0  2.134812  0
Zn  Zn1  1  0.91299324  0.00226064  0.49956108  1  1.289607  0  0.727183  0.959104  0  2.039712  0
Zn  Zn2  1  0.51459543  0.56329806  0.49883832  1  1.320626  0  0.738398  0.985193  0  2.115798  0
Zn  Zn3  1  0.51694503  0.44242659  0.48974392  1  1.314698  0  0.73537  0.985259  0  2.065547  0
Zn  Zn4  1  0.96810122  0.45861105  0.58936521  1  1.32299  0  0.726366  0.994155  0  2.009099  0
Zn  Zn5  1  0.05335266  0.54540507  0.41422222  1  1.322262  0  0.732425  0.993934  0  2.019289  0
H  H6  1  0.91334483  0.21228844  0.51284109  1  0.120518  0  0.104612  0.112832  0  0.992087  0
H  H7  1  0.89427726  0.21217019  0.65963642  1  0.102573  0  0.094739  0.093809  0  1.006638  0
H  H8  1  0.01828801  0.24450118  0.40910031  1  0.106052  0  0.11306  0.107307  0  0.951581  0
H  H9  1  0.98983012  0.33102759  0.43528534  1  0.108154  0  0.104122  0.093732  0  0.984866  0
H  H10  1  0.32497218  0.36224578  0.96157788  1  0.101456  0  0.116285  0.123365  0  0.958658  0
H  H11  1  0.82992020  0.77587446  0.01649203  1  0.127003  0  0.123861  0.145667  0  0.939712  0
H  H12  1  0.91319426  0.62873784  0.66054356  1  0.136936  0  0.078802  0.097543  0  1.082315  0
H  H13  1  0.96440703  0.72375405  0.43575925  1  0.137898  0  0.091043  0.118598  0  1.016466  0
H  H14  1  0.87757770  0.76740042  0.58279534  1  0.14301  0  0.081132  0.10221  0  1.070593  0
H  H15  1  0.71941705  0.59176290  0.45110962  1  0.153095  0  0.105789  0.116944  0  0.995711  0
H  H16  1  0.76914867  0.46802919  0.38299100  1  0.116591  0  0.100672  0.098455  0  1.003884  0
H  H17  1  0.83419011  0.39643935  0.48010647  1  0.117801  0  0.086156  0.074994  0  1.070048  0
H  H18  1  0.76446422  0.38750529  0.58653747  1  0.103294  0  0.096241  0.117358  0  1.017004  0
H  H19  1  0.30012758  0.18569722  0.95151350  1  0.081559  0  0.115744  0.122251  0  0.961115  0
H  H20  1  0.25684389  0.40090664  0.58401736  1  0.125139  0  0.086401  0.085427  0  1.072219  0
H  H21  1  0.20838625  0.40105538  0.49621466  1  0.118647  0  0.0762  0.076891  0  1.111788  0
H  H22  1  0.30022552  0.20746106  0.06906834  1  0.102447  0  0.115719  0.11319  0  0.964188  0
H  H23  1  0.31503493  0.58236843  0.33386043  1  0.123767  0  0.0907  0.112642  0  1.030321  0
C  C24  1  0.99601200  0.10899651  0.52100496  1  1.602969  0  0.207539  0.586085  0  4.129278  0
C  C25  1  0.18403118  0.21577540  0.08662898  1  0.12082  0  0.003677  0.092161  0  3.8003  0
C  C26  1  0.27135875  0.21903781  0.97321983  1  0.016422  0  -0.066906  -0.088539  0  3.620015  0
C  C27  1  0.28643419  0.30539148  0.91220257  1  0.095407  0  0.01139  0.101548  0  3.782949  0
C  C28  1  0.18531280  0.20488027  0.01958510  1  -0.146608  0  -0.036598  0.004834  0  3.573352  0
C  C29  1  0.19828386  0.29042732  0.96061429  1  0.172102  0  0.022516  0.082062  0  3.734315  0
C  C30  1  0.13076515  0.17058978  0.17519551  1  0.06964  0  -0.025743  -0.014634  0  4.059191  0
C  C31  1  0.33729739  0.35180455  0.82300247  1  -0.149155  0  -0.021699  -0.016719  0  4.046287  0
C  C32  1  0.02792942  0.16681162  0.58717136  1  0.009028  0  0.002541  0.090037  0  3.502771  0
C  C33  1  0.03616153  0.24361801  0.58221637  1  0.016841  0  0.009189  0.086223  0  3.534366  0
C  C34  1  0.04340939  0.24645494  0.44136487  1  0.081855  0  -0.052092  0.011761  0  3.771965  0
C  C35  1  0.03667833  0.08551862  0.34271806  1  1.586801  0  0.22504  0.672472  0  4.216533  0
C  C36  1  0.91894956  0.18680524  0.56656355  1  -0.156344  0  -0.109495  -0.081872  0  3.668305  0
C  C37  1  0.99697611  0.17316262  0.53325774  1  0.036508  0  -0.020594  -0.052435  0  3.703953  0
C  C38  1  0.99807406  0.29359892  0.53996862  1  0.030824  0  -0.017102  -0.077535  0  3.679663  0
C  C39  1  0.03364911  0.31543923  0.44615776  1  0.108816  0  -0.051968  0.024851  0  3.721321  0
C  C40  1  0.91735786  0.24126781  0.59174195  1  0.114028  0  -0.058241  0.032296  0  3.800027  0
C  C41  1  0.68661779  0.70031526  0.04101647  1  -0.13617  0  -0.043293  -0.00433  0  3.572943  0
C  C42  1  0.66781859  0.77079303  0.99105178  1  -0.138886  0  -0.044764  0.005272  0  3.594048  0
C  C43  1  0.81513913  0.88469425  0.75067829  1  -0.325092  0  -0.033537  -0.15103  0  3.945365  0
C  C44  1  0.64312447  0.66255772  0.24721155  1  0.128639  0  -0.037376  -0.151522  0  3.958802  0
C  C45  1  0.77170752  0.74011314  0.96638904  1  -0.143007  0  -0.036733  0.026871  0  3.577506  0
C  C46  1  0.99485804  0.88098803  0.50993089  1  1.617808  0  0.20551  0.588178  0  4.133111  0
C  C47  1  0.75307425  0.81106556  0.91454433  1  0.120618  0  0.003285  0.066932  0  3.807647  0
C  C48  1  0.78381265  0.77449238  0.00883170  1  -0.010571  0  -0.0671  -0.123026  0  3.616282  0
C  C49  1  0.69902394  0.73466237  0.08484034  1  0.146043  0  0.004893  0.117085  0  3.821368  0
C  C50  1  0.76473784  0.84409768  0.95995374  1  0.151854  0  0.026515  0.114735  0  3.728704  0
C  C51  1  0.67976941  0.80520350  0.03415575  1  -0.138601  0  -0.044336  -0.026243  0  3.588912  0
C  C52  1  0.78368868  0.85060459  0.82717879  1  0.124331  0  -0.034253  -0.020451  0  4.066081  0
C  C53  1  0.67112818  0.69639745  0.17136615  1  -0.376501  0  -0.035676  -0.031369  0  4.063841  0
C  C54  1  0.06182105  0.77839446  0.52275465  1  0.257846  0  0.059021  0.18297  0  3.622303  0
C  C55  1  0.05081823  0.69489696  0.54346236  1  0.009026  0  0.001859  0.064687  0  3.514241  0
C  C56  1  0.91897748  0.74534444  0.59442361  1  -0.180724  0  -0.126234  -0.064988  0  3.69439  0
C  C57  1  0.86259570  0.92587263  0.65978182  1  1.610297  0  0.217882  0.658237  0  4.233203  0
C  C58  1  0.99909932  0.81584445  0.43823304  1  -0.234967  0  -0.033697  0.072511  0  3.308903  0
C  C59  1  0.99535279  0.80640767  0.51691552  1  0.023322  0  -0.020624  -0.067576  0  3.675236  0
C  C60  1  0.99059997  0.67770071  0.52880477  1  0.04105  0  -0.017143  -0.022555  0  3.671012  0
C  C61  1  0.91721730  0.67141176  0.60276662  1  -0.186335  0  -0.123524  -0.064276  0  3.697353  0
C  C62  1  0.00710981  0.74356647  0.44063585  1  -0.156511  0  -0.113774  -0.076228  0  3.57902  0
C  C63  1  0.63312221  0.47425324  0.49060474  1  1.605236  0  0.210324  0.590971  0  4.128667  0
C  C64  1  0.42998646  0.43896286  0.65502096  1  1.617061  0  0.226211  0.677402  0  4.209124  0
C  C65  1  0.40904236  0.49139826  0.47514010  1  1.611963  0  0.211518  0.603173  0  4.109832  0
C  C66  1  0.60032209  0.61342443  0.33810625  1  1.637015  0  0.214329  0.65425  0  4.25444  0
C  C67  1  0.14813985  0.52317992  0.45951628  1  1.591554  0  0.215883  0.603604  0  4.034526  0
C  C68  1  0.28499385  0.31654259  0.97886903  1  -0.01504  0  -0.064633  -0.086391  0  3.616788  0
C  C69  1  0.99654707  0.36528650  0.54126900  1  1.604242  0  0.210089  0.591859  0  4.091026  0
C  C70  1  0.90844513  0.50422693  0.47254148  1  1.609468  0  0.217911  0.607072  0  4.053134  0
C  C71  1  0.98648119  0.60271299  0.53411209  1  1.602193  0  0.214846  0.598324  0  4.058578  0
C  C72  1  0.75411823  0.56266756  0.42666239  1  0.083094  0  -0.054106  -0.004417  0  3.720904  0
C  C73  1  0.82667986  0.57535202  0.42499071  1  -0.005638  0  0.003346  0.111611  0  3.535304  0
C  C74  1  0.68918559  0.44799834  0.57626573  1  0.245954  0  0.055483  0.213625  0  3.736237  0
C  C75  1  0.75711704  0.43984997  0.44689423  1  0.110652  0  -0.056028  0.024429  0  3.75234  0
C  C76  1  0.70676878  0.47795493  0.48655413  1  0.047746  0  -0.018128  -0.09179  0  3.722087  0
C  C77  1  0.83565497  0.49794680  0.47440789  1  0.032179  0  -0.012078  -0.043088  0  3.640559  0
C  C78  1  0.76328826  0.44374484  0.57012189  1  -0.128422  0  -0.10977  -0.11453  0  3.573795  0
C  C79  1  0.19900446  0.30262712  0.02517963  1  -0.13087  0  -0.034095  0.008589  0  3.5642  0
C  C80  1  0.83192907  0.45105499  0.43967691  1  0.089807  0  -0.058018  0.009963  0  3.768887  0
C  C81  1  0.26732973  0.46029977  0.55869742  1  0.10668  0  -0.071166  -0.013977  0  3.793084  0
C  C82  1  0.19989649  0.48091010  0.55383134  1  0.004695  0  -0.002421  0.106028  0  3.554195  0
C  C83  1  0.34865493  0.58389762  0.41018097  1  0.021967  0  0.002751  0.139653  0  3.587759  0
C  C84  1  0.32605434  0.45390516  0.43467171  1  0.243662  0  0.062512  0.200495  0  3.629971  0
C  C85  1  0.34133845  0.49914033  0.46742742  1  0.040891  0  -0.014897  -0.101032  0  3.645726  0
C  C86  1  0.21940616  0.51422323  0.46179337  1  0.027281  0  -0.013803  -0.030779  0  3.622555  0
C  C87  1  0.29047314  0.58605933  0.38857790  1  -0.156099  0  -0.121902  -0.113449  0  3.673471  0
C  C88  1  0.24904537  0.45628094  0.44175820  1  0.109787  0  -0.065994  -0.04261  0  3.762923  0
C  C89  1  0.08419218  0.13188382  0.25155454  1  -0.25805  0  -0.0412  -0.17285  0  3.945334  0
C  C90  1  0.38009387  0.39232510  0.74602132  1  -0.066579  0  -0.041177  -0.177463  0  3.955054  0
C  C91  1  0.27152567  0.23139230  0.03748731  1  -0.034926  0  -0.061853  -0.059042  0  3.606471  0
I  I92  1  0.14269515  0.36706801  0.06602056  1  0.112108  0  0.045569  -0.044144  0  1.242767  0
I  I93  1  0.81284422  0.09657123  0.65955907  1  0.086889  0  0.03629  -0.040013  0  1.487159  0
I  I94  1  0.57973625  0.76901886  0.97568733  1  0.14825  0  0.068678  -0.009884  0  1.362459  0
I  I95  1  0.62578127  0.58922341  0.10614094  1  0.152242  0  0.075707  0.004056  0  1.402794  0
I  I96  1  0.60963088  0.85471111  0.08804127  1  0.165254  0  0.0888  0.020426  0  1.442104  0
I  I97  1  0.84397101  0.69096795  0.91299089  1  0.151133  0  0.090277  0.019206  0  1.479287  0
I  I98  1  0.01900059  0.60700246  0.67598148  1  0.10772  0  0.052747  -0.023  0  1.579711  0
I  I99  1  0.87258876  0.72871311  0.71735937  1  0.064276  0  0.015701  -0.074212  0  1.650615  0
I  I100  1  0.89413239  0.82687452  0.44147278  1  0.093318  0  0.06594  -0.016767  0  1.539473  0
I  I101  1  0.07585466  0.92683819  0.31835838  1  0.117174  0  0.038745  -0.042924  0  1.712825  0
I  I102  1  0.10504658  0.76669976  0.32110468  1  0.094443  0  0.030101  -0.037456  0  1.641176  0
I  I103  1  0.81124524  0.61877707  0.63490685  1  0.075507  0  0.038152  -0.037759  0  1.680562  0
I  I104  1  0.92338721  0.66126608  0.29502590  1  0.140986  0  0.03073  -0.056632  0  1.52123  0
I  I105  1  0.10736918  0.11727738  0.05338890  1  0.115509  0  0.050544  -0.037718  0  1.271404  0
I  I106  1  0.74925431  0.42850854  0.68288317  1  0.132583  0  0.043055  -0.02321  0  1.635326  0
I  I107  1  0.10996420  0.36831666  0.64976860  1  0.07505  0  0.021157  -0.095687  0  1.773751  0
I  I108  1  0.27942894  0.69592393  0.32950640  1  0.143156  0  0.061468  0.010461  0  1.728473  0
I  I109  1  0.46001852  0.65511839  0.28852109  1  0.084925  0  0.023348  -0.090841  0  1.728417  0
I  I110  1  0.94917305  0.06183434  0.71412316  1  0.127599  0  0.042601  -0.055575  0  1.873108  0
I  I111  1  0.99148106  0.21370661  0.71337313  1  0.115785  0  0.072249  0.015791  0  1.70943  0
Cl  Cl112  1  0.13022448  0.29854861  0.51856000  1  -0.152699  0  0.003516  -0.048715  0  1.895809  0
Cl  Cl113  1  0.13680409  0.24977062  0.37844440  1  -0.196517  0  -0.045487  -0.092366  0  1.525499  0
Cl  Cl114  1  0.11387629  0.39417228  0.35684669  1  -0.18345  0  -0.04623  -0.087701  0  1.621696  0
Cl  Cl115  1  0.85495901  0.29183490  0.57583753  1  -0.244709  0  -0.017398  -0.08365  0  1.573218  0
Cl  Cl116  1  0.81279810  0.93526631  0.91087184  1  -0.189288  0  0.000114  -0.042674  0  1.614092  0
Cl  Cl117  1  0.06654742  0.77973273  0.60099888  1  -0.165847  0  -0.023942  -0.065703  0  1.685331  0
Cl  Cl118  1  0.15006774  0.84037645  0.42586504  1  -0.165671  0  -0.025076  -0.068988  0  1.691325  0
Cl  Cl119  1  0.13444564  0.68587602  0.47959049  1  -0.160987  0  -0.029627  -0.071583  0  2.08552  0
Cl  Cl120  1  0.15264846  0.32782832  0.91159215  1  -0.174528  0  -0.011912  -0.069274  0  1.493443  0
Cl  Cl121  1  0.76728383  0.59980605  0.32608317  1  -0.214946  0  -0.015861  -0.057869  0  1.561642  0
Cl  Cl122  1  0.81710341  0.61766375  0.48026316  1  -0.205364  0  -0.042207  -0.106887  0  1.761491  0
Cl  Cl123  1  0.64655500  0.50470230  0.61185451  1  -0.178939  0  -0.024222  -0.08019  0  1.604221  0
Cl  Cl124  1  0.71838688  0.34297207  0.49497485  1  -0.207978  0  -0.049151  -0.101638  0  1.443103  0
Cl  Cl125  1  0.90822329  0.48169114  0.33567109  1  -0.219802  0  -0.044748  -0.091483  0  1.458135  0
Cl  Cl126  1  0.62171895  0.35629924  0.65423919  1  -0.17994  0  -0.027843  -0.095966  0  1.479874  0
Cl  Cl127  1  0.27121430  0.46324127  0.63603044  1  -0.187538  0  -0.029282  -0.058345  0  1.561423  0
Cl  Cl128  1  0.16490848  0.53796778  0.58860834  1  -0.1605  0  -0.033243  -0.07966  0  1.864024  0
Cl  Cl129  1  0.33726251  0.62881704  0.46226453  1  -0.170048  0  -0.022002  -0.050306  0  1.703445  0
Cl  Cl130  1  0.40337512  0.48660491  0.33178893  1  -0.163518  0  -0.017158  -0.081421  0  1.684923  0
Cl  Cl131  1  0.31183290  0.35500385  0.50075291  1  -0.178949  0  -0.015964  -0.074318  0  1.474765  0
Cl  Cl132  1  0.25503671  0.46810764  0.35326295  1  -0.182636  0  -0.016612  -0.039153  0  1.657288  0
Cl  Cl133  1  0.11428322  0.14831652  0.55976323  1  -0.144217  0  -0.028035  -0.051707  0  1.694106  0
O  O134  1  0.04388123  0.07504987  0.52473413  1  -1.126711  0  -0.312409  -0.516373  0  2.419637  0
O  O135  1  0.60793568  0.42534707  0.48524270  1  -1.115933  0  -0.302784  -0.500899  0  2.286372  0
O  O136  1  0.45019365  0.50995934  0.62039886  1  -1.091025  0  -0.31237  -0.520844  0  2.208739  0
O  O137  1  0.44991133  0.40725533  0.61613240  1  -1.154693  0  -0.304605  -0.556424  0  2.254094  0
O  O138  1  0.43291261  0.53791334  0.48287412  1  -1.170204  0  -0.305223  -0.569694  0  2.495264  0
O  O139  1  0.43450148  0.43799479  0.47604291  1  -1.120409  0  -0.305984  -0.509633  0  2.327414  0
O  O140  1  0.58165129  0.64321710  0.38012554  1  -1.102565  0  -0.312251  -0.515143  0  2.208986  0
O  O141  1  0.58294416  0.54435355  0.36889460  1  -1.151058  0  -0.302058  -0.554068  0  2.299991  0
O  O142  1  0.08579047  0.49529195  0.52905364  1  -1.178458  0  -0.304155  -0.556852  0  2.48511  0
O  O143  1  0.15578349  0.55746464  0.38756521  1  -1.109765  0  -0.305095  -0.518834  0  2.328202  0
O  O144  1  0.96163766  0.35681535  0.61328681  1  -1.127343  0  -0.309893  -0.524499  0  2.343247  0
O  O145  1  0.95161955  0.09790677  0.50334222  1  -1.165265  0  -0.30459  -0.55146  0  2.289022  0
O  O146  1  0.02836654  0.42751452  0.47102981  1  -1.166581  0  -0.300845  -0.547797  0  2.458189  0
O  O147  1  0.90166753  0.46948077  0.54272035  1  -1.181831  0  -0.30646  -0.549303  0  2.504294  0
O  O148  1  0.97061052  0.54292574  0.40000533  1  -1.124294  0  -0.304063  -0.509085  0  2.387492  0
O  O149  1  0.95666010  0.54051261  0.60676250  1  -1.129404  0  -0.302913  -0.5148  0  2.323042  0
O  O150  1  0.01336388  0.60807877  0.46551800  1  -1.180681  0  -0.304819  -0.551783  0  2.47304  0
O  O151  1  0.06910351  0.06746801  0.38131153  1  -1.138909  0  -0.301744  -0.552228  0  2.290787  0
O  O152  1  0.96530638  0.06588437  0.37825983  1  -1.103461  0  -0.30923  -0.51445  0  2.216581  0
O  O153  1  0.04904435  0.91390310  0.50291720  1  -1.129013  0  -0.308634  -0.516254  0  2.432724  0
O  O154  1  0.94037115  0.90344062  0.51202885  1  -1.173744  0  -0.304573  -0.552265  0  2.39632  0
O  O155  1  0.93196882  0.93804637  0.62778403  1  -1.128375  0  -0.298768  -0.555426  0  2.31055  0
O  O156  1  0.83212803  0.94780346  0.61765216  1  -1.09407  0  -0.310294  -0.510832  0  2.215777  0
O  O157  1  0.60234546  0.52094264  0.50010065  1  -1.179702  0  -0.307613  -0.574974  0  2.454527  0
