# generated using pymatgen
data_AlH7C17IO9
_symmetry_space_group_name_H-M   'P 1'
_cell_length_a   6.71805498
_cell_length_b   21.38247677
_cell_length_c   25.39416160
_cell_angle_alpha   83.66421284
_cell_angle_beta   90.09718216
_cell_angle_gamma   89.78737049
_symmetry_Int_Tables_number   1
_chemical_formula_structural   AlH7C17IO9
_chemical_formula_sum   'Al4 H28 C68 I4 O36'
_cell_volume   3625.52386122
_cell_formula_units_Z   4
loop_
 _symmetry_equiv_pos_site_id
 _symmetry_equiv_pos_as_xyz
  1  'x, y, z'
loop_
 _atom_site_type_symbol
 _atom_site_label
 _atom_site_symmetry_multiplicity
 _atom_site_fract_x
 _atom_site_fract_y
 _atom_site_fract_z
 _atom_site_occupancy
 _atom_site_pbe_bader_charge
 _atom_site_pbe_bader_spin_density
 _atom_site_pbe_cm5_charge
 _atom_site_pbe_ddec_charge
 _atom_site_pbe_ddec_spin_density
 _atom_site_pbe_ddec_sum_bond_order
 _atom_site_pbe_magmom
Al  Al0  1  0.73950123  0.75243604  0.24906889  1  2.498565  0  0.401716  1.634489  0  2.573131  0
Al  Al1  1  0.26895196  0.25273620  0.74543088  1  2.502501  0  0.404603  1.64732  0  2.572009  0
Al  Al2  1  0.24026634  0.75457854  0.24764527  1  2.502286  0  0.400668  1.638956  0  2.581815  0
Al  Al3  1  0.76867241  0.25259858  0.74895542  1  2.502319  0  0.404648  1.648214  0  2.572799  0
H  H4  1  0.72396106  0.10382646  0.66112318  1  0.135619  0  0.122364  0.131858  0  0.985844  0
H  H5  1  0.26400102  0.90522412  0.33257609  1  0.117999  0  0.120256  0.12907  0  0.987958  0
H  H6  1  0.22183396  0.40091749  0.83636335  1  0.114908  0  0.119178  0.126026  0  0.987815  0
H  H7  1  0.75621880  0.58977539  0.16729500  1  0.147047  0  0.119254  0.130921  0  0.998796  0
H  H8  1  0.26049974  0.10179403  0.52766393  1  0.114884  0  0.117384  0.130257  0  0.983484  0
H  H9  1  0.76795450  0.88878138  0.47748226  1  0.099274  0  0.116336  0.129021  0  0.975482  0
H  H10  1  0.76212991  0.39606447  0.97002866  1  0.098031  0  0.114644  0.125437  0  0.990417  0
H  H11  1  0.21469248  0.59848409  0.03366722  1  0.102155  0  0.116811  0.133557  0  0.973076  0
H  H12  1  0.92430926  0.11046130  0.02929706  1  0.107755  0  0.112092  0.117631  0  0.966123  0
H  H13  1  0.08309142  0.90393321  0.97275156  1  0.107848  0  0.118196  0.125985  0  0.955926  0
H  H14  1  0.41964125  0.39571741  0.46509663  1  0.080716  0  0.111627  0.117022  0  0.96766  0
H  H15  1  0.58936810  0.60047066  0.52286961  1  0.088886  0  0.118352  0.126139  0  0.95811  0
H  H16  1  0.66076121  0.00745978  0.03451913  1  0.134127  0  0.089072  0.093146  0  1.053341  0
H  H17  1  0.34625155  0.00704292  0.96715102  1  0.113832  0  0.089975  0.092552  0  1.054222  0
H  H18  1  0.16143253  0.50064383  0.46015000  1  0.132382  0  0.090378  0.094378  0  1.048575  0
H  H19  1  0.84714677  0.49548339  0.52831967  1  0.11111  0  0.090938  0.09391  0  1.048978  0
H  H20  1  0.46426663  0.98420630  0.55095824  1  0.612731  0  0.338769  0.37567  0  0.867009  0
H  H21  1  0.61361491  0.99272217  0.38266507  1  0.619212  0  0.350288  0.395033  0  0.840878  0
H  H22  1  0.95836033  0.49930012  0.96406505  1  0.631377  0  0.336586  0.384329  0  0.867902  0
H  H23  1  0.04132026  0.47521830  0.13316296  1  0.624225  0  0.348798  0.386656  0  0.845337  0
H  H24  1  0.34129389  0.28358010  0.58207788  1  0.600714  0  0.325239  0.3616  0  0.907261  0
H  H25  1  0.51763686  0.86916740  0.39178708  1  0.605849  0  0.309619  0.345823  0  0.96663  0
H  H26  1  0.84380178  0.21820336  0.91205050  1  0.615661  0  0.321815  0.358869  0  0.913754  0
H  H27  1  0.90561270  0.68844269  0.13954356  1  0.631765  0  0.333505  0.383069  0  0.879945  0
H  H28  1  0.49517198  0.82982545  0.21873011  1  0.631434  0  0.352909  0.431718  0  0.853711  0
H  H29  1  0.51929011  0.16939047  0.75237220  1  0.596396  0  0.361453  0.443152  0  0.831358  0
H  H30  1  0.99418581  0.67495441  0.27336310  1  0.629668  0  0.35694  0.436699  0  0.843434  0
H  H31  1  0.02067659  0.33137241  0.75926577  1  0.628799  0  0.359492  0.441397  0  0.837202  0
C  C32  1  0.48351733  0.67617921  0.32423512  1  1.675417  0  0.28288  0.731888  0  4.132999  0
C  C33  1  0.52234052  0.32868838  0.67028769  1  1.696973  0  0.275929  0.709716  0  4.176397  0
C  C34  1  0.99006836  0.83082865  0.17187126  1  1.666284  0  0.277201  0.720635  0  4.156894  0
C  C35  1  0.02582924  0.17520589  0.82395776  1  1.732858  0  0.272336  0.707641  0  4.180304  0
C  C36  1  0.49277210  0.68025730  0.18113531  1  1.550092  0  0.269682  0.645142  0  4.09324  0
C  C37  1  0.51387504  0.32128008  0.81652934  1  1.58344  0  0.275878  0.657493  0  4.075995  0
C  C38  1  0.98778873  0.82207107  0.31717953  1  1.586892  0  0.273809  0.648168  0  4.095243  0
C  C39  1  0.01353045  0.18420974  0.67820010  1  1.589582  0  0.277955  0.656379  0  4.079339  0
C  C40  1  0.82808855  0.06139169  0.59377623  1  0.035554  0  0.003599  -0.063291  0  3.884869  0
C  C41  1  0.17189308  0.94194647  0.40470999  1  -0.030613  0  -0.014463  -0.101226  0  3.946994  0
C  C42  1  0.32441965  0.43797524  0.90632501  1  -0.024507  0  0.006451  -0.056571  0  3.87843  0
C  C43  1  0.64848153  0.55295848  0.09748860  1  0.017067  0  -0.011017  -0.08949  0  3.935975  0
C  C44  1  0.84302396  0.10291705  0.63224038  1  0.011154  0  -0.05313  -0.064858  0  3.906972  0
C  C45  1  0.15558580  0.90258934  0.36454867  1  -0.018872  0  -0.066453  -0.085916  0  3.942151  0
C  C46  1  0.34132299  0.40008713  0.86538064  1  0.073795  0  -0.054919  -0.065001  0  3.912814  0
C  C47  1  0.63873727  0.59222873  0.13769636  1  -0.023418  0  -0.071261  -0.092802  0  3.963636  0
C  C48  1  0.00279486  0.14418556  0.63368206  1  0.027271  0  0.006736  -0.041107  0  3.897044  0
C  C49  1  0.00061161  0.85957819  0.36331591  1  0.044337  0  -0.001994  -0.049759  0  3.926611  0
C  C50  1  0.50294811  0.35948744  0.86212007  1  -0.001281  0  0.003796  -0.048467  0  3.906625  0
C  C51  1  0.48547236  0.63601086  0.13969019  1  0.027776  0  -0.009442  -0.071813  0  3.949557  0
C  C52  1  0.15063391  0.14551806  0.59429773  1  -0.032184  0  0.011125  -0.010404  0  3.920535  0
C  C53  1  0.86219559  0.85347518  0.40505543  1  0.009253  0  0.006107  -0.031014  0  3.964829  0
C  C54  1  0.65169714  0.35639117  0.90152943  1  0.036399  0  0.007975  -0.013145  0  3.92889  0
C  C55  1  0.32943539  0.63766855  0.10237471  1  -0.037269  0  0.010916  -0.002514  0  3.926433  0
C  C56  1  0.14368895  0.10212532  0.55737997  1  -0.001812  0  -0.061983  -0.13202  0  3.878324  0
C  C57  1  0.87514523  0.89294339  0.44511220  1  -0.003682  0  -0.075344  -0.158643  0  3.910679  0
C  C58  1  0.64375259  0.39719872  0.94053641  1  0.007415  0  -0.066354  -0.137315  0  3.885628  0
C  C59  1  0.33470261  0.59762862  0.06266262  1  0.034254  0  -0.071559  -0.150426  0  3.879133  0
C  C60  1  0.98514561  0.05899862  0.55667498  1  0.108544  0  0.017027  0.125407  0  4.063731  0
C  C61  1  0.02520369  0.93897608  0.44526127  1  0.088498  0  0.016071  0.142772  0  4.086503  0
C  C62  1  0.48164833  0.43882724  0.94368346  1  0.134362  0  0.018759  0.130348  0  4.052996  0
C  C63  1  0.49523243  0.55540862  0.05862663  1  0.067271  0  0.019629  0.143074  0  4.066815  0
C  C64  1  0.99542752  0.01514564  0.51912061  1  -0.404088  0  -0.02089  -0.046757  0  4.07052  0
C  C65  1  0.02178356  0.97976928  0.48518058  1  0.121693  0  -0.042799  -0.111036  0  4.10081  0
C  C66  1  0.48388817  0.48014168  0.98345864  1  -0.290874  0  -0.025015  -0.055526  0  4.066301  0
C  C67  1  0.49531433  0.51555453  0.01787135  1  0.017103  0  -0.037813  -0.09757  0  4.086626  0
C  C68  1  0.12938025  0.01964450  0.03938279  1  -0.132495  0  -0.029395  0.046573  0  3.549402  0
C  C69  1  0.87755640  0.99480431  0.96236053  1  -0.136939  0  -0.029652  0.042543  0  3.557254  0
C  C70  1  0.62933432  0.48501353  0.45570802  1  -0.140106  0  -0.028955  0.048425  0  3.549789  0
C  C71  1  0.37920162  0.51110511  0.53265831  1  -0.143108  0  -0.029893  0.041129  0  3.558674  0
C  C72  1  0.95844082  0.06436859  0.01677584  1  -0.024344  0  -0.065718  -0.087481  0  3.615787  0
C  C73  1  0.04873214  0.95013852  0.98498275  1  -0.011651  0  -0.062114  -0.083484  0  3.596645  0
C  C74  1  0.45626582  0.44141934  0.47791531  1  -0.002614  0  -0.066723  -0.089672  0  3.61567  0
C  C75  1  0.55246713  0.55462093  0.51044865  1  -0.000696  0  -0.061916  -0.079825  0  3.59413  0
C  C76  1  0.03199549  0.13519816  0.87369159  1  0.207456  0  -0.036514  -0.197739  0  3.973779  0
C  C77  1  0.98134337  0.87604538  0.12578762  1  0.268321  0  -0.037567  -0.191569  0  3.970173  0
C  C78  1  0.52826064  0.36881288  0.62068287  1  0.030386  0  -0.036697  -0.200844  0  3.974642  0
C  C79  1  0.48161390  0.63073119  0.37014598  1  0.253014  0  -0.033283  -0.191355  0  3.963716  0
C  C80  1  0.19449485  0.00712153  0.98251462  1  -0.041227  0  -0.072277  -0.087715  0  3.611814  0
C  C81  1  0.81266419  0.00736043  0.01926853  1  -0.059148  0  -0.074218  -0.093022  0  3.620679  0
C  C82  1  0.69531244  0.49659061  0.51277838  1  -0.032942  0  -0.072048  -0.088583  0  3.610858  0
C  C83  1  0.31341445  0.49946420  0.47558156  1  -0.044944  0  -0.073937  -0.091729  0  3.620926  0
C  C84  1  0.02481811  0.05337171  0.95872677  1  0.115751  0  0.007156  0.112867  0  3.793759  0
C  C85  1  0.98227581  0.96117275  0.04307756  1  0.116477  0  0.010312  0.115141  0  3.786259  0
C  C86  1  0.52355968  0.45144923  0.53613723  1  0.122621  0  0.007822  0.111605  0  3.795465  0
C  C87  1  0.48526732  0.54451951  0.45213640  1  0.107296  0  0.011277  0.111513  0  3.790238  0
C  C88  1  0.03605756  0.09914464  0.91435481  1  -0.556828  0  -0.027647  -0.033926  0  4.073716  0
C  C89  1  0.97288572  0.91467593  0.08688423  1  -0.504757  0  -0.022193  -0.018011  0  4.05957  0
C  C90  1  0.53292821  0.40525913  0.58027029  1  -0.344567  0  -0.026549  -0.029977  0  4.075337  0
C  C91  1  0.47587825  0.59157026  0.40871317  1  -0.473134  0  -0.019318  -0.01081  0  4.056382  0
C  C92  1  0.64013960  0.02436913  0.59429454  1  1.532556  0  0.233267  0.578782  0  4.119288  0
C  C93  1  0.34371097  0.98497785  0.40579259  1  1.467639  0  0.230976  0.571785  0  4.112104  0
C  C94  1  0.13271062  0.47293199  0.91002225  1  1.529902  0  0.23151  0.583335  0  4.134881  0
C  C95  1  0.82854946  0.51359119  0.09335007  1  1.483629  0  0.233329  0.580486  0  4.127822  0
C  C96  1  0.31142997  0.19428227  0.58831626  1  1.553722  0  0.238901  0.587655  0  4.118905  0
C  C97  1  0.70594025  0.80276268  0.41013923  1  1.556735  0  0.234739  0.581483  0  4.13261  0
C  C98  1  0.81319243  0.30749581  0.90567617  1  1.512394  0  0.235928  0.585013  0  4.124459  0
C  C99  1  0.16175422  0.68436211  0.10462678  1  1.581424  0  0.238186  0.594259  0  4.126398  0
I  I100  1  0.32126347  0.03788492  0.10210112  1  0.062877  0  0.046901  -0.070237  0  1.276077  0
I  I101  1  0.68601374  0.97685276  0.89971313  1  0.086725  0  0.067691  -0.043798  0  1.279446  0
I  I102  1  0.82038287  0.46572821  0.39322540  1  0.064693  0  0.045996  -0.070924  0  1.270723  0
I  I103  1  0.18854367  0.52987533  0.59517458  1  0.088581  0  0.066694  -0.044207  0  1.275041  0
O  O104  1  0.32783545  0.69520466  0.20064899  1  -1.243282  0  -0.226158  -0.581777  0  2.383374  0
O  O105  1  0.68644136  0.30559235  0.80154955  1  -1.253077  0  -0.231237  -0.596716  0  2.34513  0
O  O106  1  0.81634259  0.80331176  0.30467478  1  -1.249722  0  -0.226751  -0.578914  0  2.335036  0
O  O107  1  0.18570962  0.19926126  0.69351529  1  -1.244896  0  -0.22854  -0.588783  0  2.34256  0
O  O108  1  0.65171675  0.68935619  0.30256162  1  -1.243081  0  -0.226849  -0.590052  0  2.285948  0
O  O109  1  0.35000567  0.31210234  0.68709678  1  -1.228139  0  -0.225625  -0.578  0  2.301188  0
O  O110  1  0.16151557  0.81091578  0.18733958  1  -1.240517  0  -0.225376  -0.579982  0  2.300456  0
O  O111  1  0.85286304  0.19105983  0.80659826  1  -1.227084  0  -0.228451  -0.585592  0  2.300209  0
O  O112  1  0.66545465  0.69894363  0.19381858  1  -1.240115  0  -0.233335  -0.594174  0  2.330789  0
O  O113  1  0.34943454  0.30892968  0.79510237  1  -1.25123  0  -0.229982  -0.592068  0  2.350202  0
O  O114  1  0.15100205  0.81415744  0.29346480  1  -1.250766  0  -0.231704  -0.587069  0  2.353673  0
O  O115  1  0.84873173  0.19795296  0.69852469  1  -1.249042  0  -0.226998  -0.581749  0  2.354058  0
O  O116  1  0.82415816  0.81493147  0.19384005  1  -1.244709  0  -0.231618  -0.597583  0  2.298744  0
O  O117  1  0.19264811  0.18996211  0.80275452  1  -1.230425  0  -0.22579  -0.574841  0  2.28901  0
O  O118  1  0.31548908  0.69878995  0.30818145  1  -1.238281  0  -0.225109  -0.584139  0  2.283689  0
O  O119  1  0.68883858  0.31445931  0.69218023  1  -1.23177  0  -0.223113  -0.567251  0  2.290553  0
O  O120  1  0.49149039  0.79243271  0.24417428  1  -1.433725  0  -0.447256  -0.983142  0  2.15846  0
O  O121  1  0.51913151  0.21493615  0.74906416  1  -1.396383  0  -0.446734  -0.994993  0  2.187462  0
O  O122  1  0.99073817  0.71483487  0.25099493  1  -1.429373  0  -0.448316  -0.987472  0  2.169882  0
O  O123  1  0.01849282  0.29022357  0.74663036  1  -1.428729  0  -0.445783  -0.991568  0  2.174337  0
O  O124  1  0.53095791  0.01479947  0.63275042  1  -1.142392  0  -0.294492  -0.48451  0  2.055918  0
O  O125  1  0.59524659  0.00424125  0.54657678  1  -1.10736  0  -0.333427  -0.484891  0  2.265194  0
O  O126  1  0.35402678  0.03257240  0.42787318  1  -1.107176  0  -0.274166  -0.455537  0  2.096875  0
O  O127  1  0.50443669  0.96325812  0.37885037  1  -1.122076  0  -0.335643  -0.510396  0  2.263867  0
O  O128  1  0.02864201  0.49244161  0.87220021  1  -1.130011  0  -0.301906  -0.491061  0  2.044511  0
O  O129  1  0.08550509  0.47725379  0.96120588  1  -1.119196  0  -0.328463  -0.482439  0  2.341721  0
O  O130  1  0.89720618  0.49828970  0.05203932  1  -1.133158  0  -0.279802  -0.492045  0  2.174357  0
O  O131  1  0.91844368  0.49719191  0.14104977  1  -1.11056  0  -0.335383  -0.479777  0  2.209689  0
O  O132  1  0.48880200  0.18272963  0.58546518  1  -1.111948  0  -0.280107  -0.471657  0  2.08981  0
O  O133  1  0.23205865  0.25297080  0.58292379  1  -1.092914  0  -0.330243  -0.4708  0  2.245891  0
O  O134  1  0.74515556  0.74763329  0.42259603  1  -1.091716  0  -0.271641  -0.437774  0  2.048737  0
O  O135  1  0.51627752  0.82371412  0.40363575  1  -1.095701  0  -0.332254  -0.461649  0  2.255088  0
O  O136  1  0.99121072  0.31841030  0.90650526  1  -1.117326  0  -0.280123  -0.472077  0  2.097598  0
O  O137  1  0.73420887  0.24885005  0.91214800  1  -1.108374  0  -0.334124  -0.474784  0  2.2424  0
O  O138  1  0.16779486  0.73867931  0.08430898  1  -1.125472  0  -0.286633  -0.472904  0  2.060017  0
O  O139  1  0.00680320  0.65721050  0.13157015  1  -1.137738  0  -0.324271  -0.481418  0  2.336168  0
