# generated using pymatgen
data_Al4H60C79Br2O25
_symmetry_space_group_name_H-M   'P 1'
_cell_length_a   6.64710676
_cell_length_b   20.59156474
_cell_length_c   23.93766101
_cell_angle_alpha   89.87441035
_cell_angle_beta   86.40577306
_cell_angle_gamma   89.22541106
_symmetry_Int_Tables_number   1
_chemical_formula_structural   Al4H60C79Br2O25
_chemical_formula_sum   'Al4 H60 C79 Br2 O25'
_cell_volume   3269.70489113
_cell_formula_units_Z   1
loop_
 _symmetry_equiv_pos_site_id
 _symmetry_equiv_pos_as_xyz
  1  'x, y, z'
loop_
 _atom_site_type_symbol
 _atom_site_label
 _atom_site_symmetry_multiplicity
 _atom_site_fract_x
 _atom_site_fract_y
 _atom_site_fract_z
 _atom_site_occupancy
 _atom_site_pbe_bader_charge
 _atom_site_pbe_bader_spin_density
 _atom_site_pbe_cm5_charge
 _atom_site_pbe_ddec_charge
 _atom_site_pbe_ddec_spin_density
 _atom_site_pbe_ddec_sum_bond_order
 _atom_site_pbe_magmom
Al  Al0  1  0.12303106  0.50121234  0.50521375  1  2.497681  0  0.400109  1.641456  0  2.575327  0
Al  Al1  1  0.62405911  0.49883422  0.50158674  1  2.501031  0  0.401008  1.643918  0  2.572723  0
Al  Al2  1  0.67937081  0.99399762  0.99930440  1  2.499288  0  0.399404  1.632936  0  2.578287  0
Al  Al3  1  0.17847618  0.99647443  0.00319673  1  2.500259  0  0.398745  1.638125  0  2.58237  0
H  H4  1  0.02304653  0.62841346  0.65236234  1  0.087816  0  0.108522  0.114272  0  1.011681  0
H  H5  1  0.60662268  0.69721899  0.53541835  1  0.109232  0  0.114721  0.135159  0  0.981204  0
H  H6  1  0.61809762  0.86640439  0.67287404  1  0.077439  0  0.097051  0.11607  0  1.042106  0
H  H7  1  0.11878777  0.78367632  0.97816781  1  0.096624  0  0.111174  0.128056  0  0.985932  0
H  H8  1  0.85004425  0.87957982  0.84188360  1  0.145422  0  0.111865  0.115474  0  1.07808  0
H  H9  1  0.11870979  0.63584024  0.72615676  1  0.086479  0  0.110453  0.125955  0  1.005607  0
H  H10  1  0.65073501  0.15965679  0.76800147  1  0.076121  0  0.112715  0.116797  0  0.982762  0
H  H11  1  0.61718743  0.23856747  0.69002627  1  0.112778  0  0.112885  0.11709  0  0.981098  0
H  H12  1  0.16213080  0.33222383  0.73399905  1  0.093622  0  0.114012  0.11876  0  0.978654  0
H  H13  1  0.19576255  0.25337918  0.81199063  1  0.047531  0  0.112117  0.115826  0  0.983258  0
H  H14  1  0.69003680  0.73811722  0.31122941  1  0.097205  0  0.1133  0.117076  0  0.983404  0
H  H15  1  0.70099544  0.81467737  0.23034354  1  0.081757  0  0.113041  0.116746  0  0.982389  0
H  H16  1  0.11277149  0.75165903  0.18829475  1  0.101928  0  0.112157  0.115488  0  0.984683  0
H  H17  1  0.10172572  0.67514743  0.26921305  1  0.082984  0  0.112253  0.115712  0  0.983186  0
H  H18  1  0.27676522  0.28585254  0.48393353  1  0.083379  0  0.114658  0.134275  0  0.977564  0
H  H19  1  0.36310959  0.12139417  0.34643933  1  0.071036  0  0.105055  0.104951  0  1.014699  0
H  H20  1  0.40700747  0.32043422  0.05782445  1  0.089215  0  0.105128  0.105706  0  1.009581  0
H  H21  1  0.39812828  0.21400636  0.00839382  1  0.082219  0  0.106905  0.108991  0  0.987347  0
H  H22  1  0.42682245  0.11376735  0.16502386  1  0.068975  0  0.103953  0.105032  0  1.016401  0
H  H23  1  0.40913357  0.38713525  0.24711084  1  0.101032  0  0.105691  0.112545  0  1.096201  0
H  H24  1  0.41638449  0.11669190  0.24476730  1  0.054923  0  0.100926  0.100964  0  1.016619  0
H  H25  1  0.49062307  0.66667689  0.84992840  1  0.044781  0  0.086929  0.050309  0  1.006338  0
H  H26  1  0.51032988  0.63936003  0.77886332  1  0.04901  0  0.093813  0.059675  0  0.971963  0
H  H27  1  0.45624415  0.55118573  0.88213615  1  0.036184  0  0.084239  0.07989  0  0.995243  0
H  H28  1  0.48681082  0.52436513  0.81207123  1  0.017317  0  0.089675  0.083427  0  0.969362  0
H  H29  1  0.83842476  0.57213480  0.80403022  1  -0.00593  0  0.081109  0.111671  0  1.019843  0
H  H30  1  0.81455185  0.51490078  0.85936261  1  0.024081  0  0.086312  0.115359  0  0.997465  0
H  H31  1  0.80656035  0.59910362  0.87426104  1  0.038548  0  0.079239  0.108793  0  1.023193  0
H  H32  1  0.59641079  0.46778831  0.11278320  1  0.060278  0  0.10496  0.070504  0  0.956387  0
H  H33  1  0.65226423  0.43100792  0.17753578  1  0.037072  0  0.099015  0.055607  0  1.006593  0
H  H34  1  0.27491085  0.51371206  0.15758307  1  0.012145  0  0.093205  0.0896  0  0.969977  0
H  H35  1  0.33693446  0.48205210  0.22301581  1  0.015114  0  0.09263  0.090649  0  1.005012  0
H  H36  1  0.65714885  0.54770840  0.21853808  1  0.026566  0  0.082906  0.105763  0  1.01217  0
H  H37  1  0.44163253  0.59854292  0.21444475  1  0.024866  0  0.08207  0.112086  0  1.040385  0
H  H38  1  0.59428359  0.58020787  0.15294041  1  0.047536  0  0.08557  0.109073  0  1.003602  0
H  H39  1  0.67837102  0.43943461  0.26967711  1  0.031674  0  0.098679  0.05966  0  1.007464  0
H  H40  1  0.73967399  0.35819587  0.28832040  1  0.074236  0  0.101341  0.06765  0  0.988676  0
H  H41  1  0.77541094  0.47759246  0.36314660  1  0.067815  0  0.100761  0.102171  0  0.984492  0
H  H42  1  0.85768011  0.39706700  0.37865116  1  0.014091  0  0.096472  0.092246  0  0.98053  0
H  H43  1  0.10171087  0.39984460  0.29327723  1  0.014913  0  0.083756  0.114104  0  1.027953  0
H  H44  1  0.15223439  0.46308702  0.33999706  1  0.029076  0  0.088853  0.126196  0  1.021187  0
H  H45  1  0.02201749  0.48052128  0.27891485  1  -0.006752  0  0.080273  0.099609  0  1.019157  0
H  H46  1  0.09619367  0.09111174  0.44305634  1  0.01904  0  0.103904  0.071334  0  0.958624  0
H  H47  1  0.05273304  0.14114246  0.38398982  1  0.011692  0  0.095794  0.056393  0  1.003809  0
H  H48  1  0.93525476  0.17838944  0.50575182  1  0.030245  0  0.089131  0.082035  0  0.973461  0
H  H49  1  0.87747032  0.22362916  0.44566436  1  0.021679  0  0.090064  0.085854  0  0.976325  0
H  H50  1  0.67178867  0.13093399  0.41232545  1  0.050606  0  0.082306  0.109901  0  1.019056  0
H  H51  1  0.58022214  0.15519192  0.47987515  1  0.067064  0  0.087366  0.123913  0  1.026944  0
H  H52  1  0.73270145  0.08403585  0.47149921  1  0.017005  0  0.080621  0.101719  0  1.00888  0
H  H53  1  0.48960831  0.86963719  0.82144464  1  0.052882  0  0.100499  0.067856  0  0.964037  0
H  H54  1  0.43514528  0.89009327  0.75140820  1  0.060245  0  0.098908  0.062651  0  0.98821  0
H  H55  1  0.60228548  0.98345708  0.83640416  1  0.033475  0  0.094509  0.090944  0  0.978098  0
H  H56  1  0.55063933  0.00359797  0.76682390  1  0.029644  0  0.090248  0.081613  0  0.974421  0
H  H57  1  0.18095030  0.97606297  0.78847706  1  0.043995  0  0.08615  0.116127  0  0.999576  0
H  H58  1  0.25940995  0.03797458  0.83343530  1  0.043352  0  0.08236  0.1127  0  1.031875  0
H  H59  1  0.23601252  0.95720482  0.85830353  1  0.044796  0  0.088017  0.11852  0  1.022343  0
H  H60  1  0.36559532  0.48963141  0.57617794  1  0.625404  0  0.356192  0.437691  0  0.843664  0
H  H61  1  0.90025007  0.46255844  0.43857742  1  0.646487  0  0.338714  0.412273  0  0.907197  0
H  H62  1  0.43661732  0.01327715  0.92998343  1  0.623882  0  0.347518  0.424793  0  0.870151  0
H  H63  1  0.90075546  0.03548587  0.06500395  1  0.618762  0  0.354377  0.435537  0  0.847702  0
C  C64  1  0.37669238  0.57531979  0.42677961  1  1.67776  0  0.277122  0.709775  0  4.168371  0
C  C65  1  0.39235560  0.40331398  0.44491680  1  1.584503  0  0.27727  0.679568  0  4.066646  0
C  C66  1  0.86510800  0.42302090  0.58099516  1  1.692938  0  0.271293  0.714751  0  4.16756  0
C  C67  1  0.84683848  0.59714472  0.55821738  1  1.573361  0  0.272556  0.646374  0  4.092214  0
C  C68  1  0.98463219  0.83817816  0.91215420  1  -0.01911  0  -0.010759  -0.010821  0  4.006054  0
C  C69  1  0.82233021  0.65821429  0.59130180  1  -0.058869  0  -0.014365  -0.026894  0  3.999299  0
C  C70  1  0.11191507  0.72880290  0.90214559  1  -0.105018  0  -0.011596  0.082497  0  3.924439  0
C  C71  1  0.07816780  0.78347211  0.93481468  1  0.059666  0  -0.090568  -0.15535  0  3.990154  0
C  C72  1  0.92428341  0.83705850  0.85798090  1  -0.029315  0  -0.088173  -0.161796  0  3.94702  0
C  C73  1  0.96667409  0.78338005  0.82208775  1  0.013057  0  0.00358  0.078444  0  3.913491  0
C  C74  1  0.07227026  0.72783899  0.84419881  1  -0.036738  0  -0.011359  -0.070055  0  3.938497  0
C  C75  1  0.90246524  0.78268434  0.76488741  1  0.035108  0  -0.008896  -0.076082  0  3.904415  0
C  C76  1  0.95163949  0.72779208  0.73024529  1  -0.024798  0  -0.001085  0.065198  0  3.990288  0
C  C77  1  0.07149983  0.67739034  0.75195878  1  0.033968  0  -0.098877  -0.245072  0  4.00234  0
C  C78  1  0.12938389  0.67616573  0.80589856  1  0.477232  0  0.08276  0.218141  0  4.084678  0
C  C79  1  0.78326334  0.83330846  0.74069043  1  0.451943  0  0.085846  0.227106  0  4.037443  0
C  C80  1  0.70882000  0.82685964  0.68877855  1  0.061351  0  -0.112038  -0.263404  0  4.034203  0
C  C81  1  0.74446802  0.77090052  0.65561750  1  0.013986  0  -0.01089  0.054225  0  4.037343  0
C  C82  1  0.87572602  0.72113712  0.67499330  1  -0.031744  0  -0.003859  0.031312  0  3.947263  0
C  C83  1  0.65299099  0.76135606  0.60413457  1  -0.152872  0  -0.01489  0.068928  0  3.9395  0
C  C84  1  0.68469565  0.70559160  0.57330512  1  0.067607  0  -0.08762  -0.14852  0  3.979793  0
C  C85  1  0.91872482  0.66643570  0.64046385  1  0.026614  0  -0.078428  -0.137682  0  3.936848  0
C  C86  1  0.74290788  0.24163522  0.71698990  1  -0.047782  0  -0.075417  -0.117692  0  3.954896  0
C  C87  1  0.88672936  0.29084114  0.70718219  1  0.125094  0  0.005909  0.130065  0  4.108663  0
C  C88  1  0.05089376  0.29432791  0.74174464  1  -0.034923  0  -0.074863  -0.116448  0  3.950613  0
C  C89  1  0.06980114  0.25033035  0.78510920  1  -0.027433  0  -0.076004  -0.118323  0  3.959042  0
C  C90  1  0.92485730  0.20153362  0.79527141  1  0.146963  0  0.004749  0.125998  0  4.113889  0
C  C91  1  0.76175017  0.19765564  0.76035163  1  -0.050708  0  -0.075429  -0.116211  0  3.952154  0
C  C92  1  0.86875988  0.33624498  0.66328408  1  -0.340885  0  -0.022397  -0.034816  0  4.09192  0
C  C93  1  0.93911715  0.15729673  0.84017495  1  -0.516987  0  -0.018389  -0.029355  0  4.082343  0
C  C94  1  0.94388938  0.11904312  0.87898823  1  0.22414  0  -0.035281  -0.192269  0  3.952855  0
C  C95  1  0.85846632  0.37586192  0.62565710  1  0.049846  0  -0.03825  -0.191428  0  3.950884  0
C  C96  1  0.57072419  0.78383592  0.23904071  1  -0.025115  0  -0.075114  -0.116751  0  3.95033  0
C  C97  1  0.40750133  0.78821108  0.20409967  1  0.100369  0  0.006417  0.129876  0  4.108653  0
C  C98  1  0.23818516  0.74851682  0.21545581  1  -0.051519  0  -0.074518  -0.116788  0  3.954157  0
C  C99  1  0.23207998  0.70596265  0.26049766  1  -0.05444  0  -0.075337  -0.120675  0  3.96425  0
C  C100  1  0.39512536  0.70168461  0.29550526  1  0.157507  0  0.006154  0.128029  0  4.11413  0
C  C101  1  0.56464306  0.74126477  0.28406358  1  -0.040059  0  -0.074192  -0.116539  0  3.950939  0
C  C102  1  0.41308304  0.83242949  0.15874990  1  -0.506508  0  -0.020463  -0.033849  0  4.088715  0
C  C103  1  0.38923006  0.65791771  0.34115810  1  -0.547886  0  -0.020944  -0.03776  0  4.090228  0
C  C104  1  0.38441793  0.62008792  0.38038030  1  0.262329  0  -0.029904  -0.178288  0  3.93913  0
C  C105  1  0.41847702  0.87120623  0.12021507  1  0.226357  0  -0.032377  -0.184687  0  3.945625  0
C  C106  1  0.41253761  0.15807526  0.08501798  1  -0.079612  0  -0.013151  -0.023665  0  4.00625  0
C  C107  1  0.38460807  0.34202472  0.41133934  1  0.012015  0  -0.021229  -0.117899  0  4.008032  0
C  C108  1  0.40864373  0.27495260  0.08107639  1  -0.010294  0  -0.088123  -0.108598  0  4.003069  0
C  C109  1  0.40459957  0.21612295  0.05374545  1  -0.029186  0  -0.088312  -0.109638  0  4.008048  0
C  C110  1  0.42013159  0.15970719  0.14258497  1  0.009347  0  -0.085681  -0.153848  0  3.954408  0
C  C111  1  0.41670120  0.21915229  0.17212239  1  0.012764  0  -0.001372  0.053844  0  3.970782  0
C  C112  1  0.41334922  0.27757866  0.14002351  1  0.002616  0  -0.012475  -0.016906  0  3.997439  0
C  C113  1  0.41575197  0.22173544  0.23255796  1  -0.022549  0  -0.012823  0.01438  0  3.971827  0
C  C114  1  0.41761063  0.28298799  0.25991810  1  -0.014296  0  -0.004436  0.07006  0  3.962129  0
C  C115  1  0.41713689  0.34044652  0.22636558  1  -0.063789  0  -0.120489  -0.303967  0  4.049386  0
C  C116  1  0.41625167  0.33828101  0.16902048  1  0.492181  0  0.082727  0.218376  0  4.077423  0
C  C117  1  0.40621959  0.16387467  0.26520069  1  -0.029241  0  -0.096709  -0.127852  0  4.047395  0
C  C118  1  0.37623711  0.16604071  0.32212527  1  -0.119465  0  -0.101107  -0.138746  0  4.070137  0
C  C119  1  0.36487987  0.22635298  0.35113397  1  0.07673  0  -0.01598  -0.011904  0  4.019683  0
C  C120  1  0.40754055  0.28544498  0.32092152  1  -0.025015  0  -0.009796  -0.060079  0  3.919931  0
C  C121  1  0.31341535  0.22790453  0.40972629  1  0.435022  0  0.07872  0.199082  0  4.072349  0
C  C122  1  0.31887278  0.28530157  0.43919433  1  0.071848  0  -0.095712  -0.207531  0  4.007564  0
C  C123  1  0.43117176  0.34252178  0.35382605  1  0.469149  0  0.080819  0.16732  0  4.008873  0
C  C124  1  0.41001280  0.09399452  0.05596353  1  1.584811  0  0.275591  0.665061  0  4.075687  0
C  C125  1  0.42710813  0.91824295  0.07559603  1  1.682194  0  0.277928  0.71385  0  4.164063  0
C  C126  1  0.95960691  0.89865943  0.94622732  1  1.58293  0  0.27628  0.649276  0  4.080933  0
C  C127  1  0.93491897  0.07271219  0.92421335  1  1.67218  0  0.274319  0.713516  0  4.163963  0
C  C128  1  0.45058903  0.62721924  0.82167189  1  0.393804  0  -0.070474  0.041254  0  3.888571  0
C  C129  1  0.53148632  0.56228140  0.84104265  1  0.012095  0  -0.171135  -0.127837  0  3.994516  0
C  C130  1  0.75977782  0.56215650  0.84480380  1  -0.042449  0  -0.247387  -0.349554  0  3.96867  0
C  C131  1  0.52871117  0.44793291  0.15226315  1  0.413137  0  -0.062992  0.041795  0  3.894203  0
C  C132  1  0.40221093  0.50051840  0.18283879  1  0.017248  0  -0.171344  -0.147521  0  3.98195  0
C  C133  1  0.53068176  0.55998977  0.19269506  1  -0.091572  0  -0.244946  -0.348163  0  3.974026  0
C  C134  1  0.69012155  0.40587439  0.30520858  1  0.369622  0  -0.066203  0.038706  0  3.883406  0
C  C135  1  0.83872996  0.43232525  0.34459477  1  -0.011625  0  -0.171837  -0.147614  0  3.972387  0
C  C136  1  0.03993877  0.44478996  0.31258758  1  -0.026026  0  -0.24873  -0.354759  0  3.965159  0
C  C137  1  0.07765503  0.14168745  0.42910280  1  0.459165  0  -0.067485  0.031681  0  3.91165  0
C  C138  1  0.90026409  0.17397993  0.46156453  1  -0.013317  0  -0.172734  -0.137623  0  3.998898  0
C  C139  1  0.71097433  0.13395061  0.45620038  1  -0.114862  0  -0.249947  -0.356019  0  3.980201  0
C  C140  1  0.53054662  0.90219555  0.78586229  1  0.361006  0  -0.063366  0.039333  0  3.879516  0
C  C141  1  0.50233535  0.97269452  0.80266787  1  -0.003341  0  -0.167361  -0.128993  0  3.992053  0
C  C142  1  0.28267567  0.98686110  0.82167097  1  -0.112895  0  -0.248263  -0.358976  0  3.959744  0
Br  Br143  1  0.47195626  0.82546783  0.57740272  1  -0.083681  0  0.008252  -0.086347  0  1.333816  0
Br  Br144  1  0.20043545  0.65465653  0.94300425  1  -0.064055  0  0.029952  -0.079965  0  1.459576  0
O  O145  1  0.56068455  0.42006853  0.46243444  1  -1.255334  0  -0.232605  -0.595469  0  2.322049  0
O  O146  1  0.20401135  0.56607272  0.45127259  1  -1.233279  0  -0.223498  -0.56627  0  2.274744  0
O  O147  1  0.01729571  0.56781472  0.55519898  1  -1.263724  0  -0.236054  -0.590336  0  2.31367  0
O  O148  1  0.22421167  0.43274573  0.45455634  1  -1.254636  0  -0.232277  -0.596265  0  2.333773  0
O  O149  1  0.04166092  0.43655676  0.56078384  1  -1.22707  0  -0.231778  -0.587486  0  2.285081  0
O  O150  1  0.54265971  0.54869728  0.43861486  1  -1.228175  0  -0.223681  -0.57645  0  2.302225  0
O  O151  1  0.36861838  0.50413347  0.53759517  1  -1.426764  0  -0.446735  -0.994646  0  2.195039  0
O  O152  1  0.69827355  0.44694511  0.56655547  1  -1.245959  0  -0.233238  -0.592427  0  2.271847  0
O  O153  1  0.68906301  0.57825840  0.53587068  1  -1.259778  0  -0.229647  -0.579664  0  2.348714  0
O  O154  1  0.88368059  0.49199807  0.47019844  1  -1.453393  0  -0.450972  -0.99408  0  2.219943  0
O  O155  1  0.26330148  0.94771490  0.06595955  1  -1.239486  0  -0.225942  -0.577502  0  2.285164  0
O  O156  1  0.57479246  0.06163755  0.05100926  1  -1.26029  0  -0.237521  -0.60636  0  2.318293  0
O  O157  1  0.75796557  0.05991268  0.94465908  1  -1.232301  0  -0.233404  -0.592482  0  2.293736  0
O  O158  1  0.59900456  0.92679181  0.05036649  1  -1.230683  0  -0.223359  -0.567283  0  2.276687  0
O  O159  1  0.79109848  0.92896625  0.94820311  1  -1.25909  0  -0.231254  -0.582945  0  2.309891  0
O  O160  1  0.24148128  0.07662248  0.03874657  1  -1.25865  0  -0.235549  -0.597302  0  2.314569  0
O  O161  1  0.43407885  0.99182788  0.96614533  1  -1.42662  0  -0.448647  -0.986613  0  2.18325  0
O  O162  1  0.11577776  0.91610745  0.97008349  1  -1.253841  0  -0.228238  -0.577625  0  2.335391  0
O  O163  1  0.10062656  0.04828264  0.93878546  1  -1.235128  0  -0.228267  -0.593726  0  2.322522  0
O  O164  1  0.91818051  0.00342004  0.03536354  1  -1.419455  0  -0.445932  -0.986432  0  2.175592  0
O  O165  1  0.23348547  0.62192595  0.82198154  1  -1.097986  0  -0.20804  -0.249759  0  2.580052  0
O  O166  1  0.41678647  0.39243081  0.13564688  1  -1.081907  0  -0.192112  -0.218158  0  2.52631  0
O  O167  1  0.48804545  0.40174482  0.33109992  1  -1.07932  0  -0.197826  -0.230279  0  2.558008  0
O  O168  1  0.26817743  0.17146381  0.43857274  1  -1.079512  0  -0.203645  -0.24709  0  2.556659  0
O  O169  1  0.74074961  0.89107468  0.76827983  1  -1.068055  0  -0.200475  -0.232888  0  2.53741  0
