# generated using pymatgen
data_CoH9C15N5O4
_symmetry_space_group_name_H-M   'P 1'
_cell_length_a   9.86391008
_cell_length_b   11.78129537
_cell_length_c   17.37383126
_cell_angle_alpha   89.99357173
_cell_angle_beta   90.00833107
_cell_angle_gamma   99.39910973
_symmetry_Int_Tables_number   1
_chemical_formula_structural   CoH9C15N5O4
_chemical_formula_sum   'Co4 H36 C60 N20 O16'
_cell_volume   1991.90084407
_cell_formula_units_Z   4
loop_
 _symmetry_equiv_pos_site_id
 _symmetry_equiv_pos_as_xyz
  1  'x, y, z'
loop_
 _atom_site_type_symbol
 _atom_site_label
 _atom_site_symmetry_multiplicity
 _atom_site_fract_x
 _atom_site_fract_y
 _atom_site_fract_z
 _atom_site_occupancy
 _atom_site_pbe_bader_charge
 _atom_site_pbe_bader_spin_density
 _atom_site_pbe_cm5_charge
 _atom_site_pbe_ddec_charge
 _atom_site_pbe_ddec_spin_density
 _atom_site_pbe_ddec_sum_bond_order
 _atom_site_pbe_magmom
Co  Co0  1  0.55083117  0.65712334  0.45630021  1  1.258956  -2.5906  0.70218  0.806411  -2.845479  2.56383  -2.555
Co  Co1  1  0.94917171  0.84304409  0.95632542  1  1.257333  2.58716  0.701846  0.805022  2.963572  2.564663  2.551
Co  Co2  1  0.44917115  0.34286832  0.54369509  1  1.258964  -2.590639  0.702236  0.806469  -2.845547  2.563734  -2.555
Co  Co3  1  0.05075334  0.15686970  0.04372571  1  1.256964  -2.587014  0.701806  0.804849  -2.840945  2.56513  -2.551
H  H4  1  0.40831644  0.84739730  0.95177368  1  0.146517  0.000505  0.117156  0.136238  0.000274  0.980778  0.0
H  H5  1  0.09167065  0.65255033  0.45177521  1  0.147149  -0.000534  0.117059  0.136231  -0.00028  0.980583  0.0
H  H6  1  0.59171949  0.15264443  0.04821413  1  0.146561  -0.000515  0.117266  0.136425  -0.00027  0.980512  0.0
H  H7  1  0.90832733  0.34740693  0.54821203  1  0.146468  -0.000529  0.117076  0.136247  -0.000276  0.980559  0.0
H  H8  1  0.65920793  0.70176131  0.78840649  1  0.129089  0.000623  0.116098  0.136148  0.000329  0.990914  0.0
H  H9  1  0.84077787  0.79829830  0.28841411  1  0.128443  -0.000642  0.115997  0.136122  -0.00032  0.990729  0.0
H  H10  1  0.34081217  0.29824423  0.21158651  1  0.129102  -0.000636  0.116124  0.136216  -0.000309  0.990994  0.0
H  H11  1  0.15922737  0.20172002  0.71159558  1  0.128685  -0.000622  0.116014  0.136028  -0.000309  0.990912  0.0
H  H12  1  0.22602366  0.69416124  0.74332283  1  0.127834  0.000143  0.116825  0.135554  7.7e-05  0.984805  0.0
H  H13  1  0.27393901  0.80582065  0.24331284  1  0.127826  -0.000179  0.116793  0.135557  -8.9e-05  0.984626  0.0
H  H14  1  0.77398394  0.30584248  0.25668571  1  0.127564  -0.000161  0.116735  0.135416  -6.8e-05  0.984871  0.0
H  H15  1  0.72606091  0.19417443  0.75668016  1  0.12802  -0.000142  0.116836  0.1356  -6.9e-05  0.984574  0.0
H  H16  1  0.27557942  0.45345015  0.75168966  1  0.05198  -0.00033  0.10038  0.14616  -0.000132  1.012789  0.0
H  H17  1  0.22441506  0.04659336  0.25169580  1  0.052163  0.00054  0.1003  0.146024  0.000215  1.012664  0.0
H  H18  1  0.72440463  0.54654138  0.24829988  1  0.052097  -0.000325  0.100411  0.146106  -0.000124  1.012785  0.0
H  H19  1  0.77561649  0.95344662  0.74829201  1  0.05218  -0.000515  0.100371  0.1461  -0.000202  1.012682  0.0
H  H20  1  0.44385125  0.45223293  0.78699745  1  0.077631  -0.000444  0.109277  0.164155  -0.000175  0.962709  0.0
H  H21  1  0.05614931  0.04776200  0.28701032  1  0.077726  0.000279  0.109257  0.164045  0.000119  0.96269  0.0
H  H22  1  0.55612544  0.54775167  0.21299554  1  0.077837  -0.000463  0.109306  0.164186  -0.000186  0.96262  0.0
H  H23  1  0.94387593  0.95223842  0.71300167  1  0.077869  -0.000283  0.109211  0.164062  -0.00011  0.962808  0.0
H  H24  1  0.37597229  0.35069160  0.71478644  1  0.15998  1.5e-05  0.113428  0.188212  7.4e-05  1.014723  0.0
H  H25  1  0.12396929  0.14933596  0.21480240  1  0.159788  0.000105  0.11347  0.188346  8.8e-05  1.014569  0.0
H  H26  1  0.62401240  0.64930337  0.28520252  1  0.160071  1e-06  0.113411  0.188237  6.4e-05  1.014679  0.0
H  H27  1  0.87600967  0.85067186  0.78519635  1  0.159707  -9.1e-05  0.113477  0.188354  -7.7e-05  1.014712  0.0
H  H28  1  0.53319615  0.89555870  0.70293668  1  0.085152  -0.001205  0.118774  0.096164  -0.000564  1.009382  -0.001
H  H29  1  0.96678329  0.60444722  0.20293256  1  0.085199  0.001174  0.118675  0.095959  0.000558  1.009983  0.001
H  H30  1  0.46680046  0.10442949  0.29705689  1  0.085  -0.001151  0.118756  0.096039  -0.000525  1.009612  -0.001
H  H31  1  0.03324213  0.39558155  0.79706965  1  0.085485  -0.001144  0.118686  0.095976  -0.000512  1.009786  -0.001
H  H32  1  0.70740388  0.09882769  0.52213888  1  0.111402  -0.001119  0.120125  0.099881  -0.000472  0.992075  -0.001
H  H33  1  0.79257218  0.40119494  0.02213299  1  0.111402  0.000952  0.120188  0.099983  0.000483  0.992179  0.001
H  H34  1  0.29262569  0.90116330  0.47786045  1  0.110847  -0.001125  0.120149  0.099838  -0.000477  0.991968  -0.001
H  H35  1  0.20734384  0.59881244  0.97791353  1  0.110913  -0.000958  0.120123  0.099816  -0.000468  0.991928  -0.001
H  H36  1  0.67677494  0.92235991  0.43424496  1  0.129343  -0.001822  0.130781  0.113469  -0.000555  0.970167  -0.001
H  H37  1  0.82322662  0.57766102  0.93422461  1  0.128889  0.001875  0.130704  0.113358  0.000617  0.969984  0.001
H  H38  1  0.32324652  0.07763102  0.56575149  1  0.129333  -0.001826  0.130802  0.113476  -0.000557  0.970236  -0.001
H  H39  1  0.17668627  0.42232399  0.06580350  1  0.129216  -0.001875  0.130777  0.11354  -0.000582  0.970235  -0.001
C  C40  1  0.67287496  0.81465873  0.92367633  1  1.573776  -0.001371  0.189456  0.541778  0.000588  4.247196  -0.002
C  C41  1  0.82710750  0.68537210  0.42369253  1  1.572545  0.001329  0.189502  0.54224  -0.000405  4.247024  0.002
C  C42  1  0.32714702  0.18538978  0.07629594  1  1.57453  0.001349  0.189397  0.541925  -0.000405  4.247377  0.002
C  C43  1  0.17289391  0.31462557  0.57630967  1  1.572289  0.001367  0.189645  0.542423  -0.000386  4.246473  0.002
C  C44  1  0.16135178  0.79098658  0.87292636  1  1.562875  -0.000942  0.196358  0.552468  0.000881  4.240778  -0.003
C  C45  1  0.33862765  0.70898979  0.37291811  1  1.562135  0.000893  0.196388  0.552592  -0.000704  4.241342  0.003
C  C46  1  0.83865836  0.20904724  0.12706894  1  1.562482  0.000926  0.196354  0.552202  -0.000674  4.241685  0.003
C  C47  1  0.66137575  0.29099672  0.62707143  1  1.562414  0.000898  0.196237  0.552444  -0.000705  4.241384  0.003
C  C48  1  0.41779092  0.80281117  0.89757355  1  -0.010277  0.000165  -0.063676  -0.097571  0.000149  3.872201  0.0
C  C49  1  0.08219300  0.69716102  0.39757207  1  -0.011137  -0.001397  -0.063501  -0.096814  -0.000778  3.871423  -0.001
C  C50  1  0.58222696  0.19722614  0.10241944  1  -0.009373  -0.001623  -0.063793  -0.097977  -0.000886  3.871756  -0.001
C  C51  1  0.91780529  0.30281429  0.60242092  1  -0.010464  -0.000549  -0.063564  -0.097031  -0.00033  3.871845  0.0
C  C52  1  0.54656255  0.77884642  0.87499294  1  -0.036271  0.004566  -0.014164  -0.004977  0.002433  3.964199  0.003
C  C53  1  0.95340855  0.72116261  0.37499096  1  -0.035849  -0.004373  -0.014089  -0.006729  -0.002235  3.966053  -0.003
C  C54  1  0.45344380  0.22117792  0.12499775  1  -0.036822  -0.004166  -0.014073  -0.004803  -0.002137  3.96377  -0.003
C  C55  1  0.04659058  0.27882817  0.62500722  1  -0.036235  -0.004343  -0.014072  -0.006502  -0.00223  3.966035  -0.003
C  C56  1  0.30272573  0.77085527  0.85045490  1  0.018004  0.005021  -0.007805  -0.003283  0.002783  3.961841  0.004
C  C57  1  0.19725690  0.72910356  0.35044727  1  0.018436  -0.004834  -0.007909  -0.003585  -0.002595  3.961584  -0.004
C  C58  1  0.69729943  0.22916662  0.14953925  1  0.018169  -0.004547  -0.007807  -0.00315  -0.002437  3.96181  -0.003
C  C59  1  0.80274529  0.27087092  0.64954400  1  0.01808  -0.004874  -0.007844  -0.003514  -0.002626  3.961753  -0.004
C  C60  1  0.55953452  0.72210780  0.80528446  1  -0.0675  -0.000122  -0.082979  -0.189927  -2.1e-05  3.961913  0.0
C  C61  1  0.94044900  0.77791083  0.30527941  1  -0.067913  -0.000994  -0.08289  -0.189307  -0.000536  3.96208  -0.001
C  C62  1  0.44048264  0.27790373  0.19471141  1  -0.067793  -0.001172  -0.083121  -0.190093  -0.00062  3.962039  -0.001
C  C63  1  0.05955210  0.22208512  0.69472049  1  -0.067972  -9.9e-05  -0.082933  -0.189338  -5.6e-05  3.962398  0.0
C  C64  1  0.31643984  0.71710596  0.77961936  1  0.024624  -0.000582  -0.074277  -0.173425  -0.00027  3.951706  0.0
C  C65  1  0.18353831  0.78288226  0.27961515  1  0.025135  -0.000522  -0.074241  -0.173365  -0.000254  3.951596  0.0
C  C66  1  0.68357776  0.28289697  0.22038342  1  0.024859  -0.000673  -0.074129  -0.173212  -0.000343  3.951588  -0.001
C  C67  1  0.81646449  0.21711198  0.72038303  1  0.024352  0.000399  -0.074247  -0.173376  0.000232  3.951594  0.0
C  C68  1  0.44475898  0.69364230  0.75814899  1  0.211371  6e-06  0.080691  0.14995  -9.4e-05  4.069811  0.0
C  C69  1  0.05521858  0.80638322  0.25814104  1  0.211156  -0.000778  0.080679  0.149985  -0.00043  4.069434  -0.001
C  C70  1  0.55525423  0.30635889  0.24184976  1  0.2111  -0.001429  0.080674  0.149893  -0.000758  4.069933  -0.001
C  C71  1  0.94478293  0.19362047  0.74185311  1  0.212011  -0.00063  0.08066  0.150161  -0.000192  4.069468  -0.001
C  C72  1  0.37879544  0.43845225  0.73542117  1  -0.041663  -0.001023  -0.230187  -0.483202  -0.000485  3.926706  -0.001
C  C73  1  0.12116222  0.06155714  0.23541477  1  -0.042008  0.000968  -0.230238  -0.483175  0.000794  3.926615  0.001
C  C74  1  0.62118808  0.56154186  0.26457240  1  -0.042467  -0.001023  -0.230271  -0.483174  -0.0005  3.926504  -0.001
C  C75  1  0.87884218  0.93844570  0.76458283  1  -0.042276  -0.000944  -0.230384  -0.483394  -0.000741  3.926724  -0.001
C  C76  1  0.43460497  0.52016871  0.67445685  1  0.960643  -0.009178  0.258569  0.385075  -0.00553  3.859748  -0.008
C  C77  1  0.06532814  0.97988509  0.17442393  1  0.958882  0.002383  0.258616  0.384941  0.001407  3.859387  0.002
C  C78  1  0.56538816  0.47982804  0.32554017  1  0.961009  -0.009295  0.258556  0.385014  -0.005598  3.859743  -0.009
C  C79  1  0.93468385  0.02012039  0.82558403  1  0.959391  -0.002534  0.258743  0.385221  -0.001392  3.859401  -0.002
C  C80  1  0.50950664  0.68532758  0.61800730  1  0.959488  -0.001508  0.241241  0.212518  -0.00087  3.98529  -0.004
C  C81  1  0.99049900  0.81471759  0.11801051  1  0.959052  -0.002494  0.241276  0.212341  -0.00156  3.985771  0.0
C  C82  1  0.49048702  0.31466660  0.38198742  1  0.959436  -0.001609  0.241253  0.212615  -0.000926  3.985312  -0.004
C  C83  1  0.00952668  0.18527423  0.88200666  1  0.958498  0.002398  0.241199  0.212176  0.001647  3.984847  -0.001
C  C84  1  0.55536697  0.80390539  0.59606539  1  0.56889  0.017411  0.125468  0.109411  0.00938  4.013786  0.011
C  C85  1  0.94463656  0.69615307  0.09605825  1  0.568316  -0.01749  0.125465  0.109163  -0.008978  4.013594  -0.011
C  C86  1  0.44463754  0.19608714  0.40392991  1  0.569292  0.017481  0.125445  0.109405  0.009421  4.013829  0.011
C  C87  1  0.05537627  0.30386788  0.90395317  1  0.569143  0.017382  0.125403  0.10889  0.009395  4.014071  0.011
C  C88  1  0.56729292  0.90171674  0.64310995  1  0.569692  -0.008402  0.054349  0.010127  -0.004359  3.948995  -0.007
C  C89  1  0.93269299  0.59829136  0.14311153  1  0.569933  0.007904  0.054264  0.010224  0.004303  3.949658  0.006
C  C90  1  0.43271331  0.09827409  0.35688305  1  0.569212  -0.008352  0.054329  0.010221  -0.004324  3.948827  -0.007
C  C91  1  0.06730789  0.40170888  0.85690621  1  0.569451  -0.00788  0.054245  0.010166  -0.004072  3.949507  -0.006
C  C92  1  0.66260724  0.01345858  0.54311376  1  0.513685  0.001878  0.050667  0.032326  0.000901  3.949272  -0.001
C  C93  1  0.83736496  0.48653625  0.04311546  1  0.513196  -0.001457  0.050356  0.03189  -0.000453  3.949052  0.001
C  C94  1  0.33741561  0.98652893  0.45688039  1  0.514143  0.001806  0.050862  0.032731  0.000862  3.948869  -0.001
C  C95  1  0.16255408  0.51344365  0.95692530  1  0.514896  0.001367  0.050652  0.032487  0.00056  3.948584  -0.001
C  C96  1  0.64669485  0.91756369  0.49467847  1  0.488556  0.013785  0.062433  0.061381  0.00679  3.915435  0.007
C  C97  1  0.85331113  0.58244732  0.99467348  1  0.488854  -0.013444  0.062609  0.061857  -0.006194  3.914536  -0.007
C  C98  1  0.35332105  0.08242463  0.50531798  1  0.489002  0.013844  0.062236  0.061237  0.006824  3.915564  0.007
C  C99  1  0.14662470  0.41753013  0.00535751  1  0.488056  0.013399  0.06237  0.061042  0.006547  3.91544  0.007
N  N100  1  0.46063848  0.63702490  0.68618091  1  -1.242143  -0.001002  -0.205531  -0.101055  -0.000111  3.692633  0.001
N  N101  1  0.03931890  0.86303434  0.18617138  1  -1.240201  -0.005046  -0.205333  -0.100648  -0.002586  3.693875  -0.004
N  N102  1  0.53936496  0.36297278  0.31381784  1  -1.242197  -0.001219  -0.205523  -0.101047  -0.000184  3.692787  0.0
N  N103  1  0.96068578  0.13695905  0.81382565  1  -1.23974  0.004795  -0.205429  -0.101034  0.002614  3.693373  0.004
N  N104  1  0.46698464  0.49882804  0.60189009  1  -0.717413  -0.049283  -0.213721  -0.211711  -0.028172  3.419683  -0.038
N  N105  1  0.03298245  0.00116955  0.10181824  1  -0.715845  -0.046404  -0.213623  -0.210736  -0.02711  3.425722  -0.037
N  N106  1  0.53300240  0.50116866  0.39810693  1  -0.717379  -0.049282  -0.213764  -0.211755  -0.02817  3.419765  -0.037
N  N107  1  0.96702712  0.99883934  0.89818972  1  -0.716496  0.046397  -0.213531  -0.210908  0.028323  3.425391  0.037
N  N108  1  0.51361122  0.60178163  0.56696548  1  -0.7191  -0.053377  -0.220453  -0.197577  -0.030524  3.504968  -0.041
N  N109  1  0.98645767  0.89831390  0.06697813  1  -0.718759  0.052225  -0.220351  -0.197038  0.032108  3.509019  0.042
N  N110  1  0.48638260  0.39821340  0.43303097  1  -0.718969  -0.053464  -0.220367  -0.197573  -0.030571  3.50506  -0.042
N  N111  1  0.01355823  0.10167441  0.93303674  1  -0.718371  -0.052336  -0.220173  -0.196769  -0.030774  3.509462  -0.042
N  N112  1  0.59276833  0.81322391  0.52090354  1  -1.164503  -0.043699  -0.295988  -0.218749  -0.024789  3.5311  -0.045
N  N113  1  0.90718820  0.68682643  0.02089056  1  -1.164025  0.043678  -0.296157  -0.219022  0.02612  3.530187  0.044
N  N114  1  0.40723876  0.18676607  0.47909118  1  -1.164541  -0.043767  -0.296036  -0.218921  -0.024826  3.531342  -0.045
N  N115  1  0.09277917  0.31317358  0.97911683  1  -1.164562  -0.043759  -0.295965  -0.218281  -0.024812  3.530077  -0.044
N  N116  1  0.62126258  0.00602658  0.61687672  1  -1.172312  0.021262  -0.297604  -0.205776  0.011433  3.315844  0.016
N  N117  1  0.87871380  0.49399345  0.11688818  1  -1.171941  -0.020714  -0.297666  -0.20591  -0.010589  3.316314  -0.016
N  N118  1  0.37875043  0.99396258  0.38311686  1  -1.172417  0.021329  -0.297632  -0.205894  0.011471  3.315392  0.016
N  N119  1  0.12125965  0.50602292  0.88314568  1  -1.172675  0.020559  -0.297624  -0.20579  0.010981  3.315831  0.016
O  O120  1  0.67187954  0.87959543  0.98018987  1  -1.146942  0.024751  -0.327901  -0.536357  0.013061  2.042847  0.021
O  O121  1  0.82812941  0.62038577  0.48017999  1  -1.146697  -0.024424  -0.327787  -0.536135  -0.012256  2.043179  -0.021
O  O122  1  0.32817964  0.12044045  0.01979335  1  -1.147679  -0.024641  -0.327895  -0.536492  -0.012428  2.042854  -0.021
O  O123  1  0.17187440  0.37962480  0.51982797  1  -1.146619  -0.024426  -0.327909  -0.536359  -0.012257  2.042691  -0.021
O  O124  1  0.78046447  0.77360614  0.90000938  1  -1.136539  0.110433  -0.327126  -0.562455  0.060841  2.390179  0.091
O  O125  1  0.71953567  0.72649248  0.40002105  1  -1.135787  -0.11046  -0.327296  -0.562698  -0.058268  2.389757  -0.091
O  O126  1  0.21954534  0.22642596  0.09995887  1  -1.136259  -0.110314  -0.327211  -0.562706  -0.058211  2.390391  -0.091
O  O127  1  0.28046132  0.27349227  0.59997022  1  -1.135562  -0.110423  -0.327346  -0.562651  -0.058251  2.389734  -0.091
O  O128  1  0.14122067  0.80860242  0.94535908  1  -1.121615  0.109943  -0.324936  -0.547311  0.060294  2.288969  0.092
O  O129  1  0.35875222  0.69140871  0.44536823  1  -1.120815  -0.11022  -0.325119  -0.54768  -0.057838  2.289401  -0.092
O  O130  1  0.85878888  0.19148295  0.05462298  1  -1.120832  -0.109915  -0.32504  -0.547176  -0.057701  2.289133  -0.092
O  O131  1  0.64125333  0.30856751  0.55462189  1  -1.121222  -0.110208  -0.32501  -0.547519  -0.057827  2.289386  -0.092
O  O132  1  0.06998104  0.78818510  0.82268564  1  -1.152643  0.032894  -0.317678  -0.543603  0.017458  2.129252  0.028
O  O133  1  0.42998206  0.71178855  0.32269452  1  -1.152841  -0.032854  -0.317559  -0.543426  -0.016663  2.129896  -0.028
O  O134  1  0.93002084  0.21177133  0.17729182  1  -1.153453  -0.032912  -0.317512  -0.543401  -0.016718  2.13035  -0.028
O  O135  1  0.57002196  0.28821773  0.67729445  1  -1.15263  -0.032872  -0.317542  -0.543452  -0.016676  2.129909  -0.028
