# generated using pymatgen
data_ZnH6C14N4O2F3
_symmetry_space_group_name_H-M   'P 1'
_cell_length_a   17.99910969
_cell_length_b   17.98416469
_cell_length_c   18.59091525
_cell_angle_alpha   105.34980262
_cell_angle_beta   115.51649051
_cell_angle_gamma   106.29832308
_symmetry_Int_Tables_number   1
_chemical_formula_structural   ZnH6C14N4O2F3
_chemical_formula_sum   'Zn4 H24 C56 N16 O8 F12'
_cell_volume   4667.64045020
_cell_formula_units_Z   4
loop_
 _symmetry_equiv_pos_site_id
 _symmetry_equiv_pos_as_xyz
  1  'x, y, z'
loop_
 _atom_site_type_symbol
 _atom_site_label
 _atom_site_symmetry_multiplicity
 _atom_site_fract_x
 _atom_site_fract_y
 _atom_site_fract_z
 _atom_site_occupancy
 _atom_site_pbe_bader_charge
 _atom_site_pbe_bader_spin_density
 _atom_site_pbe_cm5_charge
 _atom_site_pbe_ddec_charge
 _atom_site_pbe_ddec_spin_density
 _atom_site_pbe_ddec_sum_bond_order
 _atom_site_pbe_magmom
C  C0  1  0.29582505  0.68398344  0.76140548  1  1.112537  0  0.215996  0.35761  0  4.119879  0
C  C1  1  0.54004998  0.36844212  0.35086410  1  -0.453006  0  -0.029476  0.013442  0  4.156757  0
C  C2  1  0.81172684  0.65016760  0.33424533  1  0.309777  0  -0.132766  -0.168877  0  3.872386  0
C  C3  1  0.60696325  0.51710674  0.30367822  1  0.414249  0  -0.126223  -0.158192  0  3.854923  0
C  C4  1  0.31582363  0.47723693  0.66560125  1  0.344588  0  -0.132869  -0.169884  0  3.872492  0
C  C5  1  0.21346870  0.30332500  0.69651827  1  0.322921  0  -0.126688  -0.159041  0  3.853792  0
C  C6  1  0.76289206  0.49686983  0.64353305  1  0.401416  0  -0.125192  -0.16615  0  3.858126  0
C  C7  1  0.20337745  0.68235976  0.32693292  1  0.376183  0  -0.124868  -0.163087  0  3.860036  0
C  C8  1  0.85299346  0.11919227  0.35651173  1  0.337561  0  -0.124868  -0.164404  0  3.856444  0
C  C9  1  0.35496994  0.87659490  0.67307338  1  0.344557  0  -0.125033  -0.164366  0  3.862552  0
C  C10  1  0.97405205  0.82308762  0.58381111  1  -0.414306  0  -0.023723  0.031536  0  4.132686  0
C  C11  1  0.01764901  0.18914147  0.64923675  1  -0.462886  0  -0.029355  0.0138  0  4.159453  0
C  C12  1  0.23930786  0.39013288  0.41612094  1  -0.313393  0  -0.023872  0.030629  0  4.131289  0
C  C13  1  0.36550221  0.35966861  0.39843622  1  0.633479  0  0.084102  0.174864  0  4.179195  0
C  C14  1  0.38866657  0.36473611  0.33835843  1  0.615305  0  0.082582  0.174319  0  4.187266  0
C  C15  1  0.96128434  0.96702282  0.60156526  1  0.623663  0  0.084284  0.176077  0  4.178983  0
C  C16  1  0.84568987  0.31431760  0.26651785  1  1.105563  0  0.215564  0.361133  0  4.088749  0
C  C17  1  0.02635663  0.05018559  0.66178049  1  0.61029  0  0.082522  0.173999  0  4.188763  0
C  C18  1  0.46709689  0.36276369  0.34249403  1  0.187435  0  -0.060595  -0.176574  0  4.18703  0
C  C19  1  0.29432350  0.37184543  0.40290593  1  0.084266  0  -0.05791  -0.167532  0  4.169509  0
C  C20  1  0.02031940  0.12453396  0.65768258  1  0.203754  0  -0.060991  -0.177452  0  4.189546  0
C  C21  1  0.96898715  0.89135084  0.59708699  1  0.194065  0  -0.058455  -0.169337  0  4.171774  0
C  C22  1  0.92268712  0.53443297  0.23860525  1  1.103938  0  0.216022  0.357184  0  4.120806  0
C  C23  1  0.67901067  0.42871941  0.33915852  1  1.120264  0  0.203625  0.326291  0  4.094551  0
C  C24  1  0.18800953  0.42658155  0.52130534  1  1.120346  0  0.200282  0.32431  0  4.08533  0
C  C25  1  0.08957028  0.33982367  0.66088673  1  1.09477  0  0.203526  0.325887  0  4.094889  0
C  C26  1  0.90536322  0.66667330  0.47861670  1  1.113727  0  0.200047  0.323304  0  4.086109  0
C  C27  1  0.04777073  0.57913829  0.73334553  1  1.113525  0  0.215512  0.360753  0  4.08977  0
C  C28  1  0.04755811  0.72052563  0.59211056  1  1.08276  0  0.214731  0.353684  0  4.077093  0
C  C29  1  0.93882070  0.27585215  0.59273687  1  1.100221  0  0.215951  0.356015  0  4.138663  0
C  C30  1  0.12845639  0.45539424  0.40778097  1  1.049968  0  0.214536  0.352883  0  4.076368  0
C  C31  1  0.68316468  0.34600229  0.40731194  1  1.127823  0  0.216008  0.356331  0  4.138361  0
C  C32  1  0.89807295  0.52099678  0.63960724  1  1.041467  0  0.198929  0.321097  0  4.059095  0
C  C33  1  0.07087191  0.62187186  0.33157402  1  1.084011  0  0.19834  0.316366  0  4.110835  0
C  C34  1  0.88126484  0.25831160  0.36033680  1  1.11184  0  0.199263  0.322423  0  4.059862  0
C  C35  1  0.29022385  0.73933120  0.66840859  1  1.120856  0  0.198317  0.316657  0  4.109827  0
C  C36  1  0.34387161  0.76043628  0.76044830  1  0.173527  0  -0.04701  -0.208337  0  4.229965  0
C  C37  1  0.83319526  0.23340030  0.26720330  1  0.16664  0  -0.045004  -0.20364  0  4.217627  0
C  C38  1  0.00001072  0.58350268  0.23955578  1  0.19477  0  -0.047081  -0.207716  0  4.232164  0
C  C39  1  0.96627645  0.56605811  0.73270194  1  0.204467  0  -0.045096  -0.203111  0  4.219808  0
C  C40  1  0.62550793  0.37949207  0.36373844  1  0.188861  0  -0.042382  -0.20353  0  4.202141  0
C  C41  1  0.18576917  0.41783680  0.44195077  1  0.185001  0  -0.041344  -0.198675  0  4.211953  0
C  C42  1  0.01582803  0.26174275  0.63632365  1  0.227836  0  -0.042241  -0.202659  0  4.203483  0
C  C43  1  0.97589432  0.74370280  0.55795608  1  0.158499  0  -0.041395  -0.198771  0  4.213404  0
C  C44  1  0.96107796  0.58248822  0.80762101  1  -0.276312  0  -0.033551  -0.03216  0  4.137953  0
C  C45  1  0.99951768  0.59129167  0.16679058  1  -0.295328  0  -0.033393  -0.02872  0  4.144329  0
C  C46  1  0.77463505  0.15329323  0.19226691  1  -0.267458  0  -0.033454  -0.03225  0  4.135164  0
C  C47  1  0.42438395  0.83271114  0.83320412  1  -0.306487  0  -0.03337  -0.028448  0  4.142096  0
C  C48  1  0.96681207  0.59122547  0.87810302  1  0.074834  0  -0.04583  -0.064867  0  4.323745  0
C  C49  1  0.99089227  0.59361803  0.09813128  1  0.105428  0  -0.047905  -0.06668  0  4.329852  0
C  C50  1  0.71290527  0.08859208  0.12178712  1  0.060037  0  -0.04572  -0.064263  0  4.322254  0
C  C51  1  0.49535465  0.89272337  0.90180532  1  0.113946  0  -0.047534  -0.066321  0  4.327838  0
C  C52  1  0.97360317  0.59520149  0.95372953  1  0.020033  0  -0.029336  -0.020376  0  4.262629  0
C  C53  1  0.98222143  0.59554629  0.02356210  1  -0.08746  0  -0.029849  -0.023128  0  4.265229  0
C  C54  1  0.64125336  0.01978989  0.04618766  1  0.093146  0  -0.029492  -0.020704  0  4.260922  0
C  C55  1  0.57181798  0.95861173  0.97636414  1  -0.154734  0  -0.03008  -0.023596  0  4.262345  0
F  F56  1  0.31831879  0.66782399  0.83216773  1  -0.629132  0  -0.082445  -0.127756  0  1.34762  0
F  F57  1  0.84994123  0.22133420  0.55377159  1  -0.630471  0  -0.08187  -0.127898  0  1.340157  0
F  F58  1  0.10428697  0.46539329  0.33334579  1  -0.62998  0  -0.076883  -0.116448  0  1.363402  0
F  F59  1  0.66762101  0.29600103  0.44629877  1  -0.633648  0  -0.082028  -0.127899  0  1.339155  0
F  F60  1  0.13188403  0.77073982  0.66651721  1  -0.630678  0  -0.076697  -0.116611  0  1.364528  0
F  F61  1  0.33231425  0.37803968  0.27009247  1  -0.611845  0  -0.111261  -0.137027  0  1.298657  0
F  F62  1  0.42275144  0.34633260  0.46630433  1  -0.612955  0  -0.111541  -0.137916  0  1.298065  0
F  F63  1  0.10770382  0.06193826  0.73011047  1  -0.612536  0  -0.111093  -0.136797  0  1.298699  0
F  F64  1  0.81266166  0.32810032  0.19425272  1  -0.626964  0  -0.077814  -0.122819  0  1.354249  0
F  F65  1  0.88026984  0.95653364  0.53362765  1  -0.612516  0  -0.111564  -0.138074  0  1.297063  0
F  F66  1  0.83587596  0.48616951  0.16785395  1  -0.628675  0  -0.082394  -0.127804  0  1.347833  0
F  F67  1  0.13372058  0.61835479  0.80558708  1  -0.630834  0  -0.077586  -0.122558  0  1.355005  0
H  H68  1  0.63319977  0.55060372  0.37455159  1  0.052647  0  0.10757  0.110637  0  0.977822  0
H  H69  1  0.78291096  0.58247728  0.28715494  1  0.097382  0  0.093164  0.088129  0  1.035731  0
H  H70  1  0.87860426  0.68880896  0.34581345  1  0.085735  0  0.105638  0.113108  0  0.977419  0
H  H71  1  0.76373380  0.67642106  0.30746346  1  0.061938  0  0.112531  0.119297  0  0.969506  0
H  H72  1  0.53377069  0.47064320  0.26607691  1  0.04758  0  0.10593  0.113434  0  0.986298  0
H  H73  1  0.61643438  0.56440688  0.27757238  1  0.072595  0  0.112561  0.117401  0  0.974726  0
H  H74  1  0.29525258  0.49581035  0.71265462  1  0.071459  0  0.093235  0.089557  0  1.034402  0
H  H75  1  0.34302971  0.53239863  0.65383063  1  0.065612  0  0.10603  0.113553  0  0.977669  0
H  H76  1  0.36863596  0.45584250  0.69249073  1  0.071286  0  0.112561  0.119528  0  0.969689  0
H  H77  1  0.17623721  0.25869827  0.62566732  1  0.102035  0  0.107953  0.111375  0  0.977607  0
H  H78  1  0.20465842  0.26772230  0.73419224  1  0.076526  0  0.105863  0.113408  0  0.98589  0
H  H79  1  0.28680568  0.33895039  0.72265536  1  0.084318  0  0.112667  0.117576  0  0.974203  0
H  H80  1  0.79068292  0.56472658  0.68949282  1  0.074872  0  0.107919  0.113509  0  0.977235  0
H  H81  1  0.77323048  0.45853567  0.68090194  1  0.052443  0  0.108861  0.114168  0  0.975409  0
H  H82  1  0.68930260  0.47066835  0.59340364  1  0.06682  0  0.115421  0.125517  0  0.969641  0
H  H83  1  0.17591190  0.71251618  0.28435959  1  0.064122  0  0.106294  0.111582  0  0.983892  0
H  H84  1  0.19131927  0.61829389  0.28592801  1  0.080851  0  0.109158  0.113872  0  0.972873  0
H  H85  1  0.27728578  0.72346119  0.37664564  1  0.068972  0  0.11691  0.124105  0  0.96144  0
H  H86  1  0.87471932  0.10091701  0.31042844  1  0.057761  0  0.107989  0.11335  0  0.977655  0
H  H87  1  0.77739608  0.09241609  0.31929846  1  0.096171  0  0.108626  0.114011  0  0.974674  0
H  H88  1  0.87685475  0.09564147  0.40664084  1  0.106238  0  0.115053  0.124676  0  0.968717  0
H  H89  1  0.42766681  0.89187480  0.71575697  1  0.096516  0  0.107266  0.113074  0  0.984549  0
H  H90  1  0.33166736  0.90525732  0.71395780  1  0.069133  0  0.108859  0.11368  0  0.972849  0
H  H91  1  0.34633297  0.90090885  0.62337397  1  0.0786  0  0.116351  0.123834  0  0.962214  0
N  N92  1  0.22393721  0.62417458  0.68178637  1  -0.834601  0  -0.283932  -0.311762  0  3.560992  0
N  N93  1  0.13564768  0.46389031  0.52994592  1  -0.80204  0  -0.283137  -0.28037  0  3.566493  0
N  N94  1  0.05725285  0.39234218  0.63384380  1  -0.807796  0  -0.280315  -0.284519  0  3.499523  0
N  N95  1  0.93402675  0.60564708  0.46997935  1  -0.797771  0  -0.283317  -0.280475  0  3.566272  0
N  N96  1  0.75849674  0.42342157  0.36617070  1  -0.818479  0  -0.280092  -0.284977  0  3.498745  0
N  N97  1  0.02429209  0.63968286  0.54004242  1  -0.800009  0  -0.287661  -0.30624  0  3.54173  0
N  N98  1  0.96138364  0.35176390  0.59089875  1  -0.816343  0  -0.28541  -0.300134  0  3.536259  0
N  N99  1  0.09966132  0.48415462  0.45984187  1  -0.798334  0  -0.287372  -0.305463  0  3.540685  0
N  N100  1  0.89320980  0.37932433  0.34711196  1  -0.832953  0  -0.295734  -0.312738  0  3.589426  0
N  N101  1  0.76084909  0.37040605  0.40913627  1  -0.823261  0  -0.285164  -0.300133  0  3.535529  0
N  N102  1  0.93721533  0.50827261  0.59243745  1  -0.775629  0  -0.296601  -0.303379  0  3.478963  0
N  N103  1  0.03660382  0.59795705  0.37767197  1  -0.808649  0  -0.288886  -0.291931  0  3.515376  0
N  N104  1  0.91575861  0.34463385  0.40745992  1  -0.801448  0  -0.2971  -0.303879  0  3.47952  0
N  N105  1  0.22030006  0.65896167  0.62232198  1  -0.826712  0  -0.288875  -0.292092  0  3.513713  0
N  N106  1  0.94247973  0.54211597  0.31824332  1  -0.831465  0  -0.28388  -0.311612  0  3.562185  0
N  N107  1  0.03215360  0.54601061  0.65272628  1  -0.833408  0  -0.295749  -0.312732  0  3.588587  0
O  O108  1  0.66080527  0.47397303  0.29249247  1  -1.093236  0  -0.182059  -0.179224  0  2.576291  0
O  O109  1  0.16158655  0.67514354  0.37749209  1  -1.086436  0  -0.181646  -0.173667  0  2.564846  0
O  O110  1  0.89593450  0.21198239  0.40622840  1  -1.086589  0  -0.173381  -0.162245  0  2.595037  0
O  O111  1  0.29754814  0.78421584  0.62247047  1  -1.087829  0  -0.181632  -0.173486  0  2.56528  0
O  O112  1  0.80595362  0.48988768  0.59381381  1  -1.080882  0  -0.173638  -0.160918  0  2.593494  0
O  O113  1  0.23800001  0.40416252  0.58210006  1  -1.085954  0  -0.193835  -0.195568  0  2.53457  0
O  O114  1  0.18138635  0.36828908  0.70755601  1  -1.098312  0  -0.181618  -0.179005  0  2.577019  0
O  O115  1  0.82225713  0.65596439  0.41785438  1  -1.093643  0  -0.193058  -0.193131  0  2.533574  0
Zn  Zn116  1  0.11814542  0.50446365  0.63094308  1  1.221596  0  0.760744  0.730709  0  2.327569  0
Zn  Zn117  1  0.87351155  0.48715383  0.36904285  1  1.222338  0  0.760707  0.731009  0  2.326833  0
Zn  Zn118  1  0.10409709  0.60406516  0.50000104  1  1.213025  0  0.755165  0.714796  0  2.349005  0
Zn  Zn119  1  0.88738416  0.38737130  0.49997754  1  1.210666  0  0.760058  0.71265  0  2.366025  0
