# generated using pymatgen
data_CuH3C4N2O
_symmetry_space_group_name_H-M   'P 1'
_cell_length_a   9.60395506
_cell_length_b   15.93564103
_cell_length_c   15.93402081
_cell_angle_alpha   116.10032797
_cell_angle_beta   101.56544817
_cell_angle_gamma   101.61752839
_symmetry_Int_Tables_number   1
_chemical_formula_structural   CuH3C4N2O
_chemical_formula_sum   'Cu12 H36 C48 N24 O12'
_cell_volume   2025.93346178
_cell_formula_units_Z   12
loop_
 _symmetry_equiv_pos_site_id
 _symmetry_equiv_pos_as_xyz
  1  'x, y, z'
loop_
 _atom_site_type_symbol
 _atom_site_label
 _atom_site_symmetry_multiplicity
 _atom_site_fract_x
 _atom_site_fract_y
 _atom_site_fract_z
 _atom_site_occupancy
 _atom_site_pbe_bader_charge
 _atom_site_pbe_bader_spin_density
 _atom_site_pbe_cm5_charge
 _atom_site_pbe_ddec_charge
 _atom_site_pbe_ddec_spin_density
 _atom_site_pbe_ddec_sum_bond_order
 _atom_site_pbe_magmom
Cu  Cu0  1  0.30791022  0.66800109  0.63213512  1  0.616489  0  0.49647  0.325513  0  2.215028  0
Cu  Cu1  1  0.06675994  0.69460428  0.67794751  1  0.575978  0  0.489985  0.288533  0  2.182639  0
Cu  Cu2  1  0.63923743  0.96414013  0.33173341  1  0.617161  0  0.496442  0.325039  0  2.216662  0
Cu  Cu3  1  0.37142587  0.98304281  0.30532938  1  0.578756  0  0.490129  0.288151  0  2.183541  0
Cu  Cu4  1  0.67595035  0.36801833  0.03592396  1  0.614392  0  0.495887  0.324049  0  2.215803  0
Cu  Cu5  1  0.38923625  0.32228594  0.01680067  1  0.574194  0  0.490477  0.289307  0  2.183223  0
Cu  Cu6  1  0.69208351  0.33199781  0.36786593  1  0.616392  0  0.496457  0.325501  0  2.214974  0
Cu  Cu7  1  0.93323055  0.30539241  0.32205280  1  0.575967  0  0.489954  0.288538  0  2.182582  0
Cu  Cu8  1  0.36074941  0.03585138  0.66826104  1  0.616846  0  0.496399  0.324917  0  2.216607  0
Cu  Cu9  1  0.62856569  0.01695387  0.69466792  1  0.578807  0  0.490102  0.288104  0  2.183528  0
Cu  Cu10  1  0.32405910  0.63198650  0.96407783  1  0.61438  0  0.495965  0.324184  0  2.215851  0
Cu  Cu11  1  0.61077643  0.67772111  0.98319997  1  0.574075  0  0.490434  0.289232  0  2.183224  0
H  H12  1  0.80343175  0.28164503  0.51657879  1  0.110568  0  0.12286  0.103566  0  1.000102  0
H  H13  1  0.97037045  0.38013048  0.69564349  1  0.085301  0  0.11091  0.129154  0  1.003928  0
H  H14  1  0.09004531  0.56400681  0.76647645  1  0.095838  0  0.11301  0.079947  0  1.034917  0
H  H15  1  0.08505771  0.03440790  0.90116512  1  0.050985  0  0.098001  0.107383  0  1.05459  0
H  H16  1  0.00021721  0.84760444  0.81887321  1  0.04838  0  0.108095  0.065131  0  1.038898  0
H  H17  1  0.25110368  0.11274727  0.83249177  1  0.095103  0  0.116135  0.079402  0  1.018116  0
H  H18  1  0.52271608  0.23477676  0.71837341  1  0.112913  0  0.122992  0.104255  0  0.999983  0
H  H19  1  0.59024680  0.31534090  0.61973513  1  0.065625  0  0.111065  0.130175  0  1.003093  0
H  H20  1  0.52505370  0.20213587  0.43579435  1  0.103679  0  0.113363  0.080177  0  1.033183  0
H  H21  1  0.05161465  0.86717055  0.96544552  1  0.050933  0  0.097779  0.107022  0  1.055811  0
H  H22  1  0.15332741  0.97164210  0.15228884  1  0.085463  0  0.108347  0.066013  0  1.038208  0
H  H23  1  0.13802227  0.71955380  0.88716153  1  0.135979  0  0.115741  0.078331  0  1.020483  0
H  H24  1  0.28665589  0.48315721  0.76505811  1  0.114647  0  0.122696  0.104204  0  0.999754  0
H  H25  1  0.27481444  0.30415347  0.68441412  1  0.108282  0  0.110914  0.130042  0  1.003269  0
H  H26  1  0.32417775  0.23359086  0.79757769  1  0.126668  0  0.11287  0.0795  0  1.034807  0
H  H27  1  0.18405087  0.09842907  0.13244146  1  0.052676  0  0.097723  0.107177  0  1.055553  0
H  H28  1  0.18198751  0.18085462  0.02812476  1  0.085841  0  0.108117  0.065262  0  1.038006  0
H  H29  1  0.41791201  0.16778331  0.28019341  1  0.106766  0  0.116129  0.07921  0  1.019023  0
H  H30  1  0.19655990  0.71835610  0.48342047  1  0.110577  0  0.12284  0.103521  0  1.000046  0
H  H31  1  0.02963067  0.61986621  0.30435372  1  0.08536  0  0.110831  0.129058  0  1.00387  0
H  H32  1  0.90995262  0.43598987  0.23351973  1  0.095776  0  0.11305  0.080051  0  1.035  0
H  H33  1  0.91495270  0.96559249  0.09884174  1  0.051095  0  0.098064  0.107536  0  1.054691  0
H  H34  1  0.99977892  0.15239077  0.18113215  1  0.048608  0  0.108099  0.065165  0  1.039044  0
H  H35  1  0.74890137  0.88725090  0.16750719  1  0.095026  0  0.116125  0.079434  0  1.018155  0
H  H36  1  0.47727229  0.76521992  0.28162037  1  0.112903  0  0.122944  0.104249  0  0.999911  0
H  H37  1  0.40973999  0.68464838  0.38025646  1  0.06547  0  0.111102  0.130251  0  1.002899  0
H  H38  1  0.47493175  0.79785711  0.56420059  1  0.10379  0  0.113321  0.080108  0  1.033226  0
H  H39  1  0.94837197  0.13282688  0.03455842  1  0.050947  0  0.097804  0.107013  0  1.055879  0
H  H40  1  0.84666914  0.02835607  0.84771410  1  0.085519  0  0.108334  0.065941  0  1.038168  0
H  H41  1  0.86197687  0.28044955  0.11284401  1  0.135871  0  0.115708  0.078261  0  1.020524  0
H  H42  1  0.71335393  0.51684836  0.23494468  1  0.114673  0  0.122695  0.104273  0  0.999591  0
H  H43  1  0.72519246  0.69584840  0.31558229  1  0.108301  0  0.110901  0.129994  0  1.003439  0
H  H44  1  0.67583993  0.76641767  0.20242923  1  0.126612  0  0.1129  0.079511  0  1.034888  0
H  H45  1  0.81595446  0.90156540  0.86754335  1  0.052477  0  0.097725  0.107184  0  1.055434  0
H  H46  1  0.81802013  0.81914873  0.97186988  1  0.085792  0  0.108166  0.065271  0  1.038037  0
H  H47  1  0.58208541  0.83220598  0.71979381  1  0.107024  0  0.116139  0.079154  0  1.019037  0
C  C48  1  0.85000956  0.36218662  0.55552833  1  0.527211  0  0.058039  0.156043  0  3.936842  0
C  C49  1  0.00673409  0.51737037  0.69284707  1  0.495875  0  0.055472  0.154627  0  3.967723  0
C  C50  1  0.94331866  0.41618618  0.65349233  1  -0.010213  0  -0.113854  -0.236548  0  4.016443  0
C  C51  1  0.08085759  0.88816196  0.79927749  1  0.454832  0  0.041302  0.130059  0  4.01285  0
C  C52  1  0.21628982  0.03324173  0.80518159  1  0.502918  0  0.057102  0.158096  0  3.949546  0
C  C53  1  0.12420380  0.99024721  0.84267568  1  0.03794  0  -0.127321  -0.257748  0  4.070361  0
C  C54  1  0.87190198  0.50791361  0.54464901  1  1.721577  0  0.292702  0.599001  0  4.121764  0
C  C55  1  0.23537604  0.87854735  0.69937815  1  1.717813  0  0.310762  0.610157  0  4.085803  0
C  C56  1  0.48821498  0.19316257  0.63782975  1  0.46813  0  0.058194  0.155693  0  3.939646  0
C  C57  1  0.48875215  0.17516413  0.48254187  1  0.484223  0  0.055466  0.156039  0  3.966718  0
C  C58  1  0.52702001  0.23708736  0.58372935  1  0.080615  0  -0.114882  -0.239883  0  4.019016  0
C  C59  1  0.19303385  0.91127818  0.11172681  1  0.460397  0  0.041331  0.129037  0  4.011295  0
C  C60  1  0.18288482  0.77182153  0.96664808  1  0.460749  0  0.056033  0.157536  0  3.950085  0
C  C61  1  0.13436423  0.85260107  0.00962768  1  -0.017042  0  -0.126738  -0.256281  0  4.069489  0
C  C62  1  0.36350968  0.03643130  0.49215223  1  1.726038  0  0.292449  0.599035  0  4.125206  0
C  C63  1  0.35623733  0.82052394  0.12136767  1  1.713181  0  0.311824  0.61288  0  4.083145  0
C  C64  1  0.29438011  0.44429057  0.80667311  1  0.451077  0  0.058195  0.154309  0  3.938964  0
C  C65  1  0.31423470  0.30716624  0.82459382  1  0.452713  0  0.056477  0.156579  0  3.966871  0
C  C66  1  0.28997424  0.34638552  0.76270837  1  0.033894  0  -0.114281  -0.237847  0  4.018073  0
C  C67  1  0.28195496  0.20066234  0.08852704  1  0.450539  0  0.04175  0.130714  0  4.012549  0
C  C68  1  0.41085176  0.19502072  0.22798199  1  0.478382  0  0.054894  0.15555  0  3.949586  0
C  C69  1  0.28162562  0.15721683  0.14713878  1  0.012793  0  -0.126581  -0.257045  0  4.070487  0
C  C70  1  0.32734788  0.45537998  0.96335855  1  1.730109  0  0.291648  0.596532  0  4.125469  0
C  C71  1  0.53601647  0.30097442  0.17941912  1  1.701186  0  0.312045  0.612565  0  4.082727  0
C  C72  1  0.14997562  0.63781006  0.44446883  1  0.526586  0  0.058042  0.156073  0  3.936802  0
C  C73  1  0.99326209  0.48262705  0.30715049  1  0.49602  0  0.055423  0.154396  0  3.968029  0
C  C74  1  0.05668108  0.58381199  0.34650913  1  -0.010278  0  -0.113787  -0.236398  0  4.016528  0
C  C75  1  0.91914862  0.11184065  0.20072796  1  0.454671  0  0.041397  0.13009  0  4.012899  0
C  C76  1  0.78371307  0.96675422  0.19482178  1  0.502896  0  0.057166  0.158053  0  3.949509  0
C  C77  1  0.87580652  0.00974874  0.15732293  1  0.037898  0  -0.127469  -0.257938  0  4.070263  0
C  C78  1  0.12808649  0.49208751  0.45535238  1  1.722246  0  0.29292  0.599233  0  4.12167  0
C  C79  1  0.76462259  0.12144860  0.30062219  1  1.717973  0  0.310717  0.610181  0  4.085583  0
C  C80  1  0.51177524  0.80683781  0.36216713  1  0.468076  0  0.058205  0.155788  0  3.939619  0
C  C81  1  0.51123557  0.82483552  0.51745627  1  0.484012  0  0.055582  0.156201  0  3.96663  0
C  C82  1  0.47297511  0.76291007  0.41626557  1  0.08073  0  -0.114967  -0.24008  0  4.018883  0
C  C83  1  0.80696534  0.08872739  0.88827657  1  0.460624  0  0.041374  0.129127  0  4.011286  0
C  C84  1  0.81711251  0.22818034  0.03335596  1  0.461177  0  0.056063  0.157615  0  3.949971  0
C  C85  1  0.86563301  0.14739635  0.99037252  1  -0.017492  0  -0.126761  -0.256337  0  4.069554  0
C  C86  1  0.63647874  0.96356761  0.50785068  1  1.72654  0  0.292377  0.599023  0  4.125287  0
C  C87  1  0.64376468  0.17948089  0.87863573  1  1.713186  0  0.311649  0.612426  0  4.083377  0
C  C88  1  0.70562944  0.55571870  0.19333252  1  0.450392  0  0.058146  0.154176  0  3.939129  0
C  C89  1  0.68578275  0.69284821  0.17541819  1  0.45211  0  0.056446  0.156591  0  3.966966  0
C  C90  1  0.71003627  0.65361931  0.23729919  1  0.034171  0  -0.114253  -0.237728  0  4.018309  0
C  C91  1  0.71804654  0.79933509  0.91146426  1  0.450724  0  0.041692  0.130785  0  4.012557  0
C  C92  1  0.58914677  0.80497079  0.77200634  1  0.476909  0  0.054908  0.155743  0  3.949383  0
C  C93  1  0.71837791  0.84277615  0.85285144  1  0.013167  0  -0.126578  -0.257179  0  4.070225  0
C  C94  1  0.67266309  0.54463003  0.03664382  1  1.729637  0  0.291589  0.596606  0  4.125418  0
C  C95  1  0.46399076  0.69902596  0.82057856  1  1.701901  0  0.312018  0.612444  0  4.082952  0
N  N96  1  0.97471034  0.56239921  0.64113860  1  -1.197135  0  -0.405803  -0.359225  0  3.648511  0
N  N97  1  0.81395679  0.40516325  0.50213124  1  -1.210937  0  -0.398866  -0.357566  0  3.623279  0
N  N98  1  0.13276933  0.83240723  0.72958849  1  -1.192652  0  -0.396616  -0.338399  0  3.620952  0
N  N99  1  0.26608183  0.97968434  0.73325683  1  -1.182296  0  -0.3906  -0.337765  0  3.603546  0
N  N100  1  0.41155525  0.07837491  0.43756983  1  -1.212639  0  -0.405126  -0.359052  0  3.647807  0
N  N101  1  0.40902383  0.09675919  0.59493149  1  -1.20977  0  -0.399419  -0.357342  0  3.62707  0
N  N102  1  0.30005897  0.89702776  0.16751171  1  -1.197075  0  -0.39735  -0.339358  0  3.621434  0
N  N103  1  0.28569191  0.75321812  0.02022856  1  -1.164524  0  -0.390036  -0.337842  0  3.60257  0
N  N104  1  0.33392493  0.35895725  0.92138108  1  -1.190484  0  -0.404845  -0.358106  0  3.647542  0
N  N105  1  0.31173881  0.49778587  0.90310349  1  -1.199745  0  -0.39992  -0.357407  0  3.627257  0
N  N106  1  0.40350862  0.27063812  0.10284792  1  -1.176868  0  -0.397864  -0.340108  0  3.620907  0
N  N107  1  0.53252908  0.26716410  0.24668705  1  -1.175836  0  -0.389486  -0.33688  0  3.602028  0
N  N108  1  0.02527813  0.43760192  0.35886279  1  -1.197255  0  -0.405746  -0.359147  0  3.648604  0
N  N109  1  0.18603089  0.59483417  0.49786906  1  -1.210293  0  -0.398929  -0.357681  0  3.623272  0
N  N110  1  0.86723184  0.16759168  0.27041409  1  -1.192819  0  -0.396644  -0.338394  0  3.620854  0
N  N111  1  0.73391648  0.02031309  0.26674161  1  -1.18268  0  -0.390624  -0.337856  0  3.603693  0
N  N112  1  0.58843571  0.92162696  0.56243344  1  -1.212422  0  -0.405251  -0.359195  0  3.648067  0
N  N113  1  0.59096676  0.90324194  0.40506828  1  -1.209779  0  -0.39936  -0.357388  0  3.626988  0
N  N114  1  0.69994332  0.10297336  0.83249135  1  -1.197207  0  -0.397322  -0.339175  0  3.621245  0
N  N115  1  0.71432253  0.24678819  0.97977511  1  -1.164585  0  -0.38993  -0.337579  0  3.602571  0
N  N116  1  0.66609099  0.64105202  0.07862909  1  -1.189725  0  -0.404833  -0.358148  0  3.647613  0
N  N117  1  0.68827472  0.50222710  0.09690488  1  -1.199007  0  -0.399738  -0.357228  0  3.627018  0
N  N118  1  0.59650036  0.72936152  0.89714965  1  -1.176999  0  -0.397965  -0.340224  0  3.621036  0
N  N119  1  0.46746982  0.73282814  0.75330605  1  -1.175883  0  -0.389429  -0.336835  0  3.602299  0
O  O120  1  0.83764968  0.55030202  0.49824481  1  -1.164218  0  -0.336671  -0.550272  0  2.070033  0
O  O121  1  0.29841192  0.83112788  0.64299522  1  -1.17769  0  -0.300916  -0.548541  0  2.290358  0
O  O122  1  0.28655473  0.94764758  0.44984954  1  -1.168962  0  -0.336315  -0.549995  0  2.071787  0
O  O123  1  0.46652869  0.81150389  0.16879817  1  -1.17312  0  -0.300975  -0.549275  0  2.289413  0
O  O124  1  0.33942707  0.50179939  0.05218697  1  -1.17288  0  -0.336001  -0.548945  0  2.072411  0
O  O125  1  0.65551633  0.35744073  0.18859864  1  -1.180255  0  -0.301385  -0.549594  0  2.290132  0
O  O126  1  0.16233458  0.44970132  0.50176019  1  -1.164831  0  -0.336825  -0.55043  0  2.069878  0
O  O127  1  0.70158804  0.16886437  0.35700680  1  -1.177678  0  -0.300901  -0.548562  0  2.290298  0
O  O128  1  0.71343683  0.05234911  0.55014964  1  -1.169537  0  -0.336192  -0.54987  0  2.071941  0
O  O129  1  0.53347115  0.18849872  0.83120085  1  -1.173091  0  -0.300895  -0.549081  0  2.289291  0
O  O130  1  0.66058492  0.49820840  0.94781517  1  -1.172773  0  -0.335954  -0.549017  0  2.072454  0
O  O131  1  0.34449473  0.64255670  0.81139946  1  -1.180073  0  -0.301389  -0.549502  0  2.290092  0
