# generated using pymatgen
data_ZnH13C26I(NO4)2
_symmetry_space_group_name_H-M   'P 1'
_cell_length_a   13.99723004
_cell_length_b   15.24834097
_cell_length_c   23.57129812
_cell_angle_alpha   89.36436983
_cell_angle_beta   90.59602444
_cell_angle_gamma   89.94139139
_symmetry_Int_Tables_number   1
_chemical_formula_structural   ZnH13C26I(NO4)2
_chemical_formula_sum   'Zn2 H26 C52 I2 N4 O16'
_cell_volume   5030.34405375
_cell_formula_units_Z   2
loop_
 _symmetry_equiv_pos_site_id
 _symmetry_equiv_pos_as_xyz
  1  'x, y, z'
loop_
 _atom_site_type_symbol
 _atom_site_label
 _atom_site_symmetry_multiplicity
 _atom_site_fract_x
 _atom_site_fract_y
 _atom_site_fract_z
 _atom_site_occupancy
 _atom_site_pbe_bader_charge
 _atom_site_pbe_bader_spin_density
 _atom_site_pbe_cm5_charge
 _atom_site_pbe_ddec_charge
 _atom_site_pbe_ddec_spin_density
 _atom_site_pbe_ddec_sum_bond_order
 _atom_site_pbe_magmom
Zn  Zn0  1  0.40559782  0.50173136  0.50527447  1  1.286773  0  0.676357  0.831397  0  2.386629  0
Zn  Zn1  1  0.60804462  0.50451922  0.50481461  1  1.282732  0  0.677106  0.823785  0  2.410801  0
H  H2  1  0.38599984  0.67640958  0.06643065  1  0.119203  0  0.120806  0.126525  0  0.974189  0
H  H3  1  0.58291656  0.28751195  0.94324406  1  0.137595  0  0.121005  0.126598  0  0.97315  0
H  H4  1  0.76438813  0.62290950  0.54443190  1  0.099967  0  0.124136  0.098467  0  0.993689  0
H  H5  1  0.25407222  0.36316498  0.50778989  1  0.120471  0  0.12799  0.100042  0  0.999484  0
H  H6  1  0.75510242  0.37864432  0.46922288  1  0.152678  0  0.132146  0.113865  0  0.981993  0
H  H7  1  0.25044084  0.63518618  0.50012261  1  0.136391  0  0.130446  0.102259  0  0.99924  0
H  H8  1  0.38215473  0.68776392  0.95919453  1  0.141025  0  0.120912  0.126479  0  0.973745  0
H  H9  1  0.58832379  0.27696237  0.05039820  1  0.123768  0  0.120143  0.125517  0  0.974811  0
H  H10  1  0.34658528  0.45972006  0.77875638  1  0.090269  0  0.114238  0.122797  0  0.974576  0
H  H11  1  0.59721182  0.57610901  0.21947973  1  0.052737  0  0.11316  0.122179  0  0.975907  0
H  H12  1  0.36122893  0.47695330  0.67328597  1  0.09186  0  0.111108  0.115909  0  0.986453  0
H  H13  1  0.60199064  0.57491893  0.32563680  1  0.073738  0  0.112179  0.119068  0  0.982984  0
H  H14  1  0.63020949  0.56323775  0.79888605  1  0.091183  0  0.108791  0.126614  0  0.986065  0
H  H15  1  0.40888224  0.35312674  0.22348932  1  0.096216  0  0.108598  0.127717  0  0.990087  0
H  H16  1  0.63751084  0.95488047  0.50313114  1  0.061557  0  0.102862  0.129284  0  0.999019  0
H  H17  1  0.60778061  0.06973575  0.42913069  1  0.053382  0  0.098926  0.114525  0  1.020324  0
H  H18  1  0.35960970  0.06116798  0.53612123  1  0.088027  0  0.106541  0.132214  0  0.992363  0
H  H19  1  0.33779077  0.94005828  0.45708660  1  0.057177  0  0.104272  0.129736  0  0.998014  0
H  H20  1  0.94168529  0.62508188  0.54490896  1  0.08905  0  0.118391  0.124875  0  0.985355  0
H  H21  1  0.07688816  0.35572133  0.51044150  1  0.06297  0  0.119599  0.126674  0  0.981243  0
H  H22  1  0.93356436  0.37042125  0.46528297  1  0.0961  0  0.1177  0.123086  0  0.986083  0
H  H23  1  0.07389637  0.63938922  0.49643745  1  0.106071  0  0.120852  0.127851  0  0.982703  0
H  H24  1  0.65160498  0.72313456  0.50911922  1  0.637466  0  0.294677  0.340718  0  1.00332  0
H  H25  1  0.66176055  0.20013960  0.40842767  1  0.583251  0  0.334969  0.36013  0  0.875805  0
H  H26  1  0.37195060  0.29139643  0.55381136  1  0.621972  0  0.295881  0.344193  0  0.99439  0
H  H27  1  0.35292347  0.70756650  0.45677859  1  0.646501  0  0.296617  0.341904  0  0.996308  0
C  C28  1  0.50263402  0.67749125  0.48732168  1  1.482856  0  0.212038  0.618899  0  4.129248  0
C  C29  1  0.50711959  0.33247072  0.51056809  1  1.513939  0  0.211902  0.624058  0  4.136143  0
C  C30  1  0.41172204  0.48532293  0.75991393  1  0.037419  0  -0.080309  -0.151733  0  3.973006  0
C  C31  1  0.55711563  0.52753584  0.24366545  1  0.018678  0  -0.084369  -0.154613  0  3.986327  0
C  C32  1  0.42001463  0.49489128  0.70147227  1  -0.02212  0  -0.071928  -0.059311  0  3.95194  0
C  C33  1  0.55925089  0.52717524  0.30253731  1  0.04248  0  -0.075658  -0.066173  0  3.960783  0
C  C34  1  0.50403825  0.52643322  0.67636184  1  0.047246  0  -0.012903  -0.055406  0  3.91516  0
C  C35  1  0.50554414  0.46681042  0.33440645  1  0.029523  0  -0.014984  -0.055763  0  3.925577  0
C  C36  1  0.57988943  0.55146569  0.71220029  1  -0.167973  0  -0.031809  0.07613  0  3.855692  0
C  C37  1  0.45210387  0.40317376  0.30532184  1  -0.306922  0  -0.036504  0.064778  0  3.86826  0
C  C38  1  0.57186407  0.54328423  0.77102077  1  0.021616  0  -0.08972  -0.190898  0  3.952629  0
C  C39  1  0.44993690  0.40257362  0.24602576  1  0.145359  0  -0.090628  -0.192163  0  3.96042  0
C  C40  1  0.48857889  0.50922009  0.79433550  1  0.318309  0  0.094315  0.213999  0  4.019825  0
C  C41  1  0.50101827  0.46566505  0.21575436  1  0.29369  0  0.091637  0.210993  0  4.010603  0
C  C42  1  0.57457274  0.91647003  0.49222660  1  0.121892  0  -0.125319  -0.303484  0  3.964934  0
C  C43  1  0.55649840  0.10328268  0.45593711  1  0.050666  0  -0.133323  -0.342121  0  4.038445  0
C  C44  1  0.41556073  0.09769368  0.51449713  1  0.00322  0  -0.119528  -0.291276  0  3.950402  0
C  C45  1  0.40540469  0.90840494  0.46798992  1  0.016641  0  -0.125105  -0.306314  0  3.967596  0
C  C46  1  0.58045042  0.82523997  0.49427574  1  0.44542  0  0.089602  0.355344  0  4.080506  0
C  C47  1  0.56318071  0.19355014  0.46313733  1  0.437169  0  0.08264  0.332109  0  4.093112  0
C  C48  1  0.42187114  0.18838255  0.52234104  1  0.509607  0  0.087646  0.340743  0  4.072183  0
C  C49  1  0.41090256  0.81695593  0.46812653  1  0.556167  0  0.089001  0.352944  0  4.073267  0
C  C50  1  0.49818577  0.77313452  0.48251353  1  0.004287  0  -0.062696  -0.346066  0  3.97061  0
C  C51  1  0.49820606  0.23815791  0.49847863  1  0.0437  0  -0.054525  -0.309778  0  3.937143  0
C  C52  1  0.48720585  0.95781849  0.48012727  1  -0.088413  0  0.000217  0.128814  0  4.043102  0
C  C53  1  0.48448418  0.05469454  0.48268793  1  -0.071961  0  4.3e-05  0.138348  0  4.038544  0
C  C54  1  0.50717915  0.52614647  0.61268376  1  1.549733  0  0.215765  0.604523  0  4.163373  0
C  C55  1  0.50754487  0.47838781  0.39752305  1  1.585449  0  0.21566  0.606967  0  4.158423  0
C  C56  1  0.90396484  0.56945221  0.52674926  1  -0.044162  0  -0.073597  -0.167726  0  3.93719  0
C  C57  1  0.11187552  0.41926637  0.50657351  1  0.038801  0  -0.070721  -0.166566  0  3.927446  0
C  C58  1  0.89935155  0.42759720  0.48358895  1  -0.030844  0  -0.071629  -0.167417  0  3.928798  0
C  C59  1  0.11018557  0.57638732  0.50034443  1  -0.0288  0  -0.070463  -0.166041  0  3.929282  0
C  C60  1  0.80490163  0.56874694  0.52681919  1  0.544114  0  0.061015  0.106065  0  3.92957  0
C  C61  1  0.21102383  0.42277072  0.50608160  1  0.448843  0  0.063586  0.109844  0  3.909391  0
C  C62  1  0.80018223  0.43173723  0.48490102  1  0.507098  0  0.067977  0.114223  0  3.88706  0
C  C63  1  0.20923621  0.57465943  0.50133028  1  0.49672  0  0.064688  0.113711  0  3.905629  0
C  C64  1  0.95356221  0.49781124  0.50450660  1  -0.056451  0  0.017968  0.105681  0  3.985724  0
C  C65  1  0.05896224  0.49744440  0.50359384  1  -0.007265  0  0.019808  0.107431  0  3.983509  0
C  C66  1  0.53130993  0.39654786  0.12438191  1  1.362651  0  0.24518  0.44132  0  4.090942  0
C  C67  1  0.44444194  0.57054119  0.88537851  1  1.313283  0  0.244308  0.439955  0  4.099411  0
C  C68  1  0.45248176  0.54454946  0.13011041  1  1.344603  0  0.244922  0.438097  0  4.092154  0
C  C69  1  0.51973489  0.42102294  0.87933430  1  1.301596  0  0.245114  0.440229  0  4.096238  0
C  C70  1  0.45048332  0.54939501  0.06728021  1  -0.019868  0  -0.003836  -0.060156  0  3.987252  0
C  C71  1  0.51960364  0.41505188  0.94222869  1  -0.059687  0  -0.002794  -0.05853  0  3.980763  0
C  C72  1  0.48638058  0.47916642  0.03498239  1  -0.022051  0  0.005072  0.031789  0  4.000854  0
C  C73  1  0.48381879  0.48534685  0.97458572  1  0.080738  0  0.005097  0.031575  0  3.997598  0
C  C74  1  0.52509000  0.40312884  0.06156883  1  -0.015327  0  -0.003183  -0.06054  0  3.981318  0
C  C75  1  0.44580112  0.56179985  0.94813734  1  -0.033881  0  -0.002463  -0.05934  0  3.981854  0
C  C76  1  0.41307139  0.62352957  0.04031066  1  -0.071264  0  -0.060012  -0.067018  0  3.925705  0
C  C77  1  0.55611206  0.34064135  0.96928626  1  0.033656  0  -0.059601  -0.066947  0  3.925205  0
C  C78  1  0.41085150  0.62976716  0.98082607  1  0.013768  0  -0.060179  -0.066662  0  3.926474  0
C  C79  1  0.55901399  0.33475962  0.02882591  1  -0.043788  0  -0.059764  -0.066275  0  3.925042  0
I  I80  1  0.70779653  0.60876160  0.68312764  1  0.105679  0  0.051572  -0.0535  0  1.375339  0
I  I81  1  0.37827409  0.30036639  0.34655188  1  0.116822  0  0.056045  -0.038179  0  1.395512  0
N  N82  1  0.49470772  0.46848955  0.15468112  1  -1.171439  0  -0.227832  -0.222447  0  3.566072  0
N  N83  1  0.48344623  0.49968861  0.85527174  1  -1.196207  0  -0.230931  -0.228883  0  3.578422  0
N  N84  1  0.75393561  0.50152180  0.50593254  1  -1.224294  0  -0.31621  -0.193158  0  3.512584  0
N  N85  1  0.25911104  0.49917609  0.50397958  1  -1.208103  0  -0.316097  -0.201403  0  3.513273  0
O  O86  1  0.42677487  0.63219974  0.47652844  1  -1.178678  0  -0.311789  -0.553061  0  2.341831  0
O  O87  1  0.58497331  0.37174074  0.50107694  1  -1.154384  0  -0.305112  -0.515403  0  2.350893  0
O  O88  1  0.43272418  0.37171674  0.53150894  1  -1.172595  0  -0.326121  -0.579566  0  2.331397  0
O  O89  1  0.58202456  0.64105057  0.50282954  1  -1.173625  0  -0.30928  -0.547276  0  2.355716  0
O  O90  1  0.42851241  0.54079152  0.58645926  1  -1.159216  0  -0.321069  -0.549031  0  2.314232  0
O  O91  1  0.58540245  0.50636187  0.41887810  1  -1.157423  0  -0.315775  -0.541998  0  2.315167  0
O  O92  1  0.43096862  0.46265717  0.42439366  1  -1.162273  0  -0.317189  -0.550041  0  2.394084  0
O  O93  1  0.58654172  0.50794008  0.59009853  1  -1.155929  0  -0.312507  -0.537193  0  2.390343  0
O  O94  1  0.56674580  0.33313656  0.14938329  1  -1.097751  0  -0.274552  -0.428988  0  2.063175  0
O  O95  1  0.41263842  0.63531736  0.86016850  1  -1.097113  0  -0.274206  -0.427988  0  2.055332  0
O  O96  1  0.42001815  0.60276477  0.15989578  1  -1.098246  0  -0.270546  -0.425786  0  2.06863  0
O  O97  1  0.55002157  0.36241372  0.84908235  1  -1.093259  0  -0.273369  -0.425896  0  2.054672  0
O  O98  1  0.66524273  0.78801467  0.50836050  1  -1.162834  0  -0.372751  -0.467374  0  2.246616  0
O  O99  1  0.63218494  0.24018767  0.43502431  1  -1.101156  0  -0.349071  -0.437618  0  2.289867  0
O  O100  1  0.35482695  0.22692533  0.55465814  1  -1.148609  0  -0.370531  -0.464089  0  2.24485  0
O  O101  1  0.33169204  0.77064559  0.45422256  1  -1.179661  0  -0.370743  -0.465781  0  2.244308  0
