# generated using pymatgen
data_AlH6C13ClO5F
_symmetry_space_group_name_H-M   'P 1'
_cell_length_a   6.63936196
_cell_length_b   11.20680522
_cell_length_c   15.11318605
_cell_angle_alpha   82.61411055
_cell_angle_beta   81.25690212
_cell_angle_gamma   71.57675520
_symmetry_Int_Tables_number   1
_chemical_formula_structural   AlH6C13ClO5F
_chemical_formula_sum   'Al2 H12 C26 Cl2 O10 F2'
_cell_volume   1050.58734562
_cell_formula_units_Z   2
loop_
 _symmetry_equiv_pos_site_id
 _symmetry_equiv_pos_as_xyz
  1  'x, y, z'
loop_
 _atom_site_type_symbol
 _atom_site_label
 _atom_site_symmetry_multiplicity
 _atom_site_fract_x
 _atom_site_fract_y
 _atom_site_fract_z
 _atom_site_occupancy
 _atom_site_pbe_bader_charge
 _atom_site_pbe_bader_spin_density
 _atom_site_pbe_cm5_charge
 _atom_site_pbe_ddec_charge
 _atom_site_pbe_ddec_spin_density
 _atom_site_pbe_ddec_sum_bond_order
 _atom_site_pbe_magmom
Al  Al0  1  0.49803084  0.49996823  0.50271152  1  2.50299  0  0.395081  1.644596  0  2.576245  0
Al  Al1  1  0.99830717  0.49877285  0.50329381  1  2.50251  0  0.396323  1.640703  0  2.569769  0
H  H2  1  0.30618149  0.35040305  0.56538232  1  0.633112  0  0.354504  0.436953  0  0.847052  0
H  H3  1  0.68715245  0.65439792  0.45725348  1  0.599823  0  0.344313  0.418566  0  0.881351  0
H  H4  1  0.74196784  0.61319805  0.94778351  1  0.082487  0  0.102986  0.113652  0  1.02101  0
H  H5  1  0.20209392  0.42430970  0.05308010  1  0.082928  0  0.102622  0.112453  0  1.025785  0
H  H6  1  0.60700776  0.56885987  0.24261184  1  0.11623  0  0.107539  0.116059  0  1.01068  0
H  H7  1  0.71868824  0.56917237  0.08030467  1  0.044061  0  0.100846  0.10339  0  1.016919  0
H  H8  1  0.42775693  0.39811008  0.76551331  1  0.10961  0  0.113957  0.121597  0  0.987494  0
H  H9  1  0.32910602  0.38838491  0.92901411  1  0.044804  0  0.103911  0.107528  0  1.005866  0
H  H10  1  0.21776035  0.23843104  0.38317256  1  0.05971  0  0.101728  0.107537  0  1.052754  0
H  H11  1  0.54160950  0.12598714  0.28933493  1  0.055379  0  0.103886  0.103262  0  0.986683  0
H  H12  1  0.42082001  0.77183146  0.37853531  1  0.085145  0  0.107427  0.109579  0  1.03171  0
H  H13  1  0.64125408  0.89153212  0.28549940  1  0.076565  0  0.104551  0.102763  0  0.986189  0
C  C14  1  0.86289628  0.27510848  0.49284725  1  1.631459  0  0.275984  0.674059  0  4.073622  0
C  C15  1  0.70021428  0.49680793  0.66436254  1  1.611095  0  0.267716  0.653688  0  4.093518  0
C  C16  1  0.13430045  0.72550936  0.50438979  1  1.548232  0  0.276433  0.675789  0  4.077963  0
C  C17  1  0.29530362  0.50160645  0.34103498  1  1.560044  0  0.26215  0.642957  0  4.100417  0
C  C18  1  0.64845599  0.50222592  0.76369613  1  0.004121  0  -0.015812  -0.102193  0  3.925068  0
C  C19  1  0.34663750  0.49591345  0.24159914  1  0.08464  0  -0.020741  -0.110646  0  3.932054  0
C  C20  1  0.73725458  0.56176294  0.81750889  1  0.037621  0  0.024901  0.148454  0  4.018769  0
C  C21  1  0.67458016  0.56174105  0.90999879  1  0.024829  0  -0.096343  -0.206365  0  3.957655  0
C  C22  1  0.23732912  0.45273679  0.18559063  1  0.017314  0  0.023436  0.144722  0  4.023203  0
C  C23  1  0.29523535  0.45650180  0.09280968  1  -0.008982  0  -0.097432  -0.21095  0  3.966083  0
C  C24  1  0.51876970  0.53819364  0.19960775  1  -0.053325  0  -0.081581  -0.072548  0  3.997008  0
C  C25  1  0.57947398  0.53911614  0.10776574  1  -0.035469  0  -0.094526  -0.142696  0  3.98872  0
C  C26  1  0.49856225  0.44265857  0.80713991  1  -0.043928  0  -0.076733  -0.068197  0  3.992737  0
C  C27  1  0.44141395  0.43928874  0.89923984  1  0.01312  0  -0.091968  -0.140746  0  3.98961  0
C  C28  1  0.52775394  0.49990565  0.95308923  1  -0.019873  0  -0.000817  0.092509  0  3.984824  0
C  C29  1  0.46704116  0.49922979  0.05155624  1  0.025481  0  0.001231  0.100984  0  3.976978  0
C  C30  1  0.93732308  0.13479495  0.48995700  1  0.096409  0  -0.014563  -0.178737  0  3.952927  0
C  C31  1  0.13265414  0.07015474  0.43857345  1  -0.047112  0  0.001687  0.073747  0  3.954869  0
C  C32  1  0.81239109  0.06570073  0.53865363  1  0.440503  0  0.100775  0.165378  0  4.075626  0
C  C33  1  0.26330125  0.13630643  0.38386093  1  0.044794  0  -0.092775  -0.132679  0  3.976385  0
C  C34  1  0.44443307  0.07298892  0.33105734  1  -0.073059  0  -0.092081  -0.080421  0  4.036367  0
C  C35  1  0.06530626  0.86671899  0.49490688  1  0.127228  0  -0.014335  -0.179931  0  3.953386  0
C  C36  1  0.87643546  0.93277833  0.54181753  1  0.551991  0  0.101551  0.168321  0  4.088711  0
C  C37  1  0.19456402  0.93494847  0.43944260  1  0.043501  0  -5.7e-05  0.073026  0  3.956576  0
C  C38  1  0.37892812  0.87335812  0.38216065  1  -0.098648  0  -0.093667  -0.138609  0  3.97137  0
C  C39  1  0.50124375  0.94078742  0.32931560  1  0.004898  0  -0.091622  -0.079885  0  4.042689  0
Cl  Cl40  1  0.91937583  0.64188913  0.77454786  1  -0.178701  0  0.005478  -0.05594  0  1.51401  0
Cl  Cl41  1  0.03125795  0.38953875  0.22552019  1  -0.185283  0  0.027032  -0.043371  0  1.605167  0
O  O42  1  0.67057840  0.33171411  0.47909351  1  -1.252111  0  -0.228724  -0.583205  0  2.330939  0
O  O43  1  0.87679867  0.51107565  0.62694466  1  -1.250032  0  -0.235609  -0.590886  0  2.386227  0
O  O44  1  0.99917323  0.67160353  0.49322785  1  -1.249591  0  -0.2273  -0.585234  0  2.344567  0
O  O45  1  0.43078897  0.52809443  0.38059574  1  -1.26011  0  -0.23945  -0.599964  0  2.372495  0
O  O46  1  0.32468760  0.67039707  0.52174402  1  -1.252181  0  -0.228476  -0.581233  0  2.328297  0
O  O47  1  0.12195653  0.48346731  0.37930584  1  -1.253882  0  -0.235523  -0.588111  0  2.396083  0
O  O48  1  0.99606165  0.32669328  0.51011312  1  -1.257052  0  -0.226016  -0.580863  0  2.337209  0
O  O49  1  0.56156793  0.47404308  0.62450792  1  -1.26754  0  -0.239554  -0.603859  0  2.355835  0
O  O50  1  0.26820422  0.43794179  0.54110604  1  -1.430062  0  -0.447715  -0.989667  0  2.191953  0
O  O51  1  0.72830511  0.56275740  0.46440004  1  -1.403219  0  -0.45017  -0.984398  0  2.187596  0
F  F52  1  0.74972515  0.87324016  0.59568724  1  -0.619989  0  -0.086638  -0.109978  0  1.389546  0
F  F53  1  0.62810309  0.12181585  0.58955891  1  -0.622484  0  -0.08782  -0.110961  0  1.36123  0
