# generated using pymatgen
data_Al6H23C90I15O28
_symmetry_space_group_name_H-M   'P 1'
_cell_length_a   12.28157818
_cell_length_b   12.66759220
_cell_length_c   27.84237908
_cell_angle_alpha   95.54426169
_cell_angle_beta   88.83042501
_cell_angle_gamma   121.71869275
_symmetry_Int_Tables_number   1
_chemical_formula_structural   Al6H23C90I15O28
_chemical_formula_sum   'Al6 H23 C90 I15 O28'
_cell_volume   3665.08387196
_cell_formula_units_Z   1
loop_
 _symmetry_equiv_pos_site_id
 _symmetry_equiv_pos_as_xyz
  1  'x, y, z'
loop_
 _atom_site_type_symbol
 _atom_site_label
 _atom_site_symmetry_multiplicity
 _atom_site_fract_x
 _atom_site_fract_y
 _atom_site_fract_z
 _atom_site_occupancy
 _atom_site_pbe_bader_charge
 _atom_site_pbe_bader_spin_density
 _atom_site_pbe_cm5_charge
 _atom_site_pbe_ddec_charge
 _atom_site_pbe_ddec_spin_density
 _atom_site_pbe_ddec_sum_bond_order
 _atom_site_pbe_magmom
Al  Al0  1  0.60891470  0.18390231  0.49954633  1  2.495696  0  0.388999  1.69114  0  2.542604  0
Al  Al1  1  0.57278723  0.91464148  0.49984661  1  2.484724  0  0.508907  1.664213  0  2.491351  0
Al  Al2  1  0.33560240  0.92654361  0.49557795  1  2.480989  0  0.503039  1.664652  0  2.505963  0
Al  Al3  1  0.08128168  0.17233021  0.99097900  1  2.491181  0  0.396657  1.684667  0  2.550157  0
Al  Al4  1  0.35470332  0.43046741  0.99558291  1  2.480673  0  0.507328  1.667781  0  2.490601  0
Al  Al5  1  0.11680417  0.44221548  0.99919767  1  2.488537  0  0.499598  1.667641  0  2.498809  0
H  H6  1  0.48970559  0.99206137  0.71632531  1  0.075705  0  0.099461  0.113462  0  1.011351  0
H  H7  1  0.89099588  0.06447005  0.86707339  1  0.121796  0  0.118347  0.133827  0  0.984576  0
H  H8  1  0.73510402  0.95678339  0.62894307  1  0.104255  0  0.107174  0.120765  0  1.009045  0
H  H9  1  0.77738859  0.88690689  0.70329460  1  0.073783  0  0.092205  0.097897  0  1.031923  0
H  H10  1  0.19582194  0.81499805  0.19258097  1  0.075031  0  0.105946  0.11605  0  0.979512  0
H  H11  1  0.19334282  0.84458877  0.28174619  1  0.06189  0  0.106326  0.114682  0  0.984286  0
H  H12  1  0.25526250  0.81990399  0.36256643  1  0.079599  0  0.110318  0.119264  0  1.006074  0
H  H13  1  0.46542180  0.03581088  0.63770441  1  0.053601  0  0.10815  0.114996  0  0.993197  0
H  H14  1  0.83440044  0.92745505  0.79083064  1  0.060244  0  0.104238  0.111402  0  0.990667  0
H  H15  1  0.72255526  0.39142465  0.71615931  1  0.095354  0  0.089277  0.102835  0  1.056746  0
H  H16  1  0.44990269  0.53518318  0.13036633  1  0.100322  0  0.110724  0.120123  0  1.001103  0
H  H17  1  0.46380275  0.63611943  0.37429343  1  0.082937  0  0.110623  0.121049  0  0.986456  0
H  H18  1  0.50519500  0.50404855  0.21140116  1  0.060169  0  0.105909  0.11453  0  0.983711  0
H  H19  1  0.50261936  0.53358094  0.30051647  1  0.061391  0  0.103707  0.113675  0  0.980893  0
H  H20  1  0.24239674  0.72003286  0.11885079  1  0.103294  0  0.112248  0.122329  0  0.98552  0
H  H21  1  0.45644974  0.07661830  0.27640839  1  0.093214  0  0.111955  0.13223  0  0.979204  0
H  H22  1  0.13812812  0.61964090  0.79403110  1  0.096885  0  0.097549  0.103959  0  1.035928  0
H  H23  1  0.23853090  0.27657236  0.21441951  1  0.123649  0  0.112269  0.132626  0  0.978197  0
H  H24  1  0.13508956  0.65917463  0.70808908  1  0.094885  0  0.115016  0.125719  0  0.972323  0
H  H25  1  0.20181348  0.28580851  0.85576883  1  0.084524  0  0.110392  0.119838  0  0.98782  0
H  H26  1  0.15412823  0.30726038  0.77635744  1  0.068004  0  0.099302  0.116428  0  1.003986  0
H  H27  1  0.69911899  0.38053176  0.47190802  1  0.581899  0  0.292006  0.382518  0  0.924473  0
H  H28  1  0.00141570  0.96367147  0.96264094  1  0.574342  0  0.291855  0.382379  0  0.924466  0
C  C29  1  0.71759765  0.10087541  0.57228921  1  1.570672  0  0.270663  0.642706  0  4.067096  0
C  C30  1  0.21175194  0.62590510  0.76982368  1  -0.013924  0  -0.078148  -0.102756  0  3.955965  0
C  C31  1  0.21021082  0.64815747  0.72224561  1  -0.019951  0  -0.074349  -0.102034  0  3.940542  0
C  C32  1  0.30633175  0.65754969  0.69104046  1  0.165014  0  -0.003613  0.088625  0  4.114886  0
C  C33  1  0.31038838  0.61349363  0.78830680  1  0.161697  0  -0.007204  0.089975  0  4.090883  0
C  C34  1  0.31594595  0.60204669  0.83820393  1  -0.462024  0  -0.021341  -0.00568  0  4.077153  0
C  C35  1  0.30858043  0.68686588  0.64329143  1  -0.52846  0  -0.014424  0.0025  0  4.080599  0
C  C36  1  0.31961826  0.59596433  0.88163889  1  0.221997  0  -0.036923  -0.193407  0  3.905962  0
C  C37  1  0.31751285  0.20126018  0.63875782  1  -0.198806  0  -0.041905  -0.009282  0  3.821512  0
C  C38  1  0.29204070  0.20966477  0.68860981  1  0.061361  0  -0.009435  0.017057  0  3.955387  0
C  C39  1  0.26778778  0.23003816  0.79166088  1  -0.033366  0  -0.012405  0.086045  0  4.087015  0
C  C40  1  0.35603046  0.77442255  0.55827232  1  1.62751  0  0.281524  0.717239  0  4.148862  0
C  C41  1  0.20995034  0.26976736  0.76011846  1  0.058018  0  -0.101498  -0.169239  0  4.020508  0
C  C42  1  0.21915463  0.25975985  0.71104815  1  -0.265707  0  -0.050772  0.014211  0  3.880406  0
C  C43  1  0.25644419  0.24502851  0.84145762  1  0.033571  0  -0.080474  -0.132975  0  3.929147  0
C  C44  1  0.31820168  0.21236561  0.87263446  1  -0.028969  0  -0.019061  -0.047118  0  4.015077  0
C  C45  1  0.41959431  0.08565997  0.65200585  1  -0.007135  0  -0.080921  -0.134633  0  3.937614  0
C  C46  1  0.40658239  0.09943205  0.70175875  1  0.043507  0  -0.00917  0.093451  0  4.057911  0
C  C47  1  0.34327029  0.16064857  0.72100716  1  -0.008003  0  0.006986  0.014854  0  3.858604  0
C  C48  1  0.45041063  0.04590830  0.73294933  1  0.041823  0  -0.098453  -0.162444  0  4.000506  0
C  C49  1  0.44043812  0.05582577  0.78197981  1  -0.24368  0  -0.050599  0.017665  0  3.880194  0
C  C50  1  0.38877185  0.12671805  0.80480329  1  0.040589  0  -0.014088  0.009758  0  3.982211  0
C  C51  1  0.39920562  0.11767867  0.56874544  1  1.59003  0  0.262027  0.640924  0  4.134291  0
C  C52  1  0.33358537  0.17156246  0.77234519  1  -0.02068  0  0.004121  0.008908  0  3.88243  0
C  C53  1  0.38692475  0.15778486  0.85518582  1  -0.186476  0  -0.049118  -0.022409  0  3.853204  0
C  C54  1  0.37648899  0.13670910  0.62118335  1  0.022168  0  -0.017822  -0.045695  0  4.015936  0
C  C55  1  0.74963082  0.04035545  0.65016882  1  0.043846  0  -0.079669  -0.13165  0  3.934173  0
C  C56  1  0.77234137  0.05524638  0.70017398  1  -0.034059  0  -0.014487  0.064024  0  4.064755  0
C  C57  1  0.83535160  0.10023491  0.80037170  1  0.018949  0  -0.012178  0.06971  0  4.068887  0
C  C58  1  0.81972043  0.99159491  0.77252820  1  -0.058003  0  -0.089569  -0.125693  0  3.997361  0
C  C59  1  0.78851566  0.96933131  0.72434824  1  -0.000572  0  -0.092852  -0.123631  0  4.004423  0
C  C60  1  0.87516628  0.12803122  0.84897020  1  0.020448  0  -0.074342  -0.12496  0  3.920227  0
C  C61  1  0.90463479  0.24062821  0.87524819  1  0.00048  0  -0.023743  -0.080443  0  3.976794  0
C  C62  1  0.72529407  0.07321878  0.43265296  1  1.666714  0  0.278943  0.712454  0  4.142502  0
C  C63  1  0.76794729  0.24162093  0.65224361  1  -0.196251  0  -0.039743  -0.012339  0  3.808075  0
C  C64  1  0.77261777  0.25092138  0.70344049  1  -0.019199  0  -0.018954  0.045799  0  4.029079  0
C  C65  1  0.78267592  0.16168514  0.72743410  1  -0.03076  0  -0.001502  0.000701  0  3.941368  0
C  C66  1  0.75820310  0.34107406  0.73334082  1  0.037896  0  -0.10574  -0.166799  0  4.018371  0
C  C67  1  0.77595449  0.35555517  0.78236712  1  -0.273043  0  -0.053245  0.016105  0  3.872388  0
C  C68  1  0.82415194  0.29087040  0.80626161  1  0.062855  0  -0.018657  0.006788  0  3.994258  0
C  C69  1  0.81175969  0.18355064  0.77808784  1  0.020026  0  0.003559  0.013952  0  3.911741  0
C  C70  1  0.88314677  0.32443708  0.85312281  1  -0.276643  0  -0.043438  -0.006433  0  3.822836  0
C  C71  1  0.74916294  0.13168030  0.62545476  1  -0.033169  0  -0.025237  -0.089402  0  3.985338  0
C  C72  1  0.41457905  0.66501080  0.35167603  1  -0.012411  0  -0.079202  -0.141841  0  3.935941  0
C  C73  1  0.38165105  0.77445214  0.42551780  1  1.540874  0  0.27866  0.656453  0  4.064723  0
C  C74  1  0.40794412  0.63856584  0.30138967  1  -0.02572  0  -0.013902  0.065022  0  4.059807  0
C  C75  1  0.40904181  0.60265321  0.19862858  1  0.005482  0  -0.009292  0.072411  0  4.03891  0
C  C76  1  0.46276694  0.55433976  0.22877706  1  -0.051072  0  -0.088445  -0.122675  0  3.990511  0
C  C77  1  0.46159966  0.57089888  0.27799045  1  -0.028164  0  -0.097474  -0.134502  0  4.017794  0
C  C78  1  0.40783140  0.58539039  0.14809072  1  0.012011  0  -0.076008  -0.136546  0  3.908512  0
C  C79  1  0.34672147  0.62652433  0.11986477  1  -0.016583  0  -0.016497  -0.044564  0  4.013203  0
C  C80  1  0.29736292  0.76964185  0.34492227  1  0.029043  0  -0.077476  -0.137483  0  3.910668  0
C  C81  1  0.29397022  0.75013200  0.29443325  1  -0.052402  0  -0.009555  0.073192  0  4.041269  0
C  C82  1  0.35101367  0.68506849  0.27216194  1  0.005701  0  0.002136  -1.5e-05  0  3.919167  0
C  C83  1  0.23735186  0.79582048  0.26434987  1  0.043022  0  -0.088837  -0.123698  0  3.991551  0
C  C84  1  0.37695417  0.09566249  0.43182059  1  1.694951  0  0.280428  0.712347  0  4.16211  0
C  C85  1  0.23852751  0.77935630  0.21515190  1  -0.118722  0  -0.095886  -0.133446  0  4.009534  0
C  C86  1  0.29517351  0.71441929  0.19179260  1  -0.043561  0  -0.013381  0.064963  0  4.056934  0
C  C87  1  0.35225095  0.66789395  0.22096613  1  -0.020192  0  0.002864  -0.00042  0  3.919225  0
C  C88  1  0.29113133  0.69065598  0.14147496  1  -0.009504  0  -0.075841  -0.134757  0  3.929958  0
C  C89  1  0.36060956  0.73074974  0.37316934  1  -0.021122  0  -0.017693  -0.042642  0  4.012285  0
C  C90  1  0.34867108  0.11854103  0.38543517  1  0.213806  0  -0.029151  -0.179577  0  3.918087  0
C  C91  1  0.40926717  0.12055844  0.26249162  1  0.07686  0  -0.082909  -0.145356  0  3.93843  0
C  C92  1  0.41432888  0.13887649  0.21388879  1  -0.226454  0  -0.044694  0.008635  0  3.898287  0
C  C93  1  0.28589282  0.23283165  0.22838032  1  0.045996  0  -0.08223  -0.143389  0  3.935183  0
C  C94  1  0.28181447  0.21555997  0.27702158  1  -0.255504  0  -0.045981  0.009286  0  3.900236  0
C  C95  1  0.31895441  0.71683674  0.60233536  1  0.275546  0  -0.033559  -0.190507  0  3.918009  0
C  C96  1  0.34301266  0.15819277  0.29484696  1  0.110459  0  -0.004328  0.096724  0  4.105861  0
C  C97  1  0.35183552  0.19490101  0.19591517  1  0.07908  0  -0.00215  0.101339  0  4.098849  0
C  C98  1  0.34983596  0.21409004  0.14684410  1  -0.500368  0  -0.023508  -0.025497  0  4.099952  0
C  C99  1  0.34216796  0.13802529  0.34391652  1  -0.487015  0  -0.019579  -0.014828  0  4.098191  0
C  C100  1  0.33707158  0.23280065  0.10582287  1  0.264597  0  -0.024937  -0.16815  0  3.909783  0
C  C101  1  0.78009645  0.08308505  0.38590364  1  -0.23807  0  -0.029722  -0.166813  0  3.884648  0
C  C102  1  0.80260519  0.04192185  0.25692891  1  -0.146849  0  -0.05547  -0.024019  0  3.890547  0
C  C103  1  0.81853050  0.07305383  0.20938415  1  -0.225565  0  -0.052617  -0.024812  0  3.882693  0
C  C104  1  0.90489720  0.29279428  0.23958643  1  -0.173015  0  -0.054846  -0.026492  0  3.89114  0
C  C105  1  0.88721214  0.26108637  0.28703572  1  -0.142895  0  -0.054868  -0.027689  0  3.886809  0
C  C106  1  0.40228192  0.63851241  0.70838719  1  -0.175941  0  -0.047203  -0.019216  0  3.859407  0
C  C107  1  0.83433038  0.13477518  0.29621859  1  0.14839  0  -0.013186  0.071296  0  4.097451  0
C  C108  1  0.87095465  0.19928597  0.20025939  1  0.146705  0  -0.014314  0.070948  0  4.096152  0
C  C109  1  0.89349837  0.23109212  0.15236858  1  -0.342975  0  -0.038366  -0.029468  0  4.149532  0
C  C110  1  0.80842700  0.10265998  0.34405404  1  -0.012946  0  -0.037618  -0.027864  0  4.141275  0
C  C111  1  0.91686507  0.25288485  0.11045602  1  0.131292  0  -0.027212  -0.16489  0  3.901325  0
C  C112  1  0.30452024  0.24241641  0.92498803  1  1.613808  0  0.265891  0.647822  0  4.12226  0
C  C113  1  0.30513192  0.56448848  0.93056039  1  1.630947  0  0.281583  0.721425  0  4.137563  0
C  C114  1  0.96436679  0.26280062  0.92460324  1  1.552868  0  0.266067  0.640457  0  4.072315  0
C  C115  1  0.30263406  0.25440512  0.06020141  1  1.693496  0  0.276867  0.705795  0  4.165645  0
C  C116  1  0.32601130  0.58538459  0.06736166  1  1.543741  0  0.281836  0.655622  0  4.061361  0
C  C117  1  0.40471055  0.61741527  0.75670896  1  -0.200848  0  -0.054396  -0.029582  0  3.869513  0
C  C118  1  0.96565816  0.27590007  0.06281402  1  1.6524  0  0.281481  0.704171  0  4.157626  0
I  I119  1  0.53412832  0.63858984  0.65931656  1  0.18026  0  0.124498  0.034702  0  1.662398  0
I  I120  1  0.48365797  0.93927662  0.81593427  1  0.128668  0  0.100732  0.007305  0  1.761067  0
I  I121  1  0.96855667  0.51266180  0.88146984  1  0.177874  0  0.123288  0.033871  0  1.774905  0
I  I122  1  0.68728198  0.44029572  0.82183441  1  0.135072  0  0.0959  0.011776  0  1.925183  0
I  I123  1  0.54286649  0.58573590  0.78274666  1  0.179546  0  0.086855  -0.00219  0  1.878591  0
I  I124  1  0.80069403  0.39978165  0.62070463  1  0.2179  0  0.144187  0.073748  0  1.603995  0
I  I125  1  0.51415305  0.08100638  0.16763835  1  0.157726  0  0.107055  0.006367  0  1.514319  0
I  I126  1  0.18661429  0.27773220  0.32379808  1  0.155462  0  0.106984  0.001749  0  1.594501  0
I  I127  1  0.72801444  0.85887858  0.27248291  1  0.189518  0  0.113212  0.023482  0  1.715746  0
I  I128  1  0.76413274  0.93865468  0.14992302  1  0.198403  0  0.12828  0.063565  0  1.537176  0
I  I129  1  0.98451433  0.47686957  0.22403734  1  0.190074  0  0.113796  0.024675  0  1.710292  0
I  I130  1  0.94217718  0.39578350  0.34653876  1  0.185743  0  0.121586  0.056621  0  1.564634  0
I  I131  1  0.29128437  0.29168629  0.58398463  1  0.153343  0  0.097126  0.006729  0  1.630143  0
I  I132  1  0.10088771  0.30647166  0.67595069  1  0.13123  0  0.101537  0.006997  0  1.782897  0
I  I133  1  0.49967632  0.15116992  0.90994499  1  0.148147  0  0.09394  0.00865  0  1.617661  0
O  O134  1  0.50908362  0.19036019  0.55406649  1  -1.239758  0  -0.212871  -0.563599  0  2.408445  0
O  O135  1  0.48217756  0.79180761  0.44678511  1  -1.263562  0  -0.23532  -0.592901  0  2.273879  0
O  O136  1  0.30266701  0.80057685  0.44543434  1  -1.269434  0  -0.237939  -0.605763  0  2.310282  0
O  O137  1  0.29095372  0.99390963  0.44868892  1  -1.257832  0  -0.237066  -0.592466  0  2.223999  0
O  O138  1  0.50413748  0.00640500  0.49813166  1  -1.612752  0  -0.392413  -1.268309  0  2.295325  0
O  O139  1  0.99708717  0.18781121  0.93462331  1  -1.237253  0  -0.216426  -0.563475  0  2.368806  0
O  O140  1  0.20222418  0.16609548  0.94388180  1  -1.245266  0  -0.216001  -0.57241  0  2.344015  0
O  O141  1  0.39139140  0.35056492  0.94450053  1  -1.272278  0  -0.242187  -0.604172  0  2.30798  0
O  O142  1  0.38754004  0.54653201  0.94924161  1  -1.236138  0  -0.226936  -0.577682  0  2.229075  0
O  O143  1  0.20463635  0.55004726  0.95128868  1  -1.257271  0  -0.233398  -0.604468  0  2.318809  0
O  O144  1  0.98093233  0.35583518  0.95385069  1  -1.277744  0  -0.250143  -0.61426  0  2.364147  0
O  O145  1  0.71941791  0.18028693  0.54772507  1  -1.248205  0  -0.214594  -0.549906  0  2.414005  0
O  O146  1  0.97144505  0.18941587  0.03864302  1  -1.212837  0  -0.197853  -0.529913  0  2.279347  0
O  O147  1  0.18764764  0.18159620  0.04568111  1  -1.218589  0  -0.202252  -0.54006  0  2.282694  0
O  O148  1  0.39019270  0.34849396  0.03972116  1  -1.254282  0  -0.24136  -0.603582  0  2.239263  0
O  O149  1  0.40171362  0.55518731  0.04681567  1  -1.274838  0  -0.234727  -0.599267  0  2.285607  0
O  O150  1  0.22810812  0.57358802  0.04625292  1  -1.265242  0  -0.232438  -0.590612  0  2.287801  0
O  O151  1  0.00455916  0.38488953  0.04960708  1  -1.253028  0  -0.239149  -0.594985  0  2.225843  0
O  O152  1  0.18629269  0.35035335  0.99569470  1  -1.611622  0  -0.391859  -1.269617  0  2.293251  0
O  O153  1  0.68226322  0.98856574  0.55453982  1  -1.266943  0  -0.247523  -0.60586  0  2.270043  0
O  O154  1  0.46203467  0.79378792  0.54125208  1  -1.241207  0  -0.227006  -0.5938  0  2.264987  0
O  O155  1  0.28477509  0.80802063  0.54048593  1  -1.237543  0  -0.226191  -0.58191  0  2.24021  0
O  O156  1  0.30789070  0.01959467  0.54467672  1  -1.272729  0  -0.246045  -0.610367  0  2.293543  0
O  O157  1  0.48603043  0.17419125  0.45085748  1  -1.213463  0  -0.206521  -0.558275  0  2.290494  0
O  O158  1  0.69573950  0.15361960  0.44467211  1  -1.212156  0  -0.206321  -0.556703  0  2.307608  0
O  O159  1  0.70671437  0.98426769  0.45731286  1  -1.250372  0  -0.242152  -0.603304  0  2.217461  0
O  O160  1  0.70562104  0.34685511  0.50068826  1  -1.369849  0  -0.573987  -0.993006  0  1.846804  0
O  O161  1  0.98141586  0.00965030  0.98722882  1  -1.358822  0  -0.576048  -0.991656  0  1.79435  0
