# generated using pymatgen
data_CoH18C20N6O5
_symmetry_space_group_name_H-M   'P 1'
_cell_length_a   9.88340122
_cell_length_b   10.48413221
_cell_length_c   10.90543440
_cell_angle_alpha   67.96382175
_cell_angle_beta   88.09353648
_cell_angle_gamma   65.54791078
_symmetry_Int_Tables_number   1
_chemical_formula_structural   CoH18C20N6O5
_chemical_formula_sum   'Co2 H36 C40 N12 O10'
_cell_volume   943.48484263
_cell_formula_units_Z   2
loop_
 _symmetry_equiv_pos_site_id
 _symmetry_equiv_pos_as_xyz
  1  'x, y, z'
loop_
 _atom_site_type_symbol
 _atom_site_label
 _atom_site_symmetry_multiplicity
 _atom_site_fract_x
 _atom_site_fract_y
 _atom_site_fract_z
 _atom_site_occupancy
 _atom_site_pbe_cm5_charge
 _atom_site_pbe_ddec_charge
 _atom_site_pbe_ddec_spin_density
 _atom_site_pbe_ddec_sum_bond_order
 _atom_site_pbe_magmom
Co  Co0  1  0.40667340  0.34947643  0.42986831  1  0.61931  0.685172  -1.002098  2.863109  -0.92
Co  Co1  1  0.59333846  0.65052186  0.57013358  1  0.619394  0.685198  -1.002076  2.863272  -0.92
H  H2  1  0.98090046  0.22772569  0.83231744  1  0.096374  0.097083  5.9e-05  1.044116  0.0
H  H3  1  0.01908615  0.77227473  0.16768599  1  0.096376  0.097153  5.9e-05  1.04404  0.0
H  H4  1  0.77751172  0.16637273  0.77958336  1  0.097255  0.096478  6.5e-05  1.023828  0.0
H  H5  1  0.22248558  0.83362453  0.22040723  1  0.097223  0.096441  6.5e-05  1.023705  0.0
H  H6  1  0.84047237  0.90453120  0.79402602  1  0.099517  0.0962  -2.2e-05  1.020902  0.0
H  H7  1  0.15953446  0.09546261  0.20596925  1  0.099496  0.096195  -2.2e-05  1.020885  0.0
H  H8  1  0.10489165  0.71049919  0.85229221  1  0.093324  0.091838  1.7e-05  1.043181  0.0
H  H9  1  0.89511726  0.28950372  0.14770447  1  0.093309  0.091872  1.7e-05  1.043085  0.0
H  H10  1  0.36134572  0.65019863  0.87297429  1  0.114649  0.103078  0.000138  0.992608  0.0
H  H11  1  0.63865511  0.34981097  0.12702939  1  0.114628  0.102932  0.000138  0.992621  0.0
H  H12  1  0.43406688  0.77863740  0.87411804  1  0.12252  0.114201  6.2e-05  1.02821  0.0
H  H13  1  0.56593352  0.22137119  0.12587683  1  0.12255  0.114148  6.2e-05  1.028215  0.0
H  H14  1  0.22397329  0.14474356  0.93370569  1  0.116046  0.105927  4e-06  1.003191  0.0
H  H15  1  0.77601135  0.85526366  0.06630002  1  0.116046  0.105885  4e-06  1.003239  0.0
H  H16  1  0.36262587  0.95304413  0.98956108  1  0.119554  0.107279  5.5e-05  1.011755  0.0
H  H17  1  0.63736186  0.04696768  0.01044299  1  0.119554  0.107272  5.5e-05  1.011721  0.0
H  H18  1  0.57334018  0.57139281  0.33580109  1  0.13985  0.113561  -0.000191  1.023487  0.0
H  H19  1  0.42669520  0.42857945  0.66419838  1  0.13985  0.113522  -0.000191  1.023335  0.0
H  H20  1  0.27907973  0.51309378  0.11419769  1  0.140365  0.109414  0.00011  1.054187  0.0
H  H21  1  0.72090974  0.48693973  0.88580159  1  0.140329  0.109443  0.00011  1.054134  0.0
H  H22  1  0.61598168  0.99626841  0.62303610  1  0.141336  0.112146  0.000117  1.00004  0.0
H  H23  1  0.38402394  0.00373180  0.37698817  1  0.141258  0.111943  0.000118  1.000142  0.0
H  H24  1  0.20002181  0.31504188  0.66322105  1  0.146178  0.138545  0.000146  1.013127  0.0
H  H25  1  0.79995230  0.68495083  0.33676143  1  0.146238  0.138683  0.000146  1.013102  0.0
H  H26  1  0.79637155  0.92694127  0.47359731  1  0.105338  0.110021  0.000143  1.012524  0.0
H  H27  1  0.20362727  0.07301925  0.52641420  1  0.105303  0.11004  0.000143  1.012563  0.0
H  H28  1  0.06303224  0.73895327  0.51348189  1  0.106756  0.111827  -7.5e-05  1.011482  0.0
H  H29  1  0.93695724  0.26102222  0.48651545  1  0.106776  0.111894  -7.5e-05  1.011341  0.0
H  H30  1  0.26381588  0.31002401  0.09803008  1  0.103027  0.103323  -0.000134  1.037402  0.0
H  H31  1  0.73618450  0.68998455  0.90196663  1  0.103042  0.103343  -0.000134  1.037448  0.0
H  H32  1  0.17019758  0.38387926  0.86010083  1  0.099897  0.094554  2e-05  1.043205  0.0
H  H33  1  0.82978162  0.61612700  0.13989063  1  0.09988  0.094539  2e-05  1.043282  0.0
H  H34  1  0.14692765  0.52322796  0.41868235  1  0.288907  0.378967  0.000303  0.968636  0.0
H  H35  1  0.85307155  0.47676460  0.58131808  1  0.28895  0.378994  0.000303  0.968596  0.0
H  H36  1  0.25902128  0.59164446  0.46054576  1  0.293095  0.380175  -0.000434  0.964727  0.0
H  H37  1  0.74098055  0.40835391  0.53944803  1  0.293111  0.380184  -0.000434  0.96474  0.0
C  C38  1  0.19271538  0.85700337  0.87875067  1  -0.015155  0.038171  1.6e-05  3.943522  0.0
C  C39  1  0.80728386  0.14299824  0.12125397  1  -0.015015  0.038254  1.6e-05  3.94387  0.0
C  C40  1  0.15675326  0.00331692  0.87468058  1  -0.012907  0.04106  0.000118  3.945743  0.0
C  C41  1  0.84323447  0.99669490  0.12532257  1  -0.013037  0.040957  0.000118  3.946073  0.0
C  C42  1  0.00727177  0.11350551  0.83841894  1  -0.091456  -0.126672  8e-05  3.975665  0.0
C  C43  1  0.99271846  0.88650068  0.16158061  1  -0.091499  -0.126928  8e-05  3.975548  0.0
C  C44  1  0.89330377  0.07914501  0.80940776  1  -0.090422  -0.070266  2.3e-05  3.996816  0.0
C  C45  1  0.10669151  0.92085672  0.19058774  1  -0.090337  -0.070136  2.3e-05  3.996475  0.0
C  C46  1  0.92829121  0.93318126  0.81628965  1  -0.08947  -0.071012  -4.3e-05  4.002128  0.0
C  C47  1  0.07170860  0.06682158  0.18370905  1  -0.089462  -0.070966  -4.3e-05  4.002169  0.0
C  C48  1  0.07738053  0.82365642  0.84980198  1  -0.093108  -0.131564  8.5e-05  3.993719  0.0
C  C49  1  0.92262274  0.17634295  0.15020153  1  -0.093148  -0.131686  8.5e-05  3.993804  0.0
C  C50  1  0.35234532  0.73369147  0.91407600  1  -0.047246  -0.141799  0.000237  3.875863  0.0
C  C51  1  0.64766216  0.26631943  0.08591886  1  -0.047222  -0.141552  0.000237  3.875971  0.0
C  C52  1  0.27579263  0.04604005  0.90664945  1  -0.042789  -0.139835  6.2e-05  3.886219  0.0
C  C53  1  0.72419246  0.95396820  0.09336323  1  -0.042746  -0.139639  6.2e-05  3.886203  0.0
C  C54  1  0.50507120  0.58258091  0.25338371  1  0.145233  0.131987  0.002289  3.944044  0.001
C  C55  1  0.49496182  0.41740619  0.74661251  1  0.145243  0.132044  0.00229  3.944013  0.001
C  C56  1  0.35396284  0.55082136  0.14441164  1  0.162689  0.080278  0.006007  3.86074  0.004
C  C57  1  0.64603760  0.44919627  0.85558744  1  0.16287  0.080333  0.00601  3.860567  0.004
C  C58  1  0.51766952  0.05089735  0.66378944  1  0.151996  0.144136  0.003711  3.935924  0.002
C  C59  1  0.48233414  0.94910969  0.33623433  1  0.152123  0.144501  0.003709  3.936152  0.002
C  C60  1  0.30518208  0.21452768  0.68074151  1  0.164555  0.080358  0.006748  3.820617  0.004
C  C61  1  0.69480063  0.78547969  0.31925318  1  0.164521  0.080147  0.006746  3.820659  0.004
C  C62  1  0.85028062  0.10534557  0.47788118  1  -0.015725  -0.033591  0.002054  4.000477  0.001
C  C63  1  0.14972479  0.89460493  0.52211717  1  -0.015762  -0.033449  0.002054  4.000754  0.001
C  C64  1  0.88592428  0.95868287  0.48413381  1  -0.080015  -0.089409  0.000178  3.956939  0.0
C  C65  1  0.11408458  0.04126640  0.51587225  1  -0.080242  -0.089804  0.000177  3.957081  0.0
C  C66  1  0.03514000  0.85365590  0.50651124  1  -0.080949  -0.088001  0.000453  3.955781  0.0
C  C67  1  0.96487500  0.14630026  0.49349232  1  -0.080941  -0.087963  0.000454  3.955486  0.0
C  C68  1  0.69102402  0.21285624  0.46444458  1  0.200785  0.530232  0.004439  4.191029  0.003
C  C69  1  0.30896112  0.78714088  0.53555085  1  0.2008  0.530186  0.004434  4.19176  0.003
C  C70  1  0.05295576  0.46064107  0.13327286  1  -0.019454  -0.03823  -0.003166  3.969002  -0.004
C  C71  1  0.94703774  0.53938572  0.86672043  1  -0.019597  -0.038366  -0.003167  3.969188  -0.004
C  C72  1  0.14834293  0.39354415  0.05437867  1  -0.090006  -0.111768  -0.000663  3.989317  -0.001
C  C73  1  0.85165154  0.60647808  0.94561526  1  -0.089978  -0.111605  -0.000663  3.989259  -0.001
C  C74  1  0.09588762  0.43351400  0.92230933  1  -0.08892  -0.104071  -0.001056  3.995104  -0.001
C  C75  1  0.90410331  0.56650709  0.07768414  1  -0.089005  -0.104224  -0.001057  3.995126  -0.001
C  C76  1  0.11494083  0.43038058  0.27075532  1  0.199067  0.546105  -0.003273  4.227843  -0.003
C  C77  1  0.88506063  0.56963484  0.72923992  1  0.199146  0.546169  -0.003273  4.227483  -0.003
N  N78  1  0.39983521  0.65075569  0.05928404  1  -0.136027  0.161813  0.00113  3.735499  0.001
N  N79  1  0.60018324  0.34924829  0.94072036  1  -0.136227  0.161681  0.001131  3.735555  0.001
N  N80  1  0.49617400  0.67293333  0.12682453  1  -0.223829  -0.271287  0.000324  3.104471  0.0
N  N81  1  0.50385791  0.32704687  0.87317593  1  -0.223815  -0.271279  0.000324  3.104313  0.0
N  N82  1  0.41877377  0.50451623  0.26902058  1  -0.353601  -0.275047  0.007878  3.629565  0.005
N  N83  1  0.58123473  0.49549244  0.73097137  1  -0.353614  -0.275063  0.007879  3.629536  0.005
N  N84  1  0.35463241  0.08575799  0.79251817  1  -0.131932  0.167669  0.001316  3.731898  0.001
N  N85  1  0.64535682  0.91425269  0.20748534  1  -0.132025  0.167626  0.001316  3.732215  0.001
N  N86  1  0.48920389  0.98048635  0.78356079  1  -0.216575  -0.253981  0.000408  3.122489  0.0
N  N87  1  0.51079478  0.01952524  0.21646151  1  -0.216516  -0.254033  0.000408  3.122338  0.0
N  N88  1  0.40800599  0.19658822  0.59706306  1  -0.355629  -0.275156  0.007612  3.633601  0.005
N  N89  1  0.59198172  0.80342357  0.40294193  1  -0.355664  -0.275105  0.007613  3.633755  0.005
O  O90  1  0.58986650  0.19971492  0.40485297  1  -0.293982  -0.474154  0.010896  2.345763  0.009
O  O91  1  0.41012209  0.80026525  0.59513543  1  -0.293999  -0.474063  0.010893  2.346183  0.009
O  O92  1  0.65352361  0.31125463  0.51585113  1  -0.297024  -0.550633  -0.021415  2.272492  -0.033
O  O93  1  0.34650194  0.68874718  0.48414839  1  -0.297073  -0.550626  -0.021419  2.272491  -0.033
O  O94  1  0.24648911  0.32311982  0.31919014  1  -0.313689  -0.543789  -0.027062  2.281899  -0.047
O  O95  1  0.75349398  0.67688172  0.68081389  1  -0.313714  -0.543894  -0.027066  2.281858  -0.047
O  O96  1  0.03604969  0.52229429  0.32387018  1  -0.324203  -0.551763  -0.002434  2.183161  -0.005
O  O97  1  0.96396317  0.47773961  0.67611021  1  -0.324256  -0.551776  -0.002434  2.183048  -0.005
O  O98  1  0.24131357  0.49983526  0.47664144  1  -0.563266  -0.729485  0.004766  2.313153  0.005
O  O99  1  0.75869869  0.50015503  0.52336322  1  -0.563362  -0.729509  0.004754  2.313  0.005
