# generated using pymatgen
data_CoH30C32(NO5)2
_symmetry_space_group_name_H-M   'P 1'
_cell_length_a   5.41471712
_cell_length_b   10.17919878
_cell_length_c   13.23776938
_cell_angle_alpha   97.09034633
_cell_angle_beta   96.37632610
_cell_angle_gamma   99.60369386
_symmetry_Int_Tables_number   1
_chemical_formula_structural   CoH30C32(NO5)2
_chemical_formula_sum   'Co1 H30 C32 N2 O10'
_cell_volume   707.41362296
_cell_formula_units_Z   1
loop_
 _symmetry_equiv_pos_site_id
 _symmetry_equiv_pos_as_xyz
  1  'x, y, z'
loop_
 _atom_site_type_symbol
 _atom_site_label
 _atom_site_symmetry_multiplicity
 _atom_site_fract_x
 _atom_site_fract_y
 _atom_site_fract_z
 _atom_site_occupancy
 _atom_site_hse06_10hf_ddec_charge
 _atom_site_hse06_10hf_ddec_spin_density
 _atom_site_hse06_10hf_ddec_sum_bond_order
 _atom_site_hse06_10hf_magmom
 _atom_site_hse06_ddec_charge
 _atom_site_hse06_ddec_spin_density
 _atom_site_hse06_ddec_sum_bond_order
 _atom_site_hse06_magmom
 _atom_site_pbe_cm5_charge
 _atom_site_pbe_ddec_charge
 _atom_site_pbe_ddec_spin_density
 _atom_site_pbe_ddec_sum_bond_order
 _atom_site_pbe_magmom
Co  Co0  1  0.49999819  0.50000274  0.50000534  1  0.7539  -1.022179  2.68778  -0.96  0.82688  -1.017793  2.609471  -0.965  0.601965  0.70974  -1.02178  2.737678  -0.95
H  H1  1  0.88244859  0.07258899  0.53994878  1  0.139067  0.000216  0.992436  0.0  0.141472  0.000177  0.99083  0.0  0.1115  0.137428  0.000221  0.993674  0.0
H  H2  1  0.11759173  0.92741525  0.46004164  1  0.139091  0.000216  0.992401  0.0  0.141496  0.000177  0.990793  0.0  0.111522  0.137453  0.000221  0.993635  0.0
H  H3  1  0.03842597  0.21654039  0.62633897  1  0.125835  7.4e-05  1.020872  0.0  0.128297  5e-05  1.019904  0.0  0.103066  0.124337  0.000112  1.02134  0.0
H  H4  1  0.96157208  0.78346768  0.37365913  1  0.125885  7.4e-05  1.020796  0.0  0.128343  5e-05  1.019832  0.0  0.10304  0.124385  0.000112  1.021271  0.0
H  H5  1  0.58282720  0.01451153  0.66292708  1  0.072408  2.2e-05  0.989782  0.0  0.072821  1.8e-05  0.989802  0.0  0.113183  0.071927  1.9e-05  0.990031  0.0
H  H6  1  0.41717717  0.98547587  0.33704948  1  0.072521  2.2e-05  0.989772  0.0  0.072934  1.9e-05  0.989793  0.0  0.113263  0.072048  1.9e-05  0.990025  0.0
H  H7  1  0.24345430  0.03528033  0.98066389  1  0.102729  -2e-06  1.02269  0.0  0.105262  -1e-06  1.021402  0.0  0.105096  0.100853  -3e-06  1.023733  0.0
H  H8  1  0.75650683  0.96471625  0.01933128  1  0.102837  -2e-06  1.022773  0.0  0.105368  -1e-06  1.021478  0.0  0.105154  0.100943  -3e-06  1.023838  0.0
H  H9  1  0.44378622  0.85097989  0.89864756  1  0.100014  -0.0  1.022747  0.0  0.102393  -1e-06  1.022694  0.0  0.101202  0.098388  2e-06  1.02281  0.0
H  H10  1  0.55620345  0.14902625  0.10135522  1  0.100029  -0.0  1.022747  0.0  0.102416  -1e-06  1.02267  0.0  0.101197  0.098398  2e-06  1.022812  0.0
H  H11  1  0.34590387  0.77370539  0.71149175  1  0.100586  8.3e-05  1.021025  0.0  0.102779  6.9e-05  1.021152  0.0  0.102232  0.099031  9.4e-05  1.020941  0.0
H  H12  1  0.65412527  0.22630224  0.28851339  1  0.100612  8.3e-05  1.020969  0.0  0.102813  6.9e-05  1.021087  0.0  0.102274  0.099058  9.4e-05  1.020875  0.0
H  H13  1  0.03280932  0.86761846  0.60397374  1  0.111372  -2.4e-05  1.041876  0.0  0.114554  -1.5e-05  1.040365  0.0  0.105163  0.108698  -7.3e-05  1.043602  0.0
H  H14  1  0.96724592  0.13238597  0.39601754  1  0.111296  -2.5e-05  1.041916  0.0  0.114491  -1.5e-05  1.040409  0.0  0.1051  0.108622  -7.3e-05  1.043641  0.0
H  H15  1  0.91578305  0.56105239  0.37348848  1  0.083147  0.000267  1.074981  0.0  0.085744  0.000222  1.072014  0.0  0.117735  0.080926  0.000302  1.077628  0.0
H  H16  1  0.08422507  0.43894328  0.62652442  1  0.083092  0.000267  1.074988  0.0  0.085696  0.000222  1.072008  0.0  0.117696  0.080869  0.000302  1.077639  0.0
H  H17  1  0.95484015  0.56034295  0.19149116  1  0.118131  6.7e-05  1.02463  0.0  0.120995  5.9e-05  1.024723  0.0  0.106914  0.11604  7.6e-05  1.024713  0.0
H  H18  1  0.04518600  0.43964495  0.80852298  1  0.118156  6.7e-05  1.024621  0.0  0.12102  5.8e-05  1.024711  0.0  0.106915  0.116042  7.6e-05  1.024742  0.0
H  H19  1  0.17607556  0.35914879  0.12190404  1  0.130139  1.8e-05  1.002995  0.0  0.133029  3.1e-05  1.002976  0.0  0.110427  0.128129  8e-06  1.003031  0.0
H  H20  1  0.82392010  0.64087872  0.87810743  1  0.130204  1.8e-05  1.00273  0.0  0.133098  3.1e-05  1.002709  0.0  0.110437  0.128197  8e-06  1.002768  0.0
H  H21  1  0.15982614  0.37972623  0.30940018  1  0.090973  0.000192  1.052069  0.0  0.092972  0.00012  1.050046  0.0  0.115786  0.089339  0.000253  1.053817  0.0
H  H22  1  0.84015821  0.62030003  0.69060752  1  0.090942  0.000192  1.052116  0.0  0.092939  0.00012  1.0501  0.0  0.115737  0.089312  0.000253  1.053872  0.0
H  H23  1  0.78480249  0.49761420  0.01691711  1  0.099819  -2.4e-05  1.001963  0.0  0.101516  -1.4e-05  1.001026  0.0  0.095734  0.098432  -3.7e-05  1.002916  0.0
H  H24  1  0.21520620  0.50238233  0.98309136  1  0.099843  -2.4e-05  1.001872  0.0  0.101548  -1.4e-05  1.000938  0.0  0.095779  0.098449  -3.7e-05  1.002828  0.0
H  H25  1  0.54496069  0.35392253  0.98743243  1  0.111934  0.000264  0.985858  0.0  0.114394  0.00015  0.983993  0.0  0.098123  0.109838  0.000405  0.987535  0.0
H  H26  1  0.45504565  0.64607307  0.01257885  1  0.111871  0.000264  0.985794  0.0  0.114334  0.00015  0.98394  0.0  0.098126  0.109778  0.000405  0.987461  0.0
H  H27  1  0.04431760  0.35625797  0.49288140  1  0.385481  0.000111  0.955719  0.0  0.396585  0.000158  0.940109  0.0  0.293684  0.377763  1.7e-05  0.965081  0.0
H  H28  1  0.95567522  0.64374137  0.50712636  1  0.385557  0.000111  0.955602  0.0  0.39666  0.000158  0.939994  0.0  0.293704  0.377839  1.7e-05  0.964932  0.0
H  H29  1  0.28468664  0.27430477  0.49863809  1  0.368166  1.2e-05  0.993439  0.0  0.380756  1.7e-05  0.975799  0.0  0.28685  0.359278  -1.4e-05  1.005874  0.0
H  H30  1  0.71530615  0.72569223  0.50135968  1  0.368147  1.2e-05  0.993481  0.0  0.380739  1.7e-05  0.97584  0.0  0.28684  0.359261  -1.4e-05  1.005913  0.0
C  C31  1  0.66297973  0.22710491  0.55320832  1  0.669551  -0.000458  4.099471  -0.001  0.703995  -0.000127  4.091931  -0.001  0.218192  0.646265  -0.000889  4.103118  -0.001
C  C32  1  0.33702350  0.77288677  0.44677680  1  0.669655  -0.000458  4.099138  -0.001  0.704118  -0.000127  4.091566  -0.001  0.218186  0.646367  -0.000888  4.102791  -0.001
C  C33  1  0.85465943  0.15079943  0.60074847  1  -0.374027  -0.001527  3.898926  -0.002  -0.380335  -0.001092  3.904063  -0.002  -0.164903  -0.369715  -0.001982  3.895239  -0.003
C  C34  1  0.14535100  0.84919848  0.39924129  1  -0.374193  -0.001527  3.899374  -0.002  -0.380509  -0.001092  3.904512  -0.002  -0.164955  -0.36986  -0.001982  3.895707  -0.003
C  C35  1  0.76978069  0.07835685  0.68789284  1  0.172283  -0.000525  3.849777  -0.001  0.180131  -0.000379  3.858711  -0.001  0.015177  0.167016  -0.000685  3.843857  -0.001
C  C36  1  0.23021286  0.92163373  0.31209240  1  0.172139  -0.000525  3.850134  -0.001  0.179973  -0.00038  3.85907  -0.001  0.015166  0.166808  -0.000685  3.844297  -0.001
C  C37  1  0.96122817  0.00282015  0.73220778  1  0.038787  2e-06  3.970623  0.0  0.040027  2.3e-05  3.993973  0.0  -0.00551  0.037826  -0.000124  3.955091  0.0
C  C38  1  0.03876355  0.99717157  0.26778198  1  0.038988  1e-06  3.970431  0.0  0.040225  2.5e-05  3.993786  0.0  -0.005407  0.038045  -0.000124  3.954914  0.0
C  C39  1  0.02575826  0.05056741  0.83679195  1  -0.112096  -0.000111  4.069659  0.0  -0.122573  -7.6e-05  4.094049  0.0  -0.021383  -0.105194  -0.000175  4.052936  0.0
C  C40  1  0.97422154  0.94942822  0.16319892  1  -0.112088  -0.00011  4.069493  0.0  -0.122558  -7.7e-05  4.093884  0.0  -0.02144  -0.105192  -0.000175  4.052765  0.0
C  C41  1  0.19954374  0.99821887  0.89879246  1  -0.064841  2e-05  3.978302  0.0  -0.062386  2.8e-05  3.997159  0.0  -0.073922  -0.066081  7.2e-05  3.96531  0.0
C  C42  1  0.80042894  0.00177883  0.10120269  1  -0.065132  1.9e-05  3.978586  0.0  -0.062665  2.9e-05  3.997419  0.0  -0.07409  -0.066359  7.2e-05  3.965605  0.0
C  C43  1  0.31126296  0.89660721  0.85262247  1  -0.089708  -6.7e-05  4.001165  0.0  -0.094031  -5e-05  4.023267  0.0  -0.087073  -0.08687  -0.000159  3.985902  0.0
C  C44  1  0.68872971  0.10339585  0.14737723  1  -0.089758  -6.7e-05  4.000996  0.0  -0.094079  -5.1e-05  4.023101  0.0  -0.087087  -0.086923  -0.000159  3.985729  0.0
C  C45  1  0.25276568  0.85123154  0.74681399  1  -0.057743  2e-05  3.977476  0.0  -0.056487  3.6e-05  3.996495  0.0  -0.076383  -0.058166  8.4e-05  3.964329  0.0
C  C46  1  0.74725293  0.14877675  0.25318455  1  -0.057657  1.9e-05  3.977204  0.0  -0.056411  3.6e-05  3.996228  0.0  -0.076303  -0.058075  8.4e-05  3.964045  0.0
C  C47  1  0.07738733  0.90402108  0.68561519  1  -0.112956  -6.2e-05  3.956944  0.0  -0.115457  -5.5e-05  3.974202  0.0  -0.084612  -0.111759  -0.000138  3.946354  0.0
C  C48  1  0.92263532  0.09598109  0.31437860  1  -0.112967  -6.2e-05  3.956832  0.0  -0.115488  -5.5e-05  3.974111  0.0  -0.084647  -0.111772  -0.000138  3.946238  0.0
C  C49  1  0.88869044  0.16075795  0.86275713  1  0.524618  -1.2e-05  4.149027  0.0  0.557874  -5e-06  4.140938  0.0  0.223924  0.502014  -4.8e-05  4.153746  0.0
C  C50  1  0.11126989  0.83922720  0.13722583  1  0.524538  -1.1e-05  4.149508  0.0  0.557761  -4e-06  4.141446  0.0  0.223856  0.501947  -4.8e-05  4.154215  0.0
C  C51  1  0.75047470  0.52192570  0.31699500  1  0.084303  0.00564  3.954628  0.003  0.095798  0.00406  3.969164  0.003  0.036523  0.074751  0.007413  3.948292  0.004
C  C52  1  0.24953563  0.47807697  0.68301702  1  0.084496  0.00564  3.954523  0.003  0.095967  0.004062  3.969109  0.003  0.036624  0.07495  0.007413  3.948178  0.004
C  C53  1  0.77288850  0.51876813  0.21331103  1  -0.193261  -0.000375  3.956451  -0.001  -0.202752  -0.000556  3.976614  -0.001  -0.086674  -0.18666  -0.000316  3.943019  -0.001
C  C54  1  0.22712846  0.48122558  0.78669997  1  -0.19339  -0.000375  3.956461  -0.001  -0.202903  -0.000556  3.976579  -0.001  -0.08671  -0.186777  -0.000316  3.943038  -0.001
C  C55  1  0.56696845  0.46238916  0.13862965  1  0.181068  0.005548  3.94449  0.003  0.189405  0.00354  3.964346  0.002  0.014642  0.174947  0.00812  3.931212  0.005
C  C56  1  0.43304335  0.53761258  0.86138390  1  0.181058  0.005548  3.944469  0.003  0.189506  0.003538  3.964192  0.002  0.014607  0.174934  0.008122  3.931183  0.005
C  C57  1  0.34349005  0.40918766  0.17509543  1  -0.192828  -0.000442  3.937408  -0.001  -0.202212  -0.000614  3.957131  -0.001  -0.081753  -0.186613  -0.000387  3.924658  -0.001
C  C58  1  0.65650833  0.59083093  0.82491781  1  -0.192982  -0.000441  3.937187  -0.001  -0.2024  -0.000614  3.956873  -0.001  -0.081738  -0.18677  -0.000387  3.924449  -0.001
C  C59  1  0.33174298  0.41983864  0.28010547  1  0.089849  0.005287  3.932475  0.003  0.100884  0.003858  3.948423  0.002  0.037324  0.081368  0.00691  3.924026  0.004
C  C60  1  0.66825514  0.58017892  0.71990692  1  0.089882  0.005288  3.932323  0.003  0.100925  0.003858  3.948267  0.002  0.037289  0.081415  0.006911  3.923847  0.004
C  C61  1  0.58811903  0.45873620  0.02616903  1  -0.197148  0.000565  3.937209  0.0  -0.198712  0.000298  3.946525  0.0  -0.155885  -0.195913  0.000869  3.93135  0.0
C  C62  1  0.41189065  0.54125849  0.97384390  1  -0.196969  0.000566  3.936857  0.0  -0.198599  0.000298  3.946168  0.0  -0.155917  -0.195737  0.000869  3.931034  0.0
N  N63  1  0.53110657  0.47724641  0.35225877  1  -0.221619  0.009171  3.609189  0.006  -0.248485  0.008011  3.624088  0.005  -0.338163  -0.20524  0.009352  3.600336  0.006
N  N64  1  0.46889471  0.52276317  0.64775323  1  -0.221569  0.009171  3.609142  0.006  -0.248443  0.00801  3.624053  0.005  -0.338071  -0.205192  0.009352  3.600297  0.006
O  O65  1  0.75003430  0.33922005  0.52339766  1  -0.590306  -0.019332  2.268499  -0.033  -0.622056  -0.015541  2.257187  -0.027  -0.309051  -0.566909  -0.02346  2.274665  -0.039
O  O66  1  0.24996358  0.66078095  0.47659841  1  -0.590358  -0.019334  2.268419  -0.033  -0.622085  -0.015543  2.257032  -0.027  -0.309013  -0.566952  -0.023463  2.274575  -0.039
O  O67  1  0.43092269  0.17518845  0.54346939  1  -0.555337  0.000189  2.161752  0.0  -0.580656  0.000314  2.153179  0.0  -0.315762  -0.537318  7.3e-05  2.166764  0.0
O  O68  1  0.56908281  0.82479703  0.45650937  1  -0.555407  0.00019  2.161698  0.0  -0.580737  0.000314  2.153115  0.0  -0.315809  -0.537374  7.4e-05  2.16669  0.0
O  O69  1  0.74024488  0.17596002  0.77493932  1  -0.277407  5.6e-05  2.358928  0.0  -0.296937  4.2e-05  2.355741  0.0  -0.166255  -0.26364  6.6e-05  2.360328  0.0
O  O70  1  0.25971640  0.82402214  0.22504347  1  -0.277309  5.1e-05  2.358861  0.0  -0.296796  3.9e-05  2.355657  0.0  -0.166201  -0.263528  6.7e-05  2.36028  0.0
O  O71  1  0.89578866  0.23310552  0.94424594  1  -0.481491  -1.4e-05  2.16253  0.0  -0.501408  -6e-06  2.155527  0.0  -0.280535  -0.467343  -3.7e-05  2.166718  0.0
O  O72  1  0.10413672  0.76687763  0.05574773  1  -0.481406  -1.1e-05  2.16322  0.0  -0.501319  -4e-06  2.156234  0.0  -0.280459  -0.467275  -3.7e-05  2.16744  0.0
O  O73  1  0.21284299  0.35166918  0.46917683  1  -0.756531  0.006242  2.356675  0.006  -0.79073  0.00615  2.32284  0.006  -0.565636  -0.732126  0.004949  2.378103  0.004
O  O74  1  0.78715269  0.64833315  0.53082980  1  -0.756514  0.006243  2.356464  0.006  -0.790721  0.006151  2.322636  0.006  -0.565607  -0.732118  0.00495  2.377874  0.004
