# generated using pymatgen
data_V2CuH9C10(NO2)3
_symmetry_space_group_name_H-M   'P 1'
_cell_length_a   7.26733266
_cell_length_b   10.49773978
_cell_length_c   10.63414903
_cell_angle_alpha   110.23119157
_cell_angle_beta   109.94966158
_cell_angle_gamma   90.00068944
_symmetry_Int_Tables_number   1
_chemical_formula_structural   V2CuH9C10(NO2)3
_chemical_formula_sum   'V4 Cu2 H18 C20 N6 O12'
_cell_volume   709.12069047
_cell_formula_units_Z   2
loop_
 _symmetry_equiv_pos_site_id
 _symmetry_equiv_pos_as_xyz
  1  'x, y, z'
loop_
 _atom_site_type_symbol
 _atom_site_label
 _atom_site_symmetry_multiplicity
 _atom_site_fract_x
 _atom_site_fract_y
 _atom_site_fract_z
 _atom_site_occupancy
 _atom_site_hle17_ddec_charge
 _atom_site_hle17_ddec_spin_density
 _atom_site_hle17_ddec_sum_bond_order
 _atom_site_hle17_magmom
 _atom_site_hse06_10hf_ddec_charge
 _atom_site_hse06_10hf_ddec_spin_density
 _atom_site_hse06_10hf_ddec_sum_bond_order
 _atom_site_hse06_10hf_magmom
 _atom_site_hse06_ddec_charge
 _atom_site_hse06_ddec_spin_density
 _atom_site_hse06_ddec_sum_bond_order
 _atom_site_hse06_magmom
 _atom_site_pbe_cm5_charge
 _atom_site_pbe_ddec_charge
 _atom_site_pbe_ddec_spin_density
 _atom_site_pbe_ddec_sum_bond_order
 _atom_site_pbe_magmom
V  V0  1  0.51748644  0.30641686  0.98899993  1  2.017364  -0.014234  3.031024  -0.021  2.096635  -0.006323  3.4113  -0.011  2.195534  -0.005789  3.389162  -0.01  1.454679  2.011742  -0.00608  3.458835  -0.011
V  V1  1  0.52877847  0.69376295  0.01142806  1  2.018533  0.013214  3.031856  0.019  2.095956  0.00567  3.414683  0.01  2.195702  0.005334  3.391156  0.01  1.455426  2.012134  0.006166  3.460267  0.011
V  V2  1  0.14591988  0.49992703  0.99993318  1  1.992897  0.000206  3.014399  0.0  2.071118  0.000131  3.391086  0.0  2.161721  0.000121  3.372567  0.0  1.447716  1.994066  6e-06  3.432825  0.0
V  V3  1  0.68785860  0.00004020  0.00021289  1  1.958611  -0.000247  3.039518  0.0  2.009998  -0.000118  3.470176  0.0  2.115339  -3.5e-05  3.414418  0.0  1.394573  1.929152  -1e-06  3.5235  0.0
Cu  Cu4  1  0.88049318  0.58700081  0.25490132  1  1.021578  -0.715981  1.875616  -0.51  1.035814  -0.798888  2.268281  -0.627  1.115317  -0.882039  2.199913  -0.717  0.776227  0.984716  -0.72187  2.318638  -0.553
Cu  Cu5  1  0.62607216  0.41313106  0.74528245  1  1.02036  0.715875  1.87523  0.511  1.03407  0.798611  2.26832  0.627  1.113393  0.881714  2.200344  0.717  0.7755  0.983148  0.721598  2.31823  0.553
H  H6  1  0.16247570  0.75709657  0.70599425  1  0.313758  0.000189  0.847267  0.0  0.308076  0.00011  0.889008  0.0  0.313172  9e-05  0.886035  0.0  0.341556  0.304435  0.000115  0.891068  0.0
H  H7  1  0.45683862  0.24288541  0.29401501  1  0.313595  -0.000185  0.848266  0.0  0.30817  -0.000107  0.889635  0.0  0.313309  -8.7e-05  0.886587  0.0  0.341501  0.304587  -0.000115  0.891581  0.0
H  H8  1  0.15632480  0.56763034  0.75599091  1  0.117231  -0.00069  0.984599  -0.001  0.121597  -0.000564  1.053417  -0.001  0.125058  -0.000389  1.051219  -0.001  0.112262  0.119437  -0.000715  1.054217  -0.001
H  H9  1  0.40015444  0.43226706  0.24397674  1  0.116983  0.00081  0.984254  0.001  0.121197  0.000627  1.053443  0.001  0.12468  0.000424  1.05114  0.001  0.112204  0.119161  0.000714  1.053971  0.001
H  H10  1  0.12527282  0.31365995  0.66856978  1  0.102678  -0.000534  0.935118  -0.001  0.113072  -0.000154  0.996022  0.0  0.114929  -7.2e-05  0.994447  0.0  0.114075  0.111665  -0.000237  0.997425  0.0
H  H11  1  0.45625129  0.68621365  0.33120808  1  0.103584  0.00053  0.935227  0.001  0.113642  0.000145  0.996135  0.0  0.115553  6.4e-05  0.994483  0.0  0.114253  0.112087  0.000237  0.997738  0.0
H  H12  1  0.01812961  0.18036879  0.39702808  1  0.116421  -0.000592  0.985118  -0.001  0.126971  -0.000441  1.045582  -0.001  0.129684  -0.000286  1.046097  0.0  0.103522  0.12441  -0.000555  1.046737  -0.001
H  H13  1  0.62044766  0.81964237  0.60272299  1  0.1161  0.000602  0.985647  0.001  0.126451  0.00045  1.046335  0.001  0.12912  0.000293  1.046959  0.0  0.103116  0.123917  0.000555  1.047379  0.001
H  H14  1  0.93643485  0.30969613  0.23608734  1  0.099163  -0.001319  0.948123  -0.002  0.105323  -0.001037  1.011522  -0.002  0.10743  -0.000709  1.008451  -0.001  0.124852  0.103697  -0.0013  1.013553  -0.002
H  H15  1  0.69986451  0.69041125  0.76375979  1  0.09917  0.001354  0.948468  0.002  0.105938  0.001051  1.011097  0.002  0.108025  0.000715  1.008024  0.001  0.125042  0.104204  0.001298  1.013261  0.002
H  H16  1  0.30615263  0.96333281  0.73290464  1  0.124547  -0.000864  0.94689  -0.001  0.130446  -0.000712  1.01076  -0.001  0.133476  -0.000492  1.009488  -0.001  0.119316  0.128128  -0.00087  1.011874  -0.001
H  H17  1  0.57344936  0.03669665  0.26699787  1  0.123884  0.000769  0.947725  0.001  0.129749  0.000633  1.011911  0.001  0.132809  0.000441  1.010584  0.001  0.118988  0.127647  0.00087  1.012654  0.001
H  H18  1  0.36439895  0.11763717  0.61604839  1  0.106374  -0.000527  0.962822  -0.001  0.117159  -0.000167  1.022285  0.0  0.119295  -9.3e-05  1.02078  0.0  0.109362  0.115514  -0.000261  1.023627  0.0
H  H19  1  0.74843744  0.88229084  0.38365146  1  0.107046  0.000594  0.962637  0.001  0.1183  0.000219  1.021516  0.0  0.120588  0.000134  1.019813  0.0  0.109624  0.11647  0.000262  1.023073  0.0
H  H20  1  0.22695945  0.03246316  0.34026619  1  0.116569  -0.000723  0.952269  -0.001  0.127448  -0.00058  1.007351  -0.001  0.130432  -0.000375  1.006532  0.0  0.109064  0.12461  -0.000684  1.009536  -0.001
H  H21  1  0.88667439  0.96739652  0.65945270  1  0.116787  0.000663  0.95282  0.001  0.128051  0.000527  1.007334  0.001  0.131131  0.000343  1.006408  0.0  0.10924  0.125293  0.000684  1.009472  0.001
H  H22  1  0.03543097  0.80189025  0.20476702  1  0.102746  -0.001548  0.925063  -0.002  0.108028  -0.001317  0.986929  -0.002  0.109588  -0.000928  0.984364  -0.001  0.132343  0.106663  -0.001603  0.98857  -0.002
H  H23  1  0.83065717  0.19795225  0.79513074  1  0.100851  0.001473  0.926549  0.002  0.107665  0.001257  0.987019  0.002  0.109213  0.000893  0.984477  0.001  0.132134  0.106527  0.001609  0.988438  0.002
C  C24  1  0.07151005  0.57283056  0.54276024  1  0.413011  0.003297  3.783936  0.004  0.389018  -0.000537  4.048519  0.0  0.408042  0.000676  4.064962  0.002  0.228414  0.376011  -0.001441  4.03744  -0.001
C  C25  1  0.52866759  0.42715765  0.45721487  1  0.411948  -0.003164  3.784233  -0.004  0.388121  0.000619  4.048548  0.0  0.407205  -0.00061  4.064948  -0.001  0.228067  0.375201  0.001449  4.037389  0.001
C  C26  1  0.11146308  0.50677806  0.64175745  1  -0.195604  -0.010815  3.687757  -0.011  -0.213303  -0.004671  3.943831  -0.005  -0.223782  -0.004082  3.962761  -0.005  -0.086081  -0.206817  -0.00491  3.931626  -0.005
C  C27  1  0.46945928  0.49315099  0.35817786  1  -0.19401  0.010481  3.686474  0.011  -0.211636  0.004668  3.942333  0.005  -0.222088  0.004067  3.961188  0.005  -0.085597  -0.20535  0.00491  3.930077  0.005
C  C28  1  0.09372070  0.36527143  0.59197676  1  0.025123  0.007984  3.712527  0.008  -0.002075  0.002291  3.979273  0.003  0.005503  0.002467  3.993773  0.003  -0.065773  -0.007316  0.002074  3.970445  0.002
C  C29  1  0.50131540  0.63466391  0.40785462  1  0.023648  -0.007792  3.712423  -0.008  -0.003292  -0.002277  3.979137  -0.003  0.004262  -0.002464  3.993579  -0.003  -0.06628  -0.008432  -0.002068  3.970566  -0.002
C  C30  1  0.03532265  0.29149594  0.44390830  1  -0.148483  -0.0098  3.733143  -0.011  -0.165284  -0.003916  3.987452  -0.005  -0.174615  -0.003303  4.009149  -0.004  -0.100233  -0.159595  -0.004272  3.974267  -0.005
C  C31  1  0.59090206  0.70851261  0.55591355  1  -0.148655  0.009669  3.73366  0.01  -0.164975  0.003927  3.987751  0.005  -0.174323  0.003301  4.009416  0.004  -0.099927  -0.159383  0.004275  3.974525  0.005
C  C32  1  0.98940754  0.36305501  0.35210369  1  0.154862  0.005995  3.672846  0.006  0.1292  0.000721  3.923934  0.002  0.140416  0.001927  3.940455  0.003  0.044847  0.1226  -0.000242  3.912215  0.0
C  C33  1  0.63689996  0.63699817  0.64776985  1  0.155342  -0.006138  3.671664  -0.007  0.129059  -0.000757  3.922731  -0.002  0.140297  -0.001944  3.939263  -0.003  0.044594  0.122598  0.000248  3.91097  0.0
C  C34  1  0.13797691  0.80064938  0.53041262  1  0.409002  0.003835  3.807746  0.005  0.382386  -0.000537  4.075827  0.0  0.402  0.000782  4.091462  0.002  0.231285  0.369411  -0.001461  4.064875  -0.001
C  C35  1  0.60768693  0.19934053  0.46957413  1  0.411009  -0.003949  3.805534  -0.005  0.383624  0.000465  4.074452  0.0  0.403295  -0.000822  4.09002  -0.002  0.23261  0.370683  0.001466  4.063508  0.001
C  C36  1  0.24724612  0.93116791  0.61605020  1  -0.213205  -0.010768  3.69978  -0.011  -0.22769  -0.004657  3.953791  -0.005  -0.238845  -0.004078  3.974157  -0.005  -0.080553  -0.220603  -0.005038  3.940619  -0.006
C  C37  1  0.63132323  0.06880844  0.38384253  1  -0.212492  0.010872  3.699926  0.012  -0.226954  0.004661  3.954213  0.005  -0.238096  0.004073  3.974526  0.005  -0.080445  -0.219918  0.005045  3.940625  0.006
C  C38  1  0.28078215  0.01633761  0.54958603  1  0.02123  0.008707  3.709971  0.008  0.001547  0.002751  3.957133  0.003  0.007667  0.002914  3.976543  0.003  -0.063984  -0.002872  0.002555  3.944811  0.002
C  C39  1  0.73130916  0.98361922  0.45023880  1  0.020142  -0.008845  3.711991  -0.008  0.000281  -0.002843  3.958594  -0.003  0.006358  -0.00295  3.97794  -0.003  -0.064366  -0.003915  -0.002553  3.94623  -0.002
C  C40  1  0.20750474  0.97021501  0.39898226  1  -0.139827  -0.010382  3.734642  -0.011  -0.152159  -0.004346  3.984027  -0.005  -0.161976  -0.003694  4.006769  -0.004  -0.090002  -0.145981  -0.004756  3.96971  -0.006
C  C41  1  0.80855565  0.02969949  0.60082249  1  -0.142005  0.010236  3.73786  0.011  -0.154445  0.004269  3.987573  0.005  -0.164281  0.003653  4.01025  0.004  -0.090973  -0.148227  0.004763  3.973053  0.006
C  C42  1  0.09947907  0.84159839  0.32156706  1  0.161569  0.006659  3.670069  0.007  0.134241  0.000592  3.922057  0.002  0.145246  0.001868  3.939522  0.003  0.055467  0.128153  -0.000467  3.909429  0.0
C  C43  1  0.77793704  0.15829622  0.67830992  1  0.163871  -0.006754  3.671473  -0.007  0.13495  -0.000664  3.923755  -0.002  0.146006  -0.001894  3.941183  -0.003  0.055719  0.128801  0.000475  3.91101  0.0
N  N44  1  0.06261507  0.75916341  0.38612708  1  -0.390707  -0.099621  3.291235  -0.124  -0.349201  -0.068111  3.580852  -0.091  -0.383283  -0.055066  3.598119  -0.077  -0.352797  -0.328166  -0.073855  3.569678  -0.095
N  N45  1  0.67655031  0.24078516  0.61386674  1  -0.391511  0.099561  3.290629  0.124  -0.349175  0.068035  3.580573  0.09  -0.383085  0.055051  3.597631  0.077  -0.352968  -0.328241  0.073946  3.569568  0.095
N  N46  1  0.10616205  0.71486706  0.59669643  1  -0.44989  0.001173  3.318306  0.0  -0.400969  -0.000146  3.560132  -0.001  -0.422327  0.000305  3.569662  -0.001  -0.390821  -0.385884  -0.000523  3.553074  -0.002
N  N47  1  0.50967633  0.28513463  0.40331886  1  -0.450109  -0.001349  3.319217  0.0  -0.401064  9.2e-05  3.560943  0.001  -0.422468  -0.000335  3.570451  0.001  -0.391106  -0.38609  0.000524  3.553747  0.002
N  N48  1  0.00282551  0.50130016  0.39979695  1  -0.39783  -0.089757  3.2748  -0.112  -0.360061  -0.060071  3.570737  -0.08  -0.392863  -0.048398  3.58737  -0.068  -0.353041  -0.33927  -0.065271  3.560014  -0.084
N  N49  1  0.60289591  0.49874994  0.60017741  1  -0.396961  0.09028  3.272  0.112  -0.35908  0.060278  3.567833  0.08  -0.391999  0.048534  3.584665  0.068  -0.352668  -0.338495  0.065384  3.556942  0.084
O  O50  1  0.70439441  0.69734179  0.16504427  1  -0.886098  -0.052594  1.596834  -0.069  -0.91698  -0.03021  1.928988  -0.042  -0.962466  -0.024113  1.913677  -0.035  -0.623745  -0.880955  -0.033676  1.941036  -0.045
O  O51  1  0.54022111  0.30295458  0.83555298  1  -0.885084  0.052588  1.594481  0.068  -0.916878  0.030368  1.926644  0.042  -0.962068  0.024233  1.911442  0.035  -0.623532  -0.880847  0.033609  1.93887  0.045
O  O52  1  0.28031062  0.35218514  0.98641656  1  -1.00559  -0.000355  1.540124  0.0  -1.024238  -0.000189  1.81611  0.0  -1.065578  -5.6e-05  1.805152  0.0  -0.697917  -0.987516  -0.000668  1.828104  -0.001
O  O53  1  0.29407070  0.64755575  0.01355527  1  -1.005842  0.000907  1.539148  0.001  -1.023931  0.000549  1.815284  0.001  -1.065447  0.0003  1.804146  0.0  -0.697924  -0.987372  0.000718  1.827284  0.001
O  O54  1  0.08466350  0.53696976  0.14281844  1  -0.853327  -0.000967  1.473132  -0.003  -0.873946  -0.000634  1.767514  -0.002  -0.90744  -0.000436  1.755024  -0.002  -0.623922  -0.847371  -0.000634  1.779657  -0.002
O  O55  1  0.94229988  0.46296147  0.85688158  1  -0.85215  0.000645  1.474917  0.002  -0.872505  0.000496  1.769319  0.002  -0.906123  0.00033  1.756984  0.002  -0.623329  -0.846247  0.000659  1.781648  0.002
O  O56  1  0.53997007  0.14440810  0.00471297  1  -1.01469  0.000513  1.506343  0.001  -1.030699  5.5e-05  1.786292  0.0  -1.075648  0.000102  1.76956  0.0  -0.703238  -0.992804  0.000111  1.8023  0.0
O  O57  1  0.53538659  0.85594009  0.99608680  1  -1.014217  -0.000307  1.506674  -0.001  -1.029679  0.000127  1.786849  0.0  -1.074892  3.2e-05  1.769987  0.0  -0.703159  -0.992223  -0.000115  1.802817  0.0
O  O58  1  0.74655554  0.95350267  0.85649530  1  -0.814989  -0.000295  1.238011  0.0  -0.828738  -3.6e-05  1.480573  0.0  -0.863464  -2e-05  1.468844  0.0  -0.623303  -0.802746  2.9e-05  1.491512  0.0
O  O59  1  0.89033422  0.04631513  0.14366619  1  -0.814311  0.000574  1.240139  0.001  -0.827899  0.000134  1.482586  0.0  -0.86272  4.1e-05  1.470944  0.0  -0.622913  -0.802039  -2.7e-05  1.493602  0.0
O  O60  1  0.68795667  0.42450167  0.13258070  1  -0.889766  -0.030721  1.6392  -0.041  -0.923379  -0.024127  1.979397  -0.034  -0.970751  -0.020085  1.967846  -0.029  -0.623599  -0.886198  -0.026332  1.988828  -0.036
O  O61  1  0.55661275  0.57590723  0.86804009  1  -0.890231  0.031563  1.639016  0.042  -0.923071  0.024607  1.979682  0.034  -0.970164  0.020423  1.967398  0.029  -0.623379  -0.885995  0.026243  1.989159  0.036
