# generated using pymatgen
data_EuH15(C7O4)3
_symmetry_space_group_name_H-M   'P 1'
_cell_length_a   9.00950263
_cell_length_b   15.30906765
_cell_length_c   15.91736273
_cell_angle_alpha   90.00097965
_cell_angle_beta   89.99957261
_cell_angle_gamma   104.47814957
_symmetry_Int_Tables_number   1
_chemical_formula_structural   EuH15(C7O4)3
_chemical_formula_sum   'Eu4 H60 C84 O48'
_cell_volume   2125.71512340
_cell_formula_units_Z   4
loop_
 _symmetry_equiv_pos_site_id
 _symmetry_equiv_pos_as_xyz
  1  'x, y, z'
loop_
 _atom_site_type_symbol
 _atom_site_label
 _atom_site_symmetry_multiplicity
 _atom_site_fract_x
 _atom_site_fract_y
 _atom_site_fract_z
 _atom_site_occupancy
 _atom_site_pbe_bader_charge
 _atom_site_pbe_bader_spin_density
 _atom_site_pbe_cm5_charge
 _atom_site_pbe_ddec_charge
 _atom_site_pbe_ddec_spin_density
 _atom_site_pbe_ddec_sum_bond_order
 _atom_site_pbe_magmom
Eu  Eu0  1  0.56566103  0.95054630  0.10387871  1  2.224453  0  1.500197  2.104867  0  2.146385  0
Eu  Eu1  1  0.93433895  0.04945395  0.60387988  1  2.224488  0  1.500221  2.104866  0  2.146366  0
Eu  Eu2  1  0.43434007  0.04945370  0.89612093  1  2.224444  0  1.500205  2.104903  0  2.146382  0
Eu  Eu3  1  0.06566075  0.95054537  0.39612039  1  2.224492  0  1.500217  2.104894  0  2.146352  0
H  H4  1  0.01615525  0.13772844  0.02498702  1  0.067438  0  0.113366  0.099622  0  0.980186  0
H  H5  1  0.48384612  0.86227106  0.52498875  1  0.067417  0  0.11335  0.09959  0  0.980182  0
H  H6  1  0.98384668  0.86227089  0.97501262  1  0.067444  0  0.113363  0.099613  0  0.980192  0
H  H7  1  0.51615386  0.13772893  0.47501152  1  0.067417  0  0.113361  0.099611  0  0.980188  0
H  H8  1  0.04417491  0.08567140  0.92883601  1  0.132776  0  0.125701  0.134372  0  0.984625  0
H  H9  1  0.45582405  0.91432687  0.42883763  1  0.132811  0  0.125692  0.134346  0  0.984636  0
H  H10  1  0.95582591  0.91432793  0.07116363  1  0.132788  0  0.125682  0.134326  0  0.984688  0
H  H11  1  0.54417704  0.08567313  0.57116264  1  0.132787  0  0.125697  0.134365  0  0.984638  0
H  H12  1  0.84778730  0.20912308  0.06892089  1  0.073953  0  0.10859  0.127748  0  1.024519  0
H  H13  1  0.65221539  0.79087727  0.56892159  1  0.073922  0  0.108593  0.12777  0  1.024515  0
H  H14  1  0.15221295  0.79087760  0.93107875  1  0.073946  0  0.108582  0.12775  0  1.0245  0
H  H15  1  0.34778571  0.20912273  0.43107867  1  0.07393  0  0.108581  0.127751  0  1.024522  0
H  H16  1  0.74487548  0.33394813  0.11540534  1  0.107844  0  0.105696  0.118571  0  1.016451  0
H  H17  1  0.75512777  0.66605233  0.61540607  1  0.10782  0  0.105678  0.118539  0  1.016459  0
H  H18  1  0.25512451  0.66605186  0.88459430  1  0.107853  0  0.105695  0.118581  0  1.016438  0
H  H19  1  0.24487332  0.33394767  0.38459357  1  0.107822  0  0.105679  0.118572  0  1.016442  0
H  H20  1  0.87803583  0.47193168  0.88051158  1  0.0506  0  0.099982  0.098449  0  1.008164  0
H  H21  1  0.62196472  0.52806789  0.38051266  1  0.050604  0  0.099958  0.09842  0  1.008197  0
H  H22  1  0.12196388  0.52806764  0.11948806  1  0.050595  0  0.099977  0.098439  0  1.008169  0
H  H23  1  0.37803554  0.47193278  0.61948823  1  0.050581  0  0.09997  0.098434  0  1.008139  0
H  H24  1  0.98767869  0.34933367  0.83550728  1  0.056918  0  0.092683  0.098898  0  1.07361  0
H  H25  1  0.51232352  0.65066582  0.33550833  1  0.056938  0  0.092704  0.098962  0  1.073547  0
H  H26  1  0.01232241  0.65066634  0.16449299  1  0.056915  0  0.092687  0.098919  0  1.073576  0
H  H27  1  0.48767757  0.34933418  0.66449194  1  0.056926  0  0.092699  0.098944  0  1.07357  0
H  H28  1  0.87230411  0.58766251  0.94422472  1  0.125782  0  0.12546  0.096955  0  1.009492  0
H  H29  1  0.62769578  0.41233746  0.44422577  1  0.1258  0  0.125455  0.096933  0  1.009486  0
H  H30  1  0.12769698  0.41233749  0.05577429  1  0.125797  0  0.125469  0.096974  0  1.009513  0
H  H31  1  0.37230531  0.58766254  0.55577387  1  0.125781  0  0.12547  0.09697  0  1.009485  0
H  H32  1  0.32164808  0.63024551  0.24512801  1  0.083489  0  0.10911  0.122318  0  1.014596  0
H  H33  1  0.17835142  0.36975369  0.74512798  1  0.083491  0  0.109117  0.122322  0  1.014592  0
H  H34  1  0.67835163  0.36975382  0.75487163  1  0.083485  0  0.10912  0.122339  0  1.014606  0
H  H35  1  0.82164829  0.63024563  0.25487229  1  0.083489  0  0.109114  0.122335  0  1.014599  0
H  H36  1  0.41665319  0.49430518  0.21291407  1  0.122478  0  0.112398  0.123479  0  0.980629  0
H  H37  1  0.08334817  0.50569482  0.71291478  1  0.122551  0  0.112397  0.123474  0  0.980633  0
H  H38  1  0.58334679  0.50569482  0.78708557  1  0.122563  0  0.112385  0.123431  0  0.980675  0
H  H39  1  0.91665181  0.49430518  0.28708611  1  0.12256  0  0.112408  0.123485  0  0.980639  0
H  H40  1  0.54800056  0.72188425  0.92783435  1  0.171282  0  0.118645  0.123003  0  1.029663  0
H  H41  1  0.95199720  0.27811544  0.42783497  1  0.171303  0  0.118646  0.122985  0  1.029648  0
H  H42  1  0.45199803  0.27811507  0.07216529  1  0.171298  0  0.118653  0.123007  0  1.029669  0
H  H43  1  0.04800278  0.72188456  0.57216467  1  0.171305  0  0.118645  0.122975  0  1.02964  0
H  H44  1  0.73373271  0.79848761  0.92841634  1  0.110071  0  0.119927  0.115257  0  0.965307  0
H  H45  1  0.76626561  0.20151073  0.42841523  1  0.110052  0  0.119909  0.115226  0  0.965311  0
H  H46  1  0.26626672  0.20151103  0.07158330  1  0.110068  0  0.119918  0.115251  0  0.965288  0
H  H47  1  0.23373409  0.79848859  0.57158441  1  0.110057  0  0.119914  0.115218  0  0.965298  0
H  H48  1  0.35243738  0.75767234  0.29044429  1  0.118412  0  0.11503  0.101292  0  1.023417  0
H  H49  1  0.14756323  0.24232830  0.79044418  1  0.118403  0  0.11503  0.101293  0  1.023424  0
H  H50  1  0.64756288  0.24232833  0.70955535  1  0.118401  0  0.115024  0.101285  0  1.023428  0
H  H51  1  0.85243675  0.75767169  0.20955609  1  0.118406  0  0.115032  0.101312  0  1.023411  0
H  H52  1  0.20368799  0.76424267  0.21681625  1  0.1243  0  0.114629  0.109443  0  1.006565  0
H  H53  1  0.29631196  0.23575672  0.71681541  1  0.124296  0  0.114674  0.109495  0  1.006634  0
H  H54  1  0.79631227  0.23575800  0.78318401  1  0.124298  0  0.114622  0.109437  0  1.00658  0
H  H55  1  0.70368802  0.76424328  0.28318423  1  0.1243  0  0.114645  0.109467  0  1.006638  0
H  H56  1  0.78419928  0.08467377  0.22741988  1  0.650842  0  0.322223  0.429198  0  0.864585  0
H  H57  1  0.71579829  0.91532723  0.72741858  1  0.650881  0  0.322249  0.429203  0  0.864583  0
H  H58  1  0.21579959  0.91532622  0.77258039  1  0.650842  0  0.32222  0.429202  0  0.864581  0
H  H59  1  0.28420169  0.08467277  0.27258105  1  0.650879  0  0.32224  0.429195  0  0.864593  0
H  H60  1  0.63375258  0.11440757  0.19841375  1  0.658682  0  0.304717  0.398496  0  0.925434  0
H  H61  1  0.86624517  0.88559293  0.69841196  1  0.658712  0  0.30472  0.398529  0  0.925407  0
H  H62  1  0.36624685  0.88559108  0.80158714  1  0.658677  0  0.304722  0.3985  0  0.925429  0
H  H63  1  0.13375509  0.11440774  0.30158831  1  0.658708  0  0.304721  0.398538  0  0.925391  0
C  C64  1  0.80761597  0.06692991  0.96460713  1  1.598491  0  0.227639  0.659669  0  4.142066  0
C  C65  1  0.69238464  0.93306974  0.46460640  1  1.598516  0  0.227649  0.659556  0  4.142175  0
C  C66  1  0.19238513  0.93307010  0.03539376  1  1.598484  0  0.227668  0.659665  0  4.141978  0
C  C67  1  0.30761562  0.06693093  0.53539387  1  1.598511  0  0.227647  0.659621  0  4.142081  0
C  C68  1  0.97264951  0.12414391  0.96045895  1  0.411749  0  -0.062281  -0.130868  0  3.846897  0
C  C69  1  0.52735084  0.87585499  0.46045923  1  0.411774  0  -0.062287  -0.13078  0  3.846945  0
C  C70  1  0.02735159  0.87585609  0.03954131  1  0.411749  0  -0.062309  -0.130845  0  3.846921  0
C  C71  1  0.47265109  0.12414434  0.53954103  1  0.411758  0  -0.062294  -0.130855  0  3.846975  0
C  C72  1  0.92597071  0.27046436  0.94775589  1  0.431221  0  0.08188  0.258948  0  4.063508  0
C  C73  1  0.57403111  0.72953501  0.44775608  1  0.431312  0  0.081901  0.259023  0  4.063407  0
C  C74  1  0.07402927  0.72953564  0.05224438  1  0.430731  0  0.081932  0.259044  0  4.063409  0
C  C75  1  0.42597082  0.27046433  0.55224356  1  0.430887  0  0.081909  0.259025  0  4.063385  0
C  C76  1  0.85786760  0.26676181  0.02717259  1  0.019564  0  -0.107392  -0.213512  0  3.97639  0
C  C77  1  0.64213312  0.73323782  0.52717365  1  0.019551  0  -0.10739  -0.213594  0  3.976408  0
C  C78  1  0.14213210  0.73323751  0.97282705  1  0.020077  0  -0.107376  -0.213513  0  3.976352  0
C  C79  1  0.35786686  0.26676218  0.47282725  1  0.020065  0  -0.107378  -0.213544  0  3.976355  0
C  C80  1  0.79817733  0.33809744  0.05379455  1  -0.09058  0  -0.090587  -0.104253  0  3.955392  0
C  C81  1  0.70182378  0.66190399  0.55379544  1  -0.090587  0  -0.090535  -0.104107  0  3.955366  0
C  C82  1  0.20182293  0.66190323  0.94620572  1  -0.090578  0  -0.090642  -0.104348  0  3.955479  0
C  C83  1  0.29817620  0.33809601  0.44620483  1  -0.090568  0  -0.090601  -0.104272  0  3.955335  0
C  C84  1  0.80203775  0.41383683  0.00264975  1  -0.022882  0  -0.023889  0.057196  0  4.028614  0
C  C85  1  0.69796367  0.58616373  0.50265067  1  -0.023448  0  -0.023913  0.057149  0  4.02866  0
C  C86  1  0.19796084  0.58616248  0.99734988  1  -0.023524  0  -0.023852  0.057251  0  4.028583  0
C  C87  1  0.30203771  0.41383695  0.49734959  1  -0.023505  0  -0.023858  0.057244  0  4.028556  0
C  C88  1  0.87280185  0.41589658  0.92354275  1  -0.009876  0  -0.094088  -0.112018  0  4.024187  0
C  C89  1  0.62719900  0.58410238  0.42354285  1  -0.009891  0  -0.094065  -0.111968  0  4.024213  0
C  C90  1  0.12719785  0.58410275  0.07645689  1  -0.009889  0  -0.094082  -0.112017  0  4.024199  0
C  C91  1  0.37280070  0.41589695  0.57645679  1  -0.009853  0  -0.094094  -0.112005  0  4.024153  0
C  C92  1  0.93431540  0.34633593  0.89703703  1  -0.026445  0  -0.117476  -0.218662  0  4.041304  0
C  C93  1  0.56568644  0.65366190  0.39703728  1  -0.026423  0  -0.117493  -0.218766  0  4.041304  0
C  C94  1  0.06568430  0.65366339  0.10296323  1  -0.026439  0  -0.117471  -0.218675  0  4.041222  0
C  C95  1  0.43431465  0.34633810  0.60296299  1  -0.026504  0  -0.117478  -0.218718  0  4.041201  0
C  C96  1  0.61830037  0.47757981  0.09492663  1  0.923199  0  0.127566  0.336683  0  4.099678  0
C  C97  1  0.88170050  0.52241963  0.59492761  1  0.923038  0  0.127513  0.336594  0  4.099817  0
C  C98  1  0.38169822  0.52241951  0.90507301  1  0.923237  0  0.127605  0.336619  0  4.099863  0
C  C99  1  0.11829837  0.47758036  0.40507328  1  0.923064  0  0.12753  0.336652  0  4.099843  0
C  C100  1  0.73538976  0.48832670  0.02908139  1  0.087964  0  -0.034547  -0.139796  0  4.026846  0
C  C101  1  0.76461233  0.51167365  0.52908206  1  0.088507  0  -0.034543  -0.139743  0  4.026855  0
C  C102  1  0.26461133  0.51167331  0.97091762  1  0.08857  0  -0.034531  -0.139714  0  4.02685  0
C  C103  1  0.23538876  0.48832636  0.47091757  1  0.08856  0  -0.034558  -0.139797  0  4.026815  0
C  C104  1  0.78273124  0.57100493  0.99162082  1  0.370618  0  0.036736  0.086934  0  3.879636  0
C  C105  1  0.71727003  0.42899451  0.49162113  1  0.370651  0  0.036745  0.086941  0  3.879597  0
C  C106  1  0.21726874  0.42899507  0.00837882  1  0.370639  0  0.036722  0.086874  0  3.879712  0
C  C107  1  0.28273217  0.57100550  0.50837850  1  0.370655  0  0.036736  0.086927  0  3.879599  0
C  C108  1  0.62128805  0.63932910  0.06916929  1  0.478592  0  0.090513  0.140554  0  3.997682  0
C  C109  1  0.87871103  0.36067056  0.56916826  1  0.47858  0  0.090449  0.140428  0  3.99769  0
C  C110  1  0.37871054  0.36067021  0.93083161  1  0.478604  0  0.090443  0.14045  0  3.997661  0
C  C111  1  0.12128895  0.63932944  0.43083075  1  0.478587  0  0.090453  0.140467  0  3.997713  0
C  C112  1  0.56722151  0.71650940  0.08451428  1  0.543222  0  0.080888  0.065149  0  4.008148  0
C  C113  1  0.93277525  0.28349051  0.58451553  1  0.543195  0  0.080882  0.065193  0  4.008126  0
C  C114  1  0.43277736  0.28349059  0.91548473  1  0.543235  0  0.080904  0.065204  0  4.008191  0
C  C115  1  0.06722362  0.71650948  0.41548474  1  0.543176  0  0.080837  0.065109  0  4.00809  0
C  C116  1  0.46499704  0.71346045  0.15166128  1  0.474529  0  0.094317  0.191839  0  4.036463  0
C  C117  1  0.03500246  0.28653850  0.65166174  1  0.474573  0  0.094331  0.191791  0  4.036514  0
C  C118  1  0.53500183  0.28653954  0.84833899  1  0.474479  0  0.094262  0.191716  0  4.036566  0
C  C119  1  0.96499835  0.71346083  0.34833853  1  0.474564  0  0.094305  0.191799  0  4.036506  0
C  C120  1  0.40935991  0.63354381  0.19750439  1  0.029247  0  -0.103721  -0.203541  0  4.038461  0
C  C121  1  0.09064154  0.36645593  0.69750404  1  0.029291  0  -0.103735  -0.203531  0  4.038417  0
C  C122  1  0.59063980  0.36645551  0.80249525  1  0.029315  0  -0.103733  -0.20354  0  4.038503  0
C  C123  1  0.90935844  0.63354406  0.30249560  1  0.029251  0  -0.103749  -0.203588  0  4.038453  0
C  C124  1  0.46031205  0.55758663  0.17933356  1  -0.073827  0  -0.08566  -0.075206  0  4.005704  0
C  C125  1  0.03968617  0.44241279  0.67933405  1  -0.073958  0  -0.085633  -0.075169  0  4.005637  0
C  C126  1  0.53968682  0.44241336  0.82066671  1  -0.073941  0  -0.085666  -0.075186  0  4.005777  0
C  C127  1  0.96031159  0.55758720  0.32066685  1  -0.073932  0  -0.085672  -0.075201  0  4.005678  0
C  C128  1  0.56826558  0.55941949  0.11556399  1  0.000287  0  -0.040258  -0.134066  0  4.079748  0
C  C129  1  0.93173294  0.44058029  0.61556468  1  0.000274  0  -0.040235  -0.133964  0  4.079711  0
C  C130  1  0.43173190  0.44057982  0.88443565  1  0.000271  0  -0.040272  -0.134028  0  4.079794  0
C  C131  1  0.06826732  0.55942039  0.38443559  1  0.000269  0  -0.040212  -0.133993  0  4.079754  0
C  C132  1  0.61424056  0.78873950  0.94876599  1  0.321013  0  -0.059529  -0.13605  0  3.821349  0
C  C133  1  0.88575903  0.21125988  0.44876642  1  0.321005  0  -0.05946  -0.135946  0  3.821365  0
C  C134  1  0.38575915  0.21125983  0.05123365  1  0.320998  0  -0.059528  -0.136044  0  3.821303  0
C  C135  1  0.11424095  0.78874012  0.55123322  1  0.321006  0  -0.059441  -0.135913  0  3.821294  0
C  C136  1  0.54734231  0.85930803  0.90705879  1  1.582074  0  0.225741  0.646496  0  4.150605  0
C  C137  1  0.95265892  0.14069131  0.40705967  1  1.582084  0  0.22575  0.646554  0  4.150499  0
C  C138  1  0.45265628  0.14069128  0.09294148  1  1.582086  0  0.225789  0.646629  0  4.150442  0
C  C139  1  0.04734107  0.85930868  0.59293997  1  1.582062  0  0.225725  0.646484  0  4.150502  0
C  C140  1  0.32230857  0.79404740  0.23614168  1  0.321661  0  -0.060629  -0.132052  0  3.842637  0
C  C141  1  0.17769376  0.20595300  0.73614211  1  0.321555  0  -0.060649  -0.13207  0  3.842586  0
C  C142  1  0.67769141  0.20595260  0.76385795  1  0.321638  0  -0.060624  -0.132048  0  3.842594  0
C  C143  1  0.82230734  0.79404700  0.26385816  1  0.321556  0  -0.060651  -0.132121  0  3.842579  0
C  C144  1  0.33984773  0.89046118  0.26501720  1  1.665298  0  0.2383  0.694367  0  4.132808  0
C  C145  1  0.16014386  0.10953562  0.76501423  1  1.66552  0  0.238408  0.694607  0  4.132641  0
C  C146  1  0.66015447  0.10953883  0.73498181  1  1.665292  0  0.238272  0.694329  0  4.132897  0
C  C147  1  0.83985362  0.89046369  0.23498604  1  1.665261  0  0.23835  0.694494  0  4.13277  0
O  O148  1  0.78416527  0.00482852  0.01989678  1  -1.205252  0  -0.406591  -0.66776  0  2.276646  0
O  O149  1  0.71583410  0.99517300  0.51989680  1  -1.205237  0  -0.406605  -0.66771  0  2.276647  0
O  O150  1  0.21583499  0.99517215  0.98010286  1  -1.205243  0  -0.406593  -0.667752  0  2.276541  0
O  O151  1  0.28416810  0.00482701  0.48010284  1  -1.205235  0  -0.406619  -0.667767  0  2.276557  0
O  O152  1  0.71012381  0.08445505  0.91468401  1  -1.19648  0  -0.375476  -0.65201  0  2.330548  0
O  O153  1  0.78987626  0.91554442  0.41468321  1  -1.196505  0  -0.37544  -0.651966  0  2.330622  0
O  O154  1  0.28987534  0.91554561  0.08531626  1  -1.196499  0  -0.375478  -0.652005  0  2.330577  0
O  O155  1  0.21012678  0.08445492  0.58531706  1  -1.196494  0  -0.375448  -0.651963  0  2.330638  0
O  O156  1  0.98936708  0.20592722  0.91410581  1  -1.079665  0  -0.17762  -0.178625  0  2.575711  0
O  O157  1  0.51063383  0.79407157  0.41410670  1  -1.079735  0  -0.177633  -0.178665  0  2.575704  0
O  O158  1  0.01063429  0.79407345  0.08589383  1  -1.079669  0  -0.177636  -0.178669  0  2.575788  0
O  O159  1  0.48936588  0.20592776  0.58589294  1  -1.079746  0  -0.177618  -0.178641  0  2.575805  0
O  O160  1  0.56102424  0.40514043  0.13206359  1  -1.117865  0  -0.288704  -0.438276  0  2.133267  0
O  O161  1  0.93897918  0.59486100  0.63206301  1  -1.117668  0  -0.288677  -0.438276  0  2.133292  0
O  O162  1  0.43897435  0.59485889  0.86793605  1  -1.117916  0  -0.288711  -0.438238  0  2.133313  0
O  O163  1  0.06102219  0.40513968  0.36793726  1  -1.117715  0  -0.288689  -0.438288  0  2.133313  0
O  O164  1  0.72807507  0.64412302  0.00719652  1  -1.0924  0  -0.112384  -0.094619  0  2.709709  0
O  O165  1  0.77192354  0.35587626  0.50719712  1  -1.092469  0  -0.112337  -0.094558  0  2.709651  0
O  O166  1  0.27192380  0.35587697  0.99280312  1  -1.092449  0  -0.11232  -0.09453  0  2.70968  0
O  O167  1  0.22807727  0.64412307  0.49280252  1  -1.092434  0  -0.112316  -0.094546  0  2.709641  0
O  O168  1  0.60987271  0.79571816  0.03984852  1  -1.086824  0  -0.196512  -0.222592  0  2.667433  0
O  O169  1  0.89012571  0.20428168  0.53984677  1  -1.086785  0  -0.196591  -0.222725  0  2.667593  0
O  O170  1  0.39012728  0.20428184  0.96015111  1  -1.086822  0  -0.196526  -0.222646  0  2.667461  0
O  O171  1  0.10987566  0.79571900  0.46015287  1  -1.086804  0  -0.19655  -0.222621  0  2.667435  0
O  O172  1  0.54468627  0.85830848  0.82852128  1  -1.159475  0  -0.300575  -0.541883  0  2.100366  0
O  O173  1  0.95531654  0.14169223  0.32852028  1  -1.159477  0  -0.300613  -0.541942  0  2.100208  0
O  O174  1  0.45531371  0.14169151  0.17147836  1  -1.159476  0  -0.300632  -0.541971  0  2.100325  0
O  O175  1  0.04468484  0.85830845  0.67147999  1  -1.159475  0  -0.300588  -0.541895  0  2.100159  0
O  O176  1  0.49561773  0.91387876  0.95430524  1  -1.208287  0  -0.434755  -0.759624  0  2.434039  0
O  O177  1  0.00438246  0.08612332  0.45430397  1  -1.208325  0  -0.434717  -0.759616  0  2.434101  0
O  O178  1  0.50438253  0.08612192  0.04569440  1  -1.208271  0  -0.434734  -0.759632  0  2.433931  0
O  O179  1  0.99561891  0.91387736  0.54569630  1  -1.208324  0  -0.434721  -0.759612  0  2.434126  0
O  O180  1  0.42420375  0.79186106  0.16701002  1  -1.094959  0  -0.193941  -0.228406  0  2.738371  0
O  O181  1  0.07579371  0.20813881  0.66700966  1  -1.094837  0  -0.193967  -0.228429  0  2.738294  0
O  O182  1  0.57579373  0.20813825  0.83298961  1  -1.094901  0  -0.193903  -0.228335  0  2.738279  0
O  O183  1  0.92420627  0.79186118  0.33299061  1  -1.094832  0  -0.193935  -0.228371  0  2.738235  0
O  O184  1  0.24240683  0.89840417  0.31968733  1  -1.205415  0  -0.42012  -0.684835  0  2.363258  0
O  O185  1  0.25759639  0.10159563  0.81968821  1  -1.205259  0  -0.420156  -0.684983  0  2.362902  0
O  O186  1  0.75759232  0.10159649  0.68031294  1  -1.205403  0  -0.420074  -0.684763  0  2.363357  0
O  O187  1  0.74240442  0.89840370  0.18031205  1  -1.205266  0  -0.420118  -0.684886  0  2.362963  0
O  O188  1  0.44847034  0.95265261  0.23772401  1  -1.187742  0  -0.385041  -0.640258  0  2.250729  0
O  O189  1  0.05153142  0.04734916  0.73772550  1  -1.188117  0  -0.385087  -0.640362  0  2.251113  0
O  O190  1  0.55152937  0.04734671  0.76227626  1  -1.187718  0  -0.385049  -0.640268  0  2.250666  0
O  O191  1  0.94846883  0.95265151  0.26227539  1  -1.18785  0  -0.385059  -0.640301  0  2.251013  0
O  O192  1  0.71624608  0.08643718  0.17983112  1  -1.280089  0  -0.620203  -0.830926  0  2.034899  0
O  O193  1  0.78375289  0.91356301  0.67982951  1  -1.280166  0  -0.620215  -0.830946  0  2.034889  0
O  O194  1  0.28375363  0.91356215  0.82016914  1  -1.280084  0  -0.6202  -0.830937  0  2.034895  0
O  O195  1  0.21624737  0.08643766  0.32017075  1  -1.28015  0  -0.620215  -0.830968  0  2.034904  0
