# generated using pymatgen
data_CuSiH24C40(N2F3)2
_symmetry_space_group_name_H-M   'P 1'
_cell_length_a   8.04983581
_cell_length_b   20.59632852
_cell_length_c   20.59638534
_cell_angle_alpha   93.68217592
_cell_angle_beta   89.99955943
_cell_angle_gamma   90.00057166
_symmetry_Int_Tables_number   1
_chemical_formula_structural   CuSiH24C40(N2F3)2
_chemical_formula_sum   'Cu2 Si2 H48 C80 N8 F12'
_cell_volume   3407.77079318
_cell_formula_units_Z   2
loop_
 _symmetry_equiv_pos_site_id
 _symmetry_equiv_pos_as_xyz
  1  'x, y, z'
loop_
 _atom_site_type_symbol
 _atom_site_label
 _atom_site_symmetry_multiplicity
 _atom_site_fract_x
 _atom_site_fract_y
 _atom_site_fract_z
 _atom_site_occupancy
 _atom_site_pbe_bader_charge
 _atom_site_pbe_bader_spin_density
 _atom_site_pbe_cm5_charge
 _atom_site_pbe_ddec_charge
 _atom_site_pbe_ddec_spin_density
 _atom_site_pbe_ddec_sum_bond_order
 _atom_site_pbe_magmom
Cu  Cu0  1  0.74999737  0.67503845  0.67504149  1  1.041033  -0.56843  0.776882  0.68528  -0.766164  2.28272  -0.567
Cu  Cu1  1  0.24999983  0.32496156  0.32495994  1  1.040814  0.568419  0.776935  0.685293  0.766158  2.283128  0.567
Si  Si2  1  0.24999711  0.67520528  0.67520357  1  3.220015  0.000199  0.244216  1.727275  0.000178  3.9451  0.0
Si  Si3  1  0.75000257  0.32479424  0.32479832  1  3.220008  -0.000199  0.244004  1.726691  -0.000178  3.946375  0.0
H  H4  1  0.00844192  0.77903031  0.67751723  1  0.18706  -0.002262  0.121254  0.111111  -0.00111  1.042256  -0.002
H  H5  1  0.50843362  0.22098874  0.32248908  1  0.187664  0.002261  0.121169  0.110925  0.001111  1.04263  0.002
H  H6  1  0.99156500  0.32248044  0.22098572  1  0.187703  0.002261  0.121182  0.110936  0.001111  1.042648  0.002
H  H7  1  0.49155385  0.67752096  0.77902867  1  0.187701  -0.002261  0.12123  0.111079  -0.00111  1.042264  -0.002
H  H8  1  0.99156770  0.22098770  0.32249313  1  0.189392  0.002261  0.121175  0.110916  0.001111  1.042637  0.002
H  H9  1  0.49155861  0.77902878  0.67751495  1  0.187999  -0.00226  0.121264  0.111143  -0.00111  1.042296  -0.002
H  H10  1  0.00843840  0.67751567  0.77902857  1  0.187485  -0.002262  0.121241  0.111084  -0.001111  1.042305  -0.002
H  H11  1  0.50843217  0.32248488  0.22098528  1  0.187722  0.002261  0.121162  0.110863  0.001111  1.042606  0.002
H  H12  1  0.01903871  0.89966268  0.67598323  1  0.100799  -0.001283  0.116205  0.126282  -0.000692  0.978099  -0.001
H  H13  1  0.51904969  0.10036030  0.32401504  1  0.101472  0.001286  0.116175  0.126424  0.000692  0.978069  0.001
H  H14  1  0.98095356  0.32401711  0.10035823  1  0.101565  0.001282  0.116181  0.126397  0.000692  0.978049  0.001
H  H15  1  0.48094250  0.67599252  0.89966012  1  0.100588  -0.001286  0.116232  0.126379  -0.000692  0.978243  -0.001
H  H16  1  0.98095725  0.10035679  0.32401752  1  0.101578  0.001282  0.116193  0.126433  0.000692  0.978037  0.001
H  H17  1  0.48095620  0.89966112  0.67598049  1  0.100217  -0.001286  0.116204  0.126312  -0.000692  0.978104  -0.001
H  H18  1  0.01903494  0.67598581  0.89966038  1  0.100916  -0.001283  0.116244  0.126334  -0.000692  0.978179  -0.001
H  H19  1  0.51904724  0.32401916  0.10035712  1  0.101152  0.001286  0.116186  0.126411  0.000692  0.977975  0.001
H  H20  1  0.01802883  0.11451499  0.66871087  1  0.086403  -7e-06  0.109569  0.112422  -8e-06  0.983312  0.0
H  H21  1  0.51803095  0.88548172  0.33128037  1  0.086823  6e-06  0.109537  0.112363  8e-06  0.983344  0.0
H  H22  1  0.98196464  0.33128558  0.88547745  1  0.086412  7e-06  0.109568  0.112388  8e-06  0.983319  0.0
H  H23  1  0.48197369  0.66871140  0.11452745  1  0.086545  -6e-06  0.109601  0.112479  -8e-06  0.983306  0.0
H  H24  1  0.98196712  0.88548064  0.33128493  1  0.086413  7e-06  0.109565  0.112434  8e-06  0.983325  0.0
H  H25  1  0.48197494  0.11452365  0.66870879  1  0.086557  -6e-06  0.109598  0.112449  -8e-06  0.983306  0.0
H  H26  1  0.01802882  0.66871102  0.11452522  1  0.08609  -7e-06  0.109599  0.112464  -8e-06  0.983302  0.0
H  H27  1  0.51803096  0.33128228  0.88547309  1  0.086889  6e-06  0.1096  0.112434  8e-06  0.983356  0.0
H  H28  1  0.01818692  0.23500343  0.66433018  1  0.094617  -2e-06  0.102506  0.10536  -2e-06  1.024338  0.0
H  H29  1  0.51816603  0.76499621  0.33565785  1  0.094653  2e-06  0.102451  0.105304  2e-06  1.024244  0.0
H  H30  1  0.98182798  0.33565778  0.76499232  1  0.094534  2e-06  0.102434  0.105273  2e-06  1.024222  0.0
H  H31  1  0.48183333  0.66433094  0.23501399  1  0.094639  -2e-06  0.102513  0.105355  -2e-06  1.0243  0.0
H  H32  1  0.98182766  0.76499318  0.33565938  1  0.094531  2e-06  0.102442  0.105276  2e-06  1.024233  0.0
H  H33  1  0.48185104  0.23501208  0.66432712  1  0.094847  -2e-06  0.102483  0.10527  -2e-06  1.024404  0.0
H  H34  1  0.01816672  0.66433007  0.23501172  1  0.094708  -2e-06  0.10252  0.105392  -2e-06  1.024308  0.0
H  H35  1  0.51816635  0.33565788  0.76498769  1  0.094645  2e-06  0.102443  0.10529  2e-06  1.024165  0.0
H  H36  1  0.01921324  0.44991614  0.66615278  1  0.104586  -0.001142  0.111261  0.122889  -0.000605  1.001533  -0.001
H  H37  1  0.51922050  0.55008593  0.33384026  1  0.104556  0.001142  0.111219  0.122746  0.000605  1.001595  0.001
H  H38  1  0.98078532  0.33383623  0.55008469  1  0.104617  0.001142  0.111263  0.122795  0.000605  1.001594  0.001
H  H39  1  0.48078651  0.66615589  0.44991893  1  0.104565  -0.001142  0.11131  0.122876  -0.000605  1.001547  -0.001
H  H40  1  0.98079140  0.55008728  0.33383819  1  0.104603  0.001142  0.111235  0.122763  0.000605  1.001645  0.001
H  H41  1  0.48078663  0.44991360  0.66614755  1  0.104588  -0.001142  0.111238  0.12283  -0.000605  1.00153  -0.001
H  H42  1  0.01921188  0.66615453  0.44991760  1  0.104602  -0.001142  0.111295  0.122875  -0.000605  1.001566  -0.001
H  H43  1  0.51921193  0.33383974  0.55008513  1  0.104628  0.001142  0.111259  0.122814  0.000605  1.001609  0.001
H  H44  1  0.00848407  0.57107817  0.67112950  1  0.198834  -0.002236  0.121954  0.112143  -0.001106  1.040182  -0.002
H  H45  1  0.50847842  0.42892386  0.32886357  1  0.198845  0.002235  0.121935  0.112111  0.001106  1.040176  0.002
H  H46  1  0.99152330  0.32885888  0.42892264  1  0.198864  0.002236  0.121913  0.112074  0.001106  1.040162  0.002
H  H47  1  0.49150983  0.67112549  0.57108044  1  0.198845  -0.002236  0.12199  0.112217  -0.001106  1.040135  -0.002
H  H48  1  0.99152430  0.42892477  0.32886193  1  0.198889  0.002235  0.121951  0.112133  0.001106  1.040161  0.002
H  H49  1  0.49150759  0.57107567  0.67112812  1  0.198817  -0.002236  0.121936  0.11217  -0.001107  1.040059  -0.002
H  H50  1  0.00848880  0.67112702  0.57107933  1  0.198877  -0.002236  0.121929  0.112127  -0.001107  1.040088  -0.002
H  H51  1  0.50847991  0.32886186  0.42892308  1  0.198876  0.002236  0.121941  0.11213  0.001106  1.04019  0.002
C  C52  1  0.89464794  0.80763557  0.67731136  1  0.425761  0.000736  0.05271  0.097045  -0.000192  3.907479  0.001
C  C53  1  0.39464957  0.19238103  0.32269410  1  0.423978  -0.000729  0.052878  0.097238  0.000192  3.907487  -0.001
C  C54  1  0.10535218  0.32268901  0.19237855  1  0.424002  -0.00073  0.052879  0.097267  0.000191  3.907469  -0.001
C  C55  1  0.60534719  0.67731774  0.80763492  1  0.424956  0.000734  0.052731  0.097189  -0.000193  3.907432  0.001
C  C56  1  0.10535423  0.19238049  0.32269645  1  0.422461  -0.00073  0.05298  0.09732  0.000191  3.907451  -0.001
C  C57  1  0.60534887  0.80763454  0.67731028  1  0.424732  0.000733  0.052685  0.097051  -0.000193  3.907422  0.001
C  C58  1  0.89464005  0.67731391  0.80763520  1  0.42544  0.000736  0.052735  0.097094  -0.000192  3.907458  0.001
C  C59  1  0.39464876  0.32269102  0.19237776  1  0.424013  -0.00073  0.05295  0.097456  0.000191  3.907207  -0.001
C  C60  1  0.89956939  0.87492327  0.67645331  1  0.002398  -0.006596  -0.073396  -0.164335  -0.004597  3.901189  -0.005
C  C61  1  0.39957055  0.12509190  0.32354283  1  0.002254  0.006598  -0.07335  -0.164617  0.004599  3.900861  0.005
C  C62  1  0.10042976  0.32354460  0.12508914  1  0.002352  0.006599  -0.073425  -0.164496  0.004599  3.900702  0.005
C  C63  1  0.60041847  0.67646214  0.87492095  1  0.00267  -0.006596  -0.07353  -0.164663  -0.004597  3.901338  -0.005
C  C64  1  0.10043153  0.12508842  0.32354451  1  0.00246  0.0066  -0.073459  -0.164676  0.0046  3.900736  0.005
C  C65  1  0.60042665  0.87492076  0.67645311  1  0.002606  -0.006595  -0.073407  -0.164421  -0.004596  3.901123  -0.005
C  C66  1  0.89955749  0.67645735  0.87492456  1  0.002076  -0.006598  -0.073473  -0.164428  -0.004598  3.901036  -0.005
C  C67  1  0.39956630  0.32354613  0.12508781  1  0.00242  0.006599  -0.07343  -0.164566  0.004599  3.90068  0.005
C  C68  1  0.75000034  0.91038908  0.67577278  1  0.055137  0.003524  0.016969  0.169968  0.002402  4.123502  0.002
C  C69  1  0.25000058  0.08962213  0.32421966  1  0.054788  -0.003525  0.017057  0.170447  -0.002402  4.123532  -0.002
C  C70  1  0.24999963  0.32422546  0.08961949  1  0.054996  -0.003525  0.016995  0.170116  -0.002402  4.123596  -0.002
C  C71  1  0.74998763  0.67578476  0.91039232  1  0.055067  0.003524  0.01701  0.170073  0.002402  4.123294  0.002
C  C72  1  0.74999749  0.97890820  0.67403315  1  0.106697  -0.000867  -0.037794  -0.105106  -0.00055  4.100059  -0.001
C  C73  1  0.25000219  0.02110154  0.32595434  1  0.105506  0.000866  -0.038059  -0.10577  0.000549  4.100554  0.001
C  C74  1  0.25000032  0.32595799  0.02110071  1  0.105644  0.000867  -0.037946  -0.105385  0.00055  4.099985  0.001
C  C75  1  0.74998942  0.67404396  0.97891153  1  0.106803  -0.000868  -0.037962  -0.10537  -0.00055  4.099911  -0.001
C  C76  1  0.74999432  0.03802493  0.67184854  1  -0.484581  0.00203  -0.036363  -0.096245  0.001324  4.110765  0.001
C  C77  1  0.25000040  0.96198579  0.32814485  1  -0.483135  -0.002029  -0.0361  -0.095636  -0.001324  4.110748  -0.001
C  C78  1  0.25000110  0.32813585  0.96197979  1  -0.483151  -0.002031  -0.036242  -0.096047  -0.001325  4.110409  -0.001
C  C79  1  0.74999609  0.67185345  0.03803018  1  -0.484594  0.00203  -0.036279  -0.096085  0.001324  4.110579  0.001
C  C80  1  0.75000018  0.10641321  0.66914978  1  0.179569  0.000209  0.003727  0.137688  0.000148  4.109145  0.0
C  C81  1  0.24999702  0.89359653  0.33084354  1  0.178839  -0.00021  0.003624  0.137507  -0.000149  4.109193  0.0
C  C82  1  0.24999684  0.33083654  0.89359071  1  0.179189  -0.00021  0.003711  0.137636  -0.000149  4.10938  0.0
C  C83  1  0.74999912  0.66915033  0.10641763  1  0.180098  0.000208  0.003863  0.13777  0.000148  4.108946  0.0
C  C84  1  0.90122359  0.14119637  0.66776671  1  -0.023676  0.000329  -0.076798  -0.113541  0.000219  3.946709  0.0
C  C85  1  0.40120835  0.85880616  0.33222569  1  -0.023338  -0.000328  -0.076758  -0.113612  -0.000219  3.946693  0.0
C  C86  1  0.09879038  0.33222341  0.85880280  1  -0.023658  -0.000328  -0.076835  -0.113649  -0.000219  3.946756  0.0
C  C87  1  0.59877953  0.66776727  0.14120383  1  -0.02357  0.00033  -0.076765  -0.113564  0.00022  3.946703  0.0
C  C88  1  0.09878851  0.85880705  0.33222912  1  -0.023299  -0.000328  -0.076755  -0.113632  -0.000219  3.946543  0.0
C  C89  1  0.59878512  0.14120018  0.66776547  1  -0.023346  0.000329  -0.07678  -0.113559  0.000219  3.946736  0.0
C  C90  1  0.90122172  0.66776638  0.14120234  1  -0.023572  0.00033  -0.076794  -0.113527  0.00022  3.946716  0.0
C  C91  1  0.40120897  0.33222155  0.85880125  1  -0.023966  -0.000328  -0.07686  -0.113702  -0.000219  3.946876  0.0
C  C92  1  0.90145801  0.20824893  0.66535092  1  -0.111662  0.000317  -0.078904  -0.114851  0.000213  3.951104  0.0
C  C93  1  0.40143357  0.79175214  0.33463507  1  -0.112148  -0.000317  -0.079034  -0.114837  -0.000212  3.950787  0.0
C  C94  1  0.09856622  0.33463193  0.79174747  1  -0.111975  -0.000317  -0.078964  -0.114751  -0.000212  3.950689  0.0
C  C95  1  0.59855772  0.66535194  0.20825678  1  -0.111733  0.000317  -0.079119  -0.115094  0.000212  3.950941  0.0
C  C96  1  0.09856279  0.79175108  0.33463643  1  -0.112163  -0.000317  -0.079029  -0.114836  -0.000212  3.950773  0.0
C  C97  1  0.59856984  0.20825323  0.66534923  1  -0.1114  0.000317  -0.079031  -0.114844  0.000213  3.950923  0.0
C  C98  1  0.90144340  0.66535154  0.20825484  1  -0.111765  0.000317  -0.07907  -0.115128  0.000212  3.951108  0.0
C  C99  1  0.40143326  0.33463298  0.79174805  1  -0.111989  -0.000316  -0.078944  -0.114721  -0.000212  3.950644  0.0
C  C100  1  0.75001934  0.24289315  0.66433219  1  0.199033  0.000237  -0.000472  0.127248  0.000168  4.115989  0.0
C  C101  1  0.24999649  0.75710735  0.33565276  1  0.199634  -0.000238  -0.000316  0.127501  -0.000169  4.115772  0.0
C  C102  1  0.24999574  0.33564660  0.75710443  1  0.199787  -0.000238  -0.000355  0.127509  -0.000169  4.115706  0.0
C  C103  1  0.75000145  0.66433638  0.24289736  1  0.199471  0.000237  -0.000369  0.127594  0.000168  4.11556  0.0
C  C104  1  0.75001897  0.31144545  0.66332057  1  -0.293174  0.002023  -0.032302  -0.099807  0.001333  4.113535  0.001
C  C105  1  0.24999810  0.68855652  0.33665672  1  -0.293176  -0.002023  -0.032356  -0.100139  -0.001333  4.113707  -0.001
C  C106  1  0.24999518  0.33664641  0.68855471  1  -0.293116  -0.002023  -0.032394  -0.100378  -0.001334  4.113932  -0.001
C  C107  1  0.75000201  0.66332781  0.31144797  1  -0.293237  0.002021  -0.032244  -0.09972  0.001332  4.113523  0.001
C  C108  1  0.75000605  0.37079679  0.66391779  1  -0.116602  -0.000665  -0.032141  -0.104652  -0.000429  4.095226  -0.001
C  C109  1  0.25000481  0.62920323  0.33606422  1  -0.116477  0.000665  -0.032025  -0.104295  0.000429  4.095375  0.001
C  C110  1  0.24999700  0.33605409  0.62919962  1  -0.116566  0.000665  -0.032125  -0.104402  0.000429  4.095159  0.001
C  C111  1  0.75000144  0.66392451  0.37079800  1  -0.116571  -0.000665  -0.032289  -0.104981  -0.000429  4.095162  -0.001
C  C112  1  0.74999448  0.43953383  0.66585894  1  0.047504  0.003513  0.014135  0.162633  0.002395  4.128813  0.002
C  C113  1  0.25000644  0.56046814  0.33412563  1  0.047415  -0.003512  0.01416  0.162426  -0.002394  4.128765  -0.002
C  C114  1  0.25000013  0.33412550  0.56046363  1  0.047291  -0.003512  0.014278  0.162891  -0.002394  4.128433  -0.002
C  C115  1  0.75000204  0.66585894  0.43953825  1  0.047617  0.003513  0.0142  0.162831  0.002395  4.128453  0.002
C  C116  1  0.89988244  0.47489255  0.66718449  1  0.023918  -0.006543  -0.07351  -0.160595  -0.004575  3.890917  -0.005
C  C117  1  0.39988981  0.52511192  0.33280853  1  0.023851  0.006542  -0.073336  -0.160186  0.004574  3.890615  0.005
C  C118  1  0.10011417  0.33280846  0.52511120  1  0.023786  0.006543  -0.073345  -0.160319  0.004575  3.890723  0.005
C  C119  1  0.60011542  0.66718174  0.47489393  1  0.023913  -0.006543  -0.073469  -0.160439  -0.004575  3.890898  -0.005
C  C120  1  0.10011848  0.52511135  0.33280749  1  0.023914  0.006542  -0.073358  -0.160234  0.004574  3.890679  0.005
C  C121  1  0.60011608  0.47488761  0.66718171  1  0.023836  -0.006544  -0.073415  -0.160394  -0.004576  3.89078  -0.005
C  C122  1  0.89988178  0.66718133  0.47489200  1  0.023834  -0.006544  -0.073476  -0.160483  -0.004575  3.890899  -0.005
C  C123  1  0.39988302  0.33281049  0.52511039  1  0.023834  0.006543  -0.073404  -0.160436  0.004575  3.890815  0.005
C  C124  1  0.89475273  0.54236705  0.66991781  1  0.406142  0.000769  0.054601  0.099093  -0.000146  3.899905  0.001
C  C125  1  0.39475347  0.45763546  0.33007460  1  0.406032  -0.000771  0.054457  0.098871  0.000145  3.899861  -0.001
C  C126  1  0.10525154  0.33007736  0.45763560  1  0.406239  -0.00077  0.054492  0.098957  0.000146  3.899897  -0.001
C  C127  1  0.60524782  0.66991140  0.54236942  1  0.40563  0.000771  0.05452  0.098858  -0.000146  3.899957  0.001
C  C128  1  0.10525192  0.45763589  0.33007410  1  0.406136  -0.00077  0.054482  0.098924  0.000145  3.899738  -0.001
C  C129  1  0.60524869  0.54236602  0.66991624  1  0.406215  0.000772  0.05457  0.098931  -0.000145  3.899805  0.001
C  C130  1  0.89474938  0.66991097  0.54236896  1  0.405693  0.000772  0.054598  0.098979  -0.000146  3.899705  0.001
C  C131  1  0.39474813  0.33007985  0.45763435  1  0.406227  -0.000771  0.054502  0.098988  0.000145  3.899926  -0.001
N  N132  1  0.74999984  0.77449367  0.67755390  1  -1.14466  -0.095657  -0.332674  -0.216352  -0.06672  3.565569  -0.084
N  N133  1  0.24999859  0.22551801  0.32245265  1  -1.143364  0.095674  -0.332911  -0.216283  0.066737  3.566124  0.084
N  N134  1  0.24999952  0.32244592  0.22551599  1  -1.143312  0.095668  -0.332831  -0.216433  0.066734  3.565922  0.084
N  N135  1  0.74999891  0.67755749  0.77449441  1  -1.144839  -0.095656  -0.332647  -0.216331  -0.06672  3.56572  -0.084
N  N136  1  0.74999739  0.57551040  0.67136299  1  -1.148657  -0.095218  -0.332136  -0.21507  -0.066424  3.564214  -0.084
N  N137  1  0.25000229  0.42449156  0.32863128  1  -1.148508  0.095195  -0.332131  -0.215028  0.066409  3.563889  0.084
N  N138  1  0.24999890  0.32863707  0.42449115  1  -1.148767  0.095201  -0.332136  -0.215097  0.066413  3.564111  0.084
N  N139  1  0.75000078  0.67135564  0.57551272  1  -1.148074  -0.095216  -0.332164  -0.21498  -0.066421  3.563913  -0.084
F  F140  1  0.46550834  0.67519402  0.67519377  1  -0.83234  0.001716  -0.202958  -0.532968  0.001109  1.341012  0.001
F  F141  1  0.96551752  0.32480729  0.32480903  1  -0.832423  -0.001716  -0.202899  -0.532823  -0.001109  1.341161  -0.001
F  F142  1  0.53448762  0.32480648  0.32480769  1  -0.832416  -0.001716  -0.202901  -0.53282  -0.001109  1.341039  -0.001
F  F143  1  0.03448588  0.67519613  0.67519456  1  -0.832357  0.001715  -0.202949  -0.53294  0.001109  1.340984  0.001
F  F144  1  0.24999196  0.61449184  0.61449350  1  -0.851958  -0.000177  -0.255084  -0.547875  -0.000156  1.057799  0.0
F  F145  1  0.74999902  0.38550282  0.38550952  1  -0.851925  0.000177  -0.255053  -0.5478  0.000156  1.057927  0.0
F  F146  1  0.24999335  0.61821196  0.73212544  1  -0.837287  -0.000172  -0.256922  -0.55039  -0.000152  1.057641  0.0
F  F147  1  0.75000757  0.38178659  0.26787686  1  -0.837248  0.000172  -0.256905  -0.550281  0.000152  1.057779  0.0
F  F148  1  0.75000129  0.26787045  0.38178927  1  -0.837363  0.000172  -0.256851  -0.550297  0.000153  1.057822  0.0
F  F149  1  0.25000087  0.73212323  0.61820738  1  -0.837333  -0.000172  -0.256943  -0.550423  -0.000152  1.057587  0.0
F  F150  1  0.25000225  0.73591144  0.73590490  1  -0.851596  -0.000188  -0.257736  -0.550536  -0.000162  1.055651  0.0
F  F151  1  0.75000239  0.26409101  0.26409571  1  -0.851575  0.000188  -0.257707  -0.550427  0.000162  1.055788  0.0
