# generated using pymatgen
data_Zn3H28C24(N7O2)2
_symmetry_space_group_name_H-M   'P 1'
_cell_length_a   10.67938160
_cell_length_b   11.70264801
_cell_length_c   12.18842285
_cell_angle_alpha   103.76773647
_cell_angle_beta   90.00022629
_cell_angle_gamma   90.00005433
_symmetry_Int_Tables_number   1
_chemical_formula_structural   Zn3H28C24(N7O2)2
_chemical_formula_sum   'Zn6 H56 C48 N28 O8'
_cell_volume   1479.50705373
_cell_formula_units_Z   2
loop_
 _symmetry_equiv_pos_site_id
 _symmetry_equiv_pos_as_xyz
  1  'x, y, z'
loop_
 _atom_site_type_symbol
 _atom_site_label
 _atom_site_symmetry_multiplicity
 _atom_site_fract_x
 _atom_site_fract_y
 _atom_site_fract_z
 _atom_site_occupancy
 _atom_site_hle17_bader_spin_density
 _atom_site_hle17_ddec_charge
 _atom_site_hle17_ddec_spin_density
 _atom_site_hle17_ddec_sum_bond_order
 _atom_site_hle17_magmom
 _atom_site_hse06_10hf_bader_spin_density
 _atom_site_hse06_10hf_ddec_charge
 _atom_site_hse06_10hf_ddec_spin_density
 _atom_site_hse06_10hf_ddec_sum_bond_order
 _atom_site_hse06_10hf_magmom
 _atom_site_hse06_bader_spin_density
 _atom_site_hse06_ddec_charge
 _atom_site_hse06_ddec_spin_density
 _atom_site_hse06_ddec_sum_bond_order
 _atom_site_hse06_magmom
 _atom_site_pbe_bader_spin_density
 _atom_site_pbe_cm5_charge
 _atom_site_pbe_ddec_charge
 _atom_site_pbe_ddec_spin_density
 _atom_site_pbe_ddec_sum_bond_order
 _atom_site_pbe_magmom
Zn  Zn0  1  0.38663260  0.90737096  0.50259396  1  0  1.018545  0  1.924213  0  0  0.848211  0  2.369332  0  0  0.890922  0  2.321734  0  0  0.705274  0.819503  0  2.401307  0
Zn  Zn1  1  0.38663423  0.09262975  0.99740554  1  0  1.018529  0  1.924317  0  0  0.848219  0  2.369466  0  0  0.890934  0  2.321863  0  0  0.705265  0.819513  0  2.401437  0
Zn  Zn2  1  0.61336440  0.09262738  0.49740304  1  0  1.018495  0  1.924309  0  0  0.848158  0  2.369441  0  0  0.890876  0  2.321841  0  0  0.705262  0.819452  0  2.401414  0
Zn  Zn3  1  0.61336370  0.90737212  0.00259555  1  0  1.018454  0  1.924297  0  0  0.848159  0  2.369419  0  0  0.890874  0  2.321815  0  0  0.705264  0.819451  0  2.401388  0
Zn  Zn4  1  0.55787813  0.99999929  0.74999938  1  0  1.025923  0  1.974054  0  0  0.859175  0  2.47101  0  0  0.893473  0  2.426915  0  0  0.747218  0.835962  0  2.500705  0
Zn  Zn5  1  0.44211979  0.99999993  0.24999947  1  0  1.025906  0  1.974057  0  0  0.859145  0  2.471019  0  0  0.893444  0  2.426928  0  0  0.747218  0.835922  0  2.500722  0
H  H6  1  0.48308279  0.30276840  0.57627091  1  0  0.1014  0  0.99635  0  0  0.109946  0  1.06527  0  0  0.113055  0  1.064051  0  0  0.101514  0.107765  0  1.066131  0
H  H7  1  0.48308190  0.69722896  0.92372653  1  0  0.101411  0  0.996329  0  0  0.109962  0  1.065235  0  0  0.113059  0  1.064043  0  0  0.101518  0.107786  0  1.066077  0
H  H8  1  0.51691888  0.69722730  0.42372878  1  0  0.101378  0  0.996322  0  0  0.109923  0  1.065253  0  0  0.11303  0  1.064035  0  0  0.101536  0.107747  0  1.066095  0
H  H9  1  0.51691790  0.30277202  0.07627354  1  0  0.101414  0  0.996319  0  0  0.109964  0  1.065231  0  0  0.113067  0  1.064022  0  0  0.101523  0.107787  0  1.066073  0
H  H10  1  0.33845945  0.47047929  0.62879571  1  0  0.089044  0  0.945675  0  0  0.100363  0  1.006352  0  0  0.102788  0  1.004761  0  0  0.102555  0.098531  0  1.007498  0
H  H11  1  0.33845722  0.52952133  0.87120196  1  0  0.08906  0  0.945724  0  0  0.10039  0  1.006379  0  0  0.102815  0  1.004786  0  0  0.102573  0.098558  0  1.007527  0
H  H12  1  0.66154316  0.52951817  0.37120191  1  0  0.089046  0  0.94566  0  0  0.100377  0  1.006329  0  0  0.102802  0  1.004737  0  0  0.102561  0.098548  0  1.007465  0
H  H13  1  0.66154445  0.47047966  0.12879646  1  0  0.089062  0  0.945698  0  0  0.100391  0  1.006364  0  0  0.102817  0  1.004771  0  0  0.102576  0.09856  0  1.00751  0
H  H14  1  0.11401771  0.43616810  0.67627270  1  0  0.076982  0  0.995665  0  0  0.089146  0  1.058636  0  0  0.091664  0  1.058246  0  0  0.093024  0.087206  0  1.05922  0
H  H15  1  0.11401436  0.56383387  0.82372696  1  0  0.076976  0  0.995663  0  0  0.089124  0  1.058667  0  0  0.091642  0  1.058276  0  0  0.093015  0.087174  0  1.059263  0
H  H16  1  0.88598584  0.56383289  0.32372655  1  0  0.076973  0  0.995655  0  0  0.089131  0  1.058636  0  0  0.09165  0  1.058246  0  0  0.093016  0.087177  0  1.059237  0
H  H17  1  0.88598731  0.43616535  0.17627188  1  0  0.076966  0  0.995664  0  0  0.089122  0  1.058662  0  0  0.091638  0  1.058275  0  0  0.093015  0.087165  0  1.059265  0
H  H18  1  0.04391148  0.23422217  0.67364539  1  0  0.081074  0  1.008267  0  0  0.08742  0  1.082781  0  0  0.090119  0  1.080096  0  0  0.093859  0.086142  0  1.083509  0
H  H19  1  0.04391116  0.76577967  0.82635564  1  0  0.08108  0  1.008288  0  0  0.08743  0  1.082776  0  0  0.09013  0  1.080092  0  0  0.093859  0.086156  0  1.083506  0
H  H20  1  0.95608926  0.76577970  0.32635652  1  0  0.081092  0  1.008264  0  0  0.087463  0  1.082744  0  0  0.090138  0  1.080083  0  0  0.09386  0.08619  0  1.08347  0
H  H21  1  0.95608583  0.23422044  0.17364505  1  0  0.081084  0  1.008333  0  0  0.087428  0  1.08283  0  0  0.090129  0  1.080143  0  0  0.093868  0.086154  0  1.08356  0
H  H22  1  0.06484698  0.04491258  0.64295522  1  0  0.056562  0  0.935482  0  0  0.067406  0  1.005699  0  0  0.068914  0  1.002586  0  0  0.10986  0.065945  0  1.008405  0
H  H23  1  0.06484793  0.95508842  0.85704077  1  0  0.056499  0  0.935548  0  0  0.067363  0  1.005716  0  0  0.068857  0  1.002622  0  0  0.10987  0.065904  0  1.008422  0
H  H24  1  0.93515375  0.95508665  0.35704691  1  0  0.056572  0  0.935487  0  0  0.067417  0  1.005705  0  0  0.068925  0  1.002593  0  0  0.109852  0.06596  0  1.008411  0
H  H25  1  0.93515093  0.04491257  0.14295929  1  0  0.056502  0  0.935566  0  0  0.067385  0  1.005722  0  0  0.068866  0  1.002638  0  0  0.109874  0.065927  0  1.008429  0
H  H26  1  0.06118986  0.84706610  0.63386845  1  0  0.076191  0  0.942475  0  0  0.091021  0  1.011363  0  0  0.090919  0  1.011487  0  0  0.105184  0.091068  0  1.011192  0
H  H27  1  0.06119096  0.15293489  0.86612999  1  0  0.076184  0  0.94245  0  0  0.091012  0  1.011351  0  0  0.090908  0  1.011474  0  0  0.10518  0.091058  0  1.01118  0
H  H28  1  0.93880994  0.15293489  0.36613244  1  0  0.07617  0  0.94243  0  0  0.091009  0  1.011338  0  0  0.090905  0  1.011458  0  0  0.105195  0.091056  0  1.011169  0
H  H29  1  0.93880978  0.84706609  0.13386926  1  0  0.076199  0  0.94244  0  0  0.091035  0  1.011313  0  0  0.090934  0  1.011436  0  0  0.105186  0.091085  0  1.011145  0
H  H30  1  0.07395710  0.82201247  0.48459219  1  0  0.071767  0  0.937477  0  0  0.088778  0  1.003308  0  0  0.087863  0  1.004936  0  0  0.105212  0.089399  0  1.001997  0
H  H31  1  0.07396040  0.17798780  0.01540635  1  0  0.071757  0  0.937448  0  0  0.088765  0  1.003292  0  0  0.087847  0  1.00492  0  0  0.105211  0.089386  0  1.001982  0
H  H32  1  0.92604270  0.17798763  0.51540850  1  0  0.071746  0  0.937382  0  0  0.088788  0  1.003208  0  0  0.087869  0  1.004836  0  0  0.105228  0.089407  0  1.001898  0
H  H33  1  0.92604034  0.82201495  0.98459330  1  0  0.07177  0  0.937463  0  0  0.088747  0  1.003325  0  0  0.087831  0  1.004957  0  0  0.105212  0.089369  0  1.002013  0
H  H34  1  0.25158473  0.72750118  0.63867246  1  0  0.038792  0  0.938551  0  0  0.045863  0  1.005201  0  0  0.045647  0  1.007066  0  0  0.09976  0.046026  0  1.00397  0
H  H35  1  0.25158593  0.27250104  0.86132774  1  0  0.038794  0  0.938569  0  0  0.045859  0  1.005188  0  0  0.04566  0  1.007012  0  0  0.099761  0.046021  0  1.003957  0
H  H36  1  0.74841601  0.27249893  0.36132741  1  0  0.038804  0  0.938551  0  0  0.045862  0  1.005193  0  0  0.045647  0  1.007058  0  0  0.099757  0.046024  0  1.003966  0
H  H37  1  0.74841481  0.72750082  0.13867171  1  0  0.038803  0  0.938588  0  0  0.045854  0  1.005214  0  0  0.045639  0  1.007079  0  0  0.099757  0.046016  0  1.003988  0
H  H38  1  0.15021251  0.54832572  0.57113830  1  0  0.075961  0  0.976247  0  0  0.092526  0  1.04129  0  0  0.092929  0  1.042645  0  0  0.09182  0.092191  0  1.040432  0
H  H39  1  0.15021233  0.45167543  0.92886212  1  0  0.075952  0  0.976213  0  0  0.092524  0  1.041246  0  0  0.092931  0  1.0426  0  0  0.091814  0.092186  0  1.040395  0
H  H40  1  0.84978729  0.45167439  0.42886238  1  0  0.076011  0  0.976198  0  0  0.092558  0  1.041255  0  0  0.092963  0  1.042612  0  0  0.091842  0.092221  0  1.040402  0
H  H41  1  0.84978841  0.54832643  0.07113815  1  0  0.075945  0  0.976226  0  0  0.09254  0  1.041246  0  0  0.092946  0  1.042602  0  0  0.091821  0.092202  0  1.040393  0
H  H42  1  0.02605077  0.62848193  0.52847293  1  0  0.08662  0  0.935563  0  0  0.107573  0  0.991002  0  0  0.108042  0  0.992196  0  0  0.097114  0.107177  0  0.990175  0
H  H43  1  0.02605163  0.37151724  0.97152742  1  0  0.08656  0  0.935546  0  0  0.107503  0  0.990998  0  0  0.107955  0  0.992212  0  0  0.097085  0.107105  0  0.990168  0
H  H44  1  0.97394903  0.37151906  0.47152959  1  0  0.086591  0  0.935559  0  0  0.107539  0  0.991002  0  0  0.108006  0  0.992197  0  0  0.097103  0.107141  0  0.990174  0
H  H45  1  0.97394817  0.62848287  0.02847244  1  0  0.086584  0  0.935556  0  0  0.107539  0  0.991006  0  0  0.108007  0  0.992199  0  0  0.097098  0.107142  0  0.990179  0
H  H46  1  0.10886692  0.59779507  0.33857571  1  0  0.069471  0  0.950156  0  0  0.086504  0  1.015628  0  0  0.086918  0  1.016454  0  0  0.089888  0.086251  0  1.014787  0
H  H47  1  0.10887017  0.40220350  0.16142337  1  0  0.069437  0  0.950178  0  0  0.086494  0  1.015622  0  0  0.086923  0  1.016433  0  0  0.089887  0.086218  0  1.014807  0
H  H48  1  0.89113101  0.40220415  0.66142477  1  0  0.069497  0  0.950129  0  0  0.086524  0  1.015618  0  0  0.086939  0  1.016446  0  0  0.089901  0.086275  0  1.014771  0
H  H49  1  0.89112963  0.59779660  0.83857567  1  0  0.069513  0  0.95011  0  0  0.086544  0  1.015594  0  0  0.086958  0  1.016422  0  0  0.089906  0.086276  0  1.01477  0
H  H50  1  0.15833421  0.46385965  0.37072903  1  0  0.082003  0  0.93479  0  0  0.102461  0  0.991774  0  0  0.103201  0  0.992193  0  0  0.097652  0.10187  0  0.991579  0
H  H51  1  0.15833932  0.53614077  0.12927311  1  0  0.081927  0  0.934829  0  0  0.102396  0  0.991805  0  0  0.103133  0  0.99223  0  0  0.097627  0.101807  0  0.991609  0
H  H52  1  0.84166278  0.53614133  0.62927268  1  0  0.081919  0  0.934851  0  0  0.102398  0  0.991829  0  0  0.103136  0  0.99225  0  0  0.097625  0.101808  0  0.991631  0
H  H53  1  0.84166048  0.46386021  0.87072777  1  0  0.081918  0  0.934845  0  0  0.102404  0  0.991814  0  0  0.103144  0  0.992234  0  0  0.097622  0.101812  0  0.991619  0
H  H54  1  0.36591849  0.54382844  0.42643615  1  0  0.055943  0  0.927271  0  0  0.068155  0  0.995389  0  0  0.068984  0  0.994121  0  0  0.097151  0.067589  0  0.996141  0
H  H55  1  0.36592234  0.45617149  0.07356742  1  0  0.055904  0  0.92727  0  0  0.068138  0  0.995391  0  0  0.068968  0  0.994125  0  0  0.097151  0.067574  0  0.996148  0
H  H56  1  0.63407944  0.45617079  0.57356516  1  0  0.05591  0  0.927301  0  0  0.068148  0  0.9954  0  0  0.068977  0  0.994135  0  0  0.097152  0.067581  0  0.996156  0
H  H57  1  0.63407746  0.54382950  0.92643346  1  0  0.055908  0  0.927256  0  0  0.068143  0  0.995377  0  0  0.068973  0  0.994109  0  0  0.097144  0.067577  0  0.996133  0
H  H58  1  0.33385087  0.61231462  0.31266765  1  0  0.067595  0  0.930917  0  0  0.081966  0  0.99538  0  0  0.08184  0  0.995713  0  0  0.104909  0.081976  0  0.995243  0
H  H59  1  0.33385235  0.38768261  0.18733355  1  0  0.067532  0  0.930976  0  0  0.0819  0  0.995477  0  0  0.081783  0  0.9958  0  0  0.10489  0.081912  0  0.99534  0
H  H60  1  0.66614706  0.38768373  0.68733263  1  0  0.067582  0  0.930922  0  0  0.081945  0  0.995407  0  0  0.08183  0  0.995728  0  0  0.104902  0.081956  0  0.99527  0
H  H61  1  0.66614652  0.61231662  0.81266612  1  0  0.067537  0  0.930982  0  0  0.081907  0  0.995484  0  0  0.081789  0  0.995806  0  0  0.104899  0.081917  0  0.995349  0
C  C62  1  0.34868827  0.17121804  0.59221405  1  0  0.362641  0  3.807042  0  0  0.342483  0  4.060947  0  0  0.360417  0  4.076283  0  0  0.091255  0.330566  0  4.050114  0
C  C63  1  0.34868932  0.82878084  0.90778244  1  0  0.362636  0  3.807059  0  0  0.342511  0  4.060937  0  0  0.360449  0  4.076261  0  0  0.091266  0.330594  0  4.050106  0
C  C64  1  0.65131246  0.82878118  0.40778808  1  0  0.362636  0  3.807029  0  0  0.342462  0  4.060934  0  0  0.3604  0  4.076264  0  0  0.091231  0.330544  0  4.050104  0
C  C65  1  0.65131142  0.17121839  0.09221558  1  0  0.362676  0  3.807052  0  0  0.342524  0  4.060952  0  0  0.360465  0  4.076278  0  0  0.091267  0.330609  0  4.050117  0
C  C66  1  0.38624951  0.28794522  0.59665058  1  0  -0.214219  0  3.751597  0  0  -0.236625  0  4.008782  0  0  -0.246926  0  4.031314  0  0  -0.116873  -0.230022  0  3.993538  0
C  C67  1  0.38624948  0.71205548  0.90334728  1  0  -0.214283  0  3.751597  0  0  -0.236698  0  4.008788  0  0  -0.247002  0  4.031312  0  0  -0.116903  -0.23009  0  3.993552  0
C  C68  1  0.61375310  0.71205224  0.40335114  1  0  -0.214244  0  3.751573  0  0  -0.236678  0  4.008827  0  0  -0.246979  0  4.031356  0  0  -0.116943  -0.230072  0  3.993589  0
C  C69  1  0.61375126  0.28794462  0.09665095  1  0  -0.214261  0  3.75159  0  0  -0.236663  0  4.008772  0  0  -0.246967  0  4.0313  0  0  -0.116883  -0.23006  0  3.993537  0
C  C70  1  0.30422240  0.38188050  0.62591142  1  0  -0.01422  0  3.773001  0  0  -0.029211  0  4.023744  0  0  -0.025603  0  4.044192  0  0  -0.083607  -0.031086  0  4.009514  0
C  C71  1  0.30422121  0.61811742  0.87408551  1  0  -0.014182  0  3.773037  0  0  -0.029189  0  4.023794  0  0  -0.025576  0  4.044234  0  0  -0.083584  -0.031063  0  4.009563  0
C  C72  1  0.69577927  0.61811697  0.37408620  1  0  -0.014211  0  3.773022  0  0  -0.029213  0  4.023769  0  0  -0.025605  0  4.044218  0  0  -0.083589  -0.031085  0  4.009536  0
C  C73  1  0.69577953  0.38188180  0.12591169  1  0  -0.014202  0  3.773007  0  0  -0.029206  0  4.023749  0  0  -0.025596  0  4.044196  0  0  -0.083594  -0.031079  0  4.009517  0
C  C74  1  0.17944837  0.36318520  0.65333250  1  0  -0.129937  0  3.836403  0  0  -0.147103  0  4.094016  0  0  -0.15466  0  4.118307  0  0  -0.118114  -0.142237  0  4.077861  0
C  C75  1  0.17944614  0.63681513  0.84666456  1  0  -0.129918  0  3.836405  0  0  -0.147087  0  4.094008  0  0  -0.154643  0  4.118296  0  0  -0.118093  -0.142209  0  4.077856  0
C  C76  1  0.82055236  0.63681579  0.34666757  1  0  -0.129901  0  3.836437  0  0  -0.147057  0  4.094036  0  0  -0.154613  0  4.118319  0  0  -0.118087  -0.142178  0  4.077885  0
C  C77  1  0.82055460  0.36318322  0.15333245  1  0  -0.12984  0  3.836437  0  0  -0.147015  0  4.094032  0  0  -0.154569  0  4.118321  0  0  -0.118078  -0.142132  0  4.077879  0
C  C78  1  0.14003123  0.25014455  0.65087320  1  0  -0.087232  0  3.795522  0  0  -0.109142  0  4.046455  0  0  -0.10666  0  4.068344  0  0  -0.093606  -0.110866  0  4.031154  0
C  C79  1  0.14003006  0.74985571  0.84912452  1  0  -0.087186  0  3.795583  0  0  -0.109079  0  4.046499  0  0  -0.106595  0  4.068378  0  0  -0.093583  -0.110805  0  4.0312  0
C  C80  1  0.85996950  0.74985732  0.34912871  1  0  -0.087267  0  3.79558  0  0  -0.109189  0  4.046491  0  0  -0.106683  0  4.06839  0  0  -0.093619  -0.11091  0  4.031187  0
C  C81  1  0.85996880  0.25014352  0.15087432  1  0  -0.087322  0  3.795623  0  0  -0.109226  0  4.046577  0  0  -0.106741  0  4.068455  0  0  -0.093644  -0.110953  0  4.031276  0
C  C82  1  0.22094778  0.15205908  0.61943080  1  0  -0.1111  0  3.779092  0  0  -0.091397  0  4.01941  0  0  -0.104079  0  4.045467  0  0  -0.03801  -0.083045  0  4.001747  0
C  C83  1  0.22094685  0.84793957  0.88056684  1  0  -0.111087  0  3.779164  0  0  -0.091415  0  4.019468  0  0  -0.104092  0  4.045514  0  0  -0.038012  -0.083062  0  4.001816  0
C  C84  1  0.77905295  0.84794015  0.38057133  1  0  -0.111058  0  3.779104  0  0  -0.091347  0  4.019414  0  0  -0.104027  0  4.04546  0  0  -0.037977  -0.08299  0  4.001754  0
C  C85  1  0.77905107  0.15205966  0.11943119  1  0  -0.111059  0  3.779082  0  0  -0.091368  0  4.019395  0  0  -0.10405  0  4.045441  0  0  -0.037982  -0.083014  0  4.001733  0
C  C86  1  0.16278517  0.03943110  0.61306025  1  0  0.178582  0  3.688463  0  0  0.133535  0  3.94103  0  0  0.149833  0  3.952731  0  0  0.077866  0.122641  0  3.933251  0
C  C87  1  0.16278438  0.96056744  0.88693470  1  0  0.178593  0  3.688195  0  0  0.133609  0  3.940736  0  0  0.149909  0  3.952434  0  0  0.077839  0.122713  0  3.932962  0
C  C88  1  0.83721557  0.96056901  0.38694044  1  0  0.178534  0  3.688485  0  0  0.133487  0  3.941049  0  0  0.149786  0  3.952749  0  0  0.077858  0.122588  0  3.933271  0
C  C89  1  0.83721542  0.03943178  0.11306415  1  0  0.178573  0  3.688334  0  0  0.133553  0  3.940917  0  0  0.149864  0  3.952616  0  0  0.077819  0.122659  0  3.933139  0
C  C90  1  0.12841175  0.83413989  0.56336783  1  0  -0.043362  0  3.689946  0  0  -0.106898  0  3.950734  0  0  -0.103153  0  3.963972  0  0  -0.072135  -0.109132  0  3.94152  0
C  C91  1  0.12841318  0.16586034  0.93663066  1  0  -0.043317  0  3.689886  0  0  -0.106882  0  3.950702  0  0  -0.103135  0  3.963924  0  0  -0.072156  -0.109118  0  3.941483  0
C  C92  1  0.87158805  0.16586109  0.43663223  1  0  -0.043253  0  3.689722  0  0  -0.106873  0  3.950597  0  0  -0.10311  0  3.963809  0  0  -0.072169  -0.109106  0  3.941372  0
C  C93  1  0.87158662  0.83414064  0.06336940  1  0  -0.043371  0  3.689894  0  0  -0.106861  0  3.950649  0  0  -0.103123  0  3.963882  0  0  -0.072118  -0.109093  0  3.94143  0
C  C94  1  0.20449286  0.72300418  0.55748756  1  0  0.188787  0  3.555145  0  0  0.170439  0  3.804145  0  0  0.176298  0  3.81365  0  0  -0.002293  0.166358  0  3.797638  0
C  C95  1  0.20449537  0.27699707  0.94251225  1  0  0.188682  0  3.555362  0  0  0.170464  0  3.804125  0  0  0.176329  0  3.813631  0  0  -0.002265  0.166384  0  3.797617  0
C  C96  1  0.79550600  0.27699680  0.44251250  1  0  0.188727  0  3.555217  0  0  0.170447  0  3.804128  0  0  0.17631  0  3.813632  0  0  -0.002291  0.166366  0  3.79762  0
C  C97  1  0.79550443  0.72300391  0.05748781  1  0  0.188692  0  3.555306  0  0  0.170469  0  3.804125  0  0  0.176329  0  3.813634  0  0  -0.00227  0.166385  0  3.797621  0
C  C98  1  0.12685901  0.61020091  0.51963646  1  0  -0.16912  0  3.630841  0  0  -0.213207  0  3.882522  0  0  -0.215373  0  3.895551  0  0  -0.165993  -0.211534  0  3.873531  0
C  C99  1  0.12686181  0.38979933  0.98036367  1  0  -0.169061  0  3.630889  0  0  -0.213165  0  3.882505  0  0  -0.215329  0  3.895546  0  0  -0.166011  -0.211491  0  3.873505  0
C  C100  1  0.87313891  0.38980008  0.48036443  1  0  -0.169177  0  3.630888  0  0  -0.21324  0  3.88254  0  0  -0.215408  0  3.895571  0  0  -0.166049  -0.21157  0  3.873551  0
C  C101  1  0.87313893  0.61020078  0.01963620  1  0  -0.169082  0  3.630857  0  0  -0.21321  0  3.882524  0  0  -0.215381  0  3.895557  0  0  -0.166027  -0.211538  0  3.873531  0
C  C102  1  0.16596678  0.56011500  0.39618778  1  0  -0.14024  0  3.682031  0  0  -0.185913  0  3.948188  0  0  -0.187551  0  3.961502  0  0  -0.166955  -0.18467  0  3.938901  0
C  C103  1  0.16597074  0.43988455  0.10381255  1  0  -0.140065  0  3.681945  0  0  -0.185739  0  3.948093  0  0  -0.187384  0  3.9614  0  0  -0.166864  -0.184481  0  3.938814  0
C  C104  1  0.83403021  0.43988510  0.60381373  1  0  -0.140141  0  3.681993  0  0  -0.18584  0  3.94817  0  0  -0.187473  0  3.961477  0  0  -0.166919  -0.184598  0  3.938884  0
C  C105  1  0.83402906  0.56011555  0.89618814  1  0  -0.140175  0  3.681933  0  0  -0.185869  0  3.948153  0  0  -0.18751  0  3.961471  0  0  -0.166923  -0.184619  0  3.938873  0
C  C106  1  0.30071149  0.60178221  0.39495380  1  0  0.099005  0  3.579592  0  0  0.039106  0  3.85191  0  0  0.046484  0  3.857566  0  0  -0.072379  0.034187  0  3.847678  0
C  C107  1  0.30071542  0.39821583  0.10504829  1  0  0.099119  0  3.579467  0  0  0.039122  0  3.851943  0  0  0.046501  0  3.857593  0  0  -0.072413  0.034213  0  3.84768  0
C  C108  1  0.69928644  0.39821613  0.60504648  1  0  0.099031  0  3.5796  0  0  0.039097  0  3.851987  0  0  0.046483  0  3.857629  0  0  -0.072395  0.034185  0  3.847734  0
C  C109  1  0.69928345  0.60178427  0.89495239  1  0  0.099112  0  3.579385  0  0  0.039153  0  3.851863  0  0  0.046532  0  3.857514  0  0  -0.072385  0.034243  0  3.847604  0
N  N110  1  0.21001767  0.93613680  0.57277528  1  0  -0.349987  0  3.237867  0  0  -0.265602  0  3.516408  0  0  -0.286585  0  3.531382  0  0  -0.351898  -0.251669  0  3.506116  0
N  N111  1  0.21001989  0.06386622  0.92722332  1  0  -0.349946  0  3.237574  0  0  -0.26567  0  3.516222  0  0  -0.286636  0  3.531176  0  0  -0.351905  -0.251731  0  3.505933  0
N  N112  1  0.78998306  0.06386243  0.42722520  1  0  -0.350013  0  3.237811  0  0  -0.265621  0  3.516387  0  0  -0.286608  0  3.531354  0  0  -0.351901  -0.251678  0  3.506091  0
N  N113  1  0.78998084  0.93613476  0.07277593  1  0  -0.34989  0  3.237698  0  0  -0.265637  0  3.516365  0  0  -0.286596  0  3.531314  0  0  -0.351905  -0.251702  0  3.506074  0
N  N114  1  0.47227737  0.86496404  0.64713493  1  0  -0.630347  0  2.875548  0  0  -0.581883  0  3.226034  0  0  -0.606217  0  3.224735  0  0  -0.339386  -0.565685  0  3.227004  0
N  N115  1  0.47228027  0.13503595  0.85286471  1  0  -0.630137  0  2.875974  0  0  -0.581703  0  3.226476  0  0  -0.606036  0  3.225181  0  0  -0.339267  -0.565495  0  3.227407  0
N  N116  1  0.52772243  0.13503519  0.35286638  1  0  -0.630114  0  2.875738  0  0  -0.581687  0  3.226273  0  0  -0.606019  0  3.224977  0  0  -0.339275  -0.565497  0  3.227248  0
N  N117  1  0.52772141  0.86496328  0.14713331  1  0  -0.630239  0  2.875777  0  0  -0.581777  0  3.226249  0  0  -0.606113  0  3.224953  0  0  -0.339354  -0.56557  0  3.22719  0
N  N118  1  0.49631337  0.76468036  0.65211162  1  0  0.419946  0  4.182866  0  0  0.44622  0  4.469258  0  0  0.461431  0  4.497858  0  0  0.097113  0.435968  0  4.450387  0
N  N119  1  0.49631353  0.23531351  0.84788752  1  0  0.419936  0  4.182853  0  0  0.446228  0  4.469244  0  0  0.461441  0  4.497854  0  0  0.097067  0.435979  0  4.450375  0
N  N120  1  0.50368924  0.23531447  0.34788868  1  0  0.42003  0  4.18274  0  0  0.446321  0  4.469139  0  0  0.461534  0  4.497745  0  0  0.097164  0.436071  0  4.450255  0
N  N121  1  0.50368814  0.76468307  0.15211154  1  0  0.420042  0  4.182764  0  0  0.446323  0  4.469153  0  0  0.461537  0  4.497756  0  0  0.09718  0.436071  0  4.450286  0
N  N122  1  0.51582101  0.66811842  0.65484252  1  0  -0.32443  0  2.372304  0  0  -0.321486  0  2.592506  0  0  -0.326884  0  2.603568  0  0  -0.146383  -0.31838  0  2.585535  0
N  N123  1  0.51582313  0.33188428  0.84515706  1  0  -0.324629  0  2.371817  0  0  -0.32171  0  2.592034  0  0  -0.327117  0  2.603102  0  0  -0.146504  -0.318602  0  2.585061  0
N  N124  1  0.48418160  0.33188256  0.34515754  1  0  -0.324722  0  2.371999  0  0  -0.32178  0  2.592197  0  0  -0.327183  0  2.603259  0  0  -0.146585  -0.318684  0  2.585236  0
N  N125  1  0.48418041  0.66811758  0.15484320  1  0  -0.324626  0  2.371988  0  0  -0.321692  0  2.5922  0  0  -0.327089  0  2.603258  0  0  -0.146505  -0.318584  0  2.585229  0
N  N126  1  0.32455747  0.91671914  0.33759755  1  0  -0.618063  0  2.865786  0  0  -0.574658  0  3.204648  0  0  -0.597544  0  3.204864  0  0  -0.328223  -0.559412  0  3.204396  0
N  N127  1  0.32456227  0.08327895  0.16239971  1  0  -0.6184  0  2.865088  0  0  -0.574952  0  3.203944  0  0  -0.597861  0  3.204164  0  0  -0.328409  -0.559695  0  3.203686  0
N  N128  1  0.67543952  0.08327921  0.66240109  1  0  -0.618336  0  2.865169  0  0  -0.574906  0  3.204031  0  0  -0.597807  0  3.204248  0  0  -0.328375  -0.559652  0  3.203783  0
N  N129  1  0.67544315  0.91672027  0.83759749  1  0  -0.618075  0  2.865605  0  0  -0.574672  0  3.204469  0  0  -0.597555  0  3.204671  0  0  -0.328257  -0.559438  0  3.204235  0
N  N130  1  0.22761167  0.87338849  0.29594260  1  0  0.424308  0  4.19466  0  0  0.456496  0  4.474714  0  0  0.471701  0  4.502827  0  0  0.096527  0.446357  0  4.455969  0
N  N131  1  0.22759891  0.12661822  0.20406286  1  0  0.424268  0  4.195083  0  0  0.456416  0  4.475155  0  0  0.471622  0  4.503252  0  0  0.09657  0.446278  0  4.456415  0
N  N132  1  0.77240124  0.12661601  0.70406155  1  0  0.424206  0  4.19496  0  0  0.456367  0  4.475032  0  0  0.471572  0  4.503137  0  0  0.096501  0.446227  0  4.456296  0
N  N133  1  0.77238966  0.87338892  0.79594107  1  0  0.4243  0  4.194636  0  0  0.456476  0  4.474703  0  0  0.471681  0  4.502817  0  0  0.096508  0.446337  0  4.455957  0
N  N134  1  0.13419417  0.83124345  0.25716985  1  0  -0.368566  0  2.397173  0  0  -0.368147  0  2.618568  0  0  -0.373385  0  2.626734  0  0  -0.174468  -0.364336  0  2.612681  0
N  N135  1  0.13420503  0.16875341  0.24282647  1  0  -0.368097  0  2.398391  0  0  -0.367644  0  2.619761  0  0  -0.372876  0  2.627942  0  0  -0.174205  -0.363849  0  2.613875  0
N  N136  1  0.86580001  0.16875138  0.74282553  1  0  -0.368117  0  2.398103  0  0  -0.367672  0  2.619487  0  0  -0.372901  0  2.627662  0  0  -0.174191  -0.363868  0  2.613596  0
N  N137  1  0.86580507  0.83124405  0.75716787  1  0  -0.368515  0  2.397298  0  0  -0.368092  0  2.618688  0  0  -0.37333  0  2.62686  0  0  -0.174413  -0.364279  0  2.612796  0
O  O138  1  0.43135775  0.08455436  0.56543477  1  0  -0.651947  0  2.217833  0  0  -0.555162  0  2.493477  0  0  -0.585693  0  2.483532  0  0  -0.332356  -0.534312  0  2.499514  0
O  O139  1  0.43135807  0.91544555  0.93456388  1  0  -0.651955  0  2.217849  0  0  -0.555189  0  2.493501  0  0  -0.58573  0  2.483554  0  0  -0.332377  -0.534345  0  2.499533  0
O  O140  1  0.56864299  0.91544311  0.43456695  1  0  -0.651928  0  2.217859  0  0  -0.555099  0  2.493459  0  0  -0.585638  0  2.483521  0  0  -0.332309  -0.534248  0  2.499496  0
O  O141  1  0.56864173  0.08455455  0.06543516  1  0  -0.651992  0  2.217856  0  0  -0.555197  0  2.493493  0  0  -0.585741  0  2.483551  0  0  -0.332368  -0.534351  0  2.499524  0
O  O142  1  0.30075573  0.71774887  0.47143844  1  0  -0.381421  0  2.24973  0  0  -0.298792  0  2.501341  0  0  -0.316413  0  2.500916  0  0  -0.228494  -0.286345  0  2.501212  0
O  O143  1  0.30075826  0.28225181  0.02856016  1  0  -0.381477  0  2.249878  0  0  -0.298832  0  2.501432  0  0  -0.316466  0  2.501019  0  0  -0.22847  -0.286388  0  2.501307  0
O  O144  1  0.69924313  0.28225211  0.52856163  1  0  -0.38142  0  2.249823  0  0  -0.298788  0  2.501413  0  0  -0.316439  0  2.50102  0  0  -0.228473  -0.286341  0  2.501287  0
O  O145  1  0.69924248  0.71774829  0.97143807  1  0  -0.381403  0  2.249823  0  0  -0.29879  0  2.501416  0  0  -0.316418  0  2.500996  0  0  -0.228465  -0.286342  0  2.501287  0
