# generated using pymatgen
data_CdH16C12S(NO2)4
_symmetry_space_group_name_H-M   'P 1'
_cell_length_a   6.74833784
_cell_length_b   10.11473453
_cell_length_c   12.65200771
_cell_angle_alpha   90.00015501
_cell_angle_beta   89.86539530
_cell_angle_gamma   90.00009000
_symmetry_Int_Tables_number   1
_chemical_formula_structural   CdH16C12S(NO2)4
_chemical_formula_sum   'Cd2 H32 C24 S2 N8 O16'
_cell_volume   863.59387701
_cell_formula_units_Z   2
loop_
 _symmetry_equiv_pos_site_id
 _symmetry_equiv_pos_as_xyz
  1  'x, y, z'
loop_
 _atom_site_type_symbol
 _atom_site_label
 _atom_site_symmetry_multiplicity
 _atom_site_fract_x
 _atom_site_fract_y
 _atom_site_fract_z
 _atom_site_occupancy
 _atom_site_hle17_bader_spin_density
 _atom_site_hle17_ddec_charge
 _atom_site_hle17_ddec_spin_density
 _atom_site_hle17_ddec_sum_bond_order
 _atom_site_hle17_magmom
 _atom_site_hse06_10hf_bader_spin_density
 _atom_site_hse06_10hf_ddec_charge
 _atom_site_hse06_10hf_ddec_spin_density
 _atom_site_hse06_10hf_ddec_sum_bond_order
 _atom_site_hse06_10hf_magmom
 _atom_site_hse06_bader_spin_density
 _atom_site_hse06_ddec_charge
 _atom_site_hse06_ddec_spin_density
 _atom_site_hse06_ddec_sum_bond_order
 _atom_site_hse06_magmom
 _atom_site_pbe_bader_spin_density
 _atom_site_pbe_cm5_charge
 _atom_site_pbe_ddec_charge
 _atom_site_pbe_ddec_spin_density
 _atom_site_pbe_ddec_sum_bond_order
 _atom_site_pbe_magmom
Cd  Cd0  1  0.24628388  0.43747942  0.98859733  1  0  1.190984  0  1.589179  0  0  0.999066  0  2.027578  0  0  1.05129  0  1.978233  0  0  0.793393  0.961122  0  2.06222  0
Cd  Cd1  1  0.75371617  0.93748028  0.01140348  1  0  1.190966  0  1.589213  0  0  0.999048  0  2.027615  0  0  1.051269  0  1.978272  0  0  0.793386  0.961103  0  2.062261  0
H  H2  1  0.16763797  0.79101990  0.31820970  1  0  0.376015  0  0.901009  0  0  0.347762  0  0.977773  0  0  0.358269  0  0.966078  0  0  0.309106  0.340307  0  0.985909  0
H  H3  1  0.83235876  0.29102060  0.68179157  1  0  0.37598  0  0.901062  0  0  0.347735  0  0.977817  0  0  0.358243  0  0.96612  0  0  0.309065  0.340282  0  0.985954  0
H  H4  1  0.41178466  0.15259261  0.67457943  1  0  0.379913  0  0.898698  0  0  0.352268  0  0.974646  0  0  0.362516  0  0.963194  0  0  0.309757  0.345003  0  0.982585  0
H  H5  1  0.58821620  0.65259139  0.32542077  1  0  0.379858  0  0.898719  0  0  0.352147  0  0.97475  0  0  0.362445  0  0.963221  0  0  0.309743  0.344883  0  0.982687  0
H  H6  1  0.21954849  0.39047923  0.73454293  1  0  0.084261  0  0.959192  0  0  0.092051  0  1.023119  0  0  0.094967  0  1.019802  0  0  0.114872  0.089803  0  1.025644  0
H  H7  1  0.78045293  0.89047900  0.26545699  1  0  0.084256  0  0.959183  0  0  0.092044  0  1.02311  0  0  0.094961  0  1.019793  0  0  0.114874  0.089797  0  1.025634  0
H  H8  1  0.17844306  0.51774475  0.56960582  1  0  0.118631  0  0.940648  0  0  0.125258  0  1.005711  0  0  0.129389  0  1.003062  0  0  0.112571  0.122227  0  1.007826  0
H  H9  1  0.82155601  0.01774359  0.43039329  1  0  0.118644  0  0.940643  0  0  0.125266  0  1.005712  0  0  0.129399  0  1.003062  0  0  0.112579  0.122236  0  1.007827  0
H  H10  1  0.16514464  0.87306037  0.76051655  1  0  0.116935  0  0.933727  0  0  0.12735  0  0.991514  0  0  0.131158  0  0.989841  0  0  0.109953  0.124449  0  0.993141  0
H  H11  1  0.83485969  0.37306056  0.23948491  1  0  0.116928  0  0.933735  0  0  0.127342  0  0.991521  0  0  0.131149  0  0.989848  0  0  0.109947  0.124443  0  0.993148  0
H  H12  1  0.20265145  0.73076725  0.91768260  1  0  0.079005  0  0.966166  0  0  0.088047  0  1.031099  0  0  0.090047  0  1.028984  0  0  0.112362  0.086436  0  1.032808  0
H  H13  1  0.79735257  0.23076588  0.08231698  1  0  0.079019  0  0.966237  0  0  0.088068  0  1.031159  0  0  0.090067  0  1.029043  0  0  0.112375  0.08648  0  1.03284  0
H  H14  1  0.13527396  0.89849619  0.56908611  1  0  0.095614  0  0.921486  0  0  0.104796  0  0.986007  0  0  0.108711  0  0.982199  0  0  0.119833  0.101948  0  0.988767  0
H  H15  1  0.86472600  0.39849805  0.43091462  1  0  0.095712  0  0.921364  0  0  0.104858  0  0.985936  0  0  0.108775  0  0.982123  0  0  0.119846  0.102007  0  0.988693  0
H  H16  1  0.31947132  0.15266669  0.07611230  1  0  0.078035  0  0.96663  0  0  0.087706  0  1.032446  0  0  0.089648  0  1.030229  0  0  0.113646  0.086137  0  1.034372  0
H  H17  1  0.68053102  0.65266957  0.92388790  1  0  0.07802  0  0.966618  0  0  0.087724  0  1.03241  0  0  0.089666  0  1.030192  0  0  0.113637  0.086155  0  1.034338  0
H  H18  1  0.33596999  0.02707792  0.24335432  1  0  0.11851  0  0.944512  0  0  0.126476  0  1.007153  0  0  0.130141  0  1.005667  0  0  0.108453  0.123797  0  1.008447  0
H  H19  1  0.66403055  0.52707824  0.75664718  1  0  0.118517  0  0.944528  0  0  0.126466  0  1.007185  0  0  0.13013  0  1.005697  0  0  0.108459  0.123788  0  1.008476  0
H  H20  1  0.32112149  0.40161595  0.40905616  1  0  0.118652  0  0.9445  0  0  0.124424  0  1.011335  0  0  0.128849  0  1.008364  0  0  0.111336  0.121126  0  1.013673  0
H  H21  1  0.67888148  0.90161474  0.59094062  1  0  0.118616  0  0.944508  0  0  0.124419  0  1.011323  0  0  0.128844  0  1.008354  0  0  0.111333  0.121121  0  1.01366  0
H  H22  1  0.28663649  0.51090570  0.23487141  1  0  0.078871  0  0.966605  0  0  0.08408  0  1.035453  0  0  0.087015  0  1.032039  0  0  0.112346  0.081926  0  1.037878  0
H  H23  1  0.71336702  0.01090556  0.76512690  1  0  0.078852  0  0.966677  0  0  0.084078  0  1.035503  0  0  0.087014  0  1.032089  0  0  0.112346  0.081925  0  1.037928  0
H  H24  1  0.34795038  0.02028321  0.43411015  1  0  0.096781  0  0.940163  0  0  0.103748  0  1.007477  0  0  0.107857  0  1.003663  0  0  0.11818  0.100709  0  1.010331  0
H  H25  1  0.65204869  0.52028485  0.56588975  1  0  0.096793  0  0.940134  0  0  0.103758  0  1.007462  0  0  0.10787  0  1.003637  0  0  0.118177  0.100718  0  1.010317  0
H  H26  1  0.88406219  0.56868379  0.04927932  1  0  0.420643  0  0.883932  0  0  0.390397  0  0.94615  0  0  0.401462  0  0.929986  0  0  0.28393  0.382283  0  0.958018  0
H  H27  1  0.11593847  0.06868365  0.95072149  1  0  0.420644  0  0.883933  0  0  0.390392  0  0.94616  0  0  0.401457  0  0.929995  0  0  0.283923  0.38228  0  0.958026  0
H  H28  1  0.80150393  0.43966168  0.99101131  1  0  0.430378  0  0.865295  0  0  0.399915  0  0.927754  0  0  0.410419  0  0.912428  0  0  0.28965  0.392343  0  0.938869  0
H  H29  1  0.19849611  0.93966195  0.00899029  1  0  0.430361  0  0.865316  0  0  0.399903  0  0.927763  0  0  0.410408  0  0.912438  0  0  0.28964  0.392332  0  0.938877  0
H  H30  1  0.00926738  0.24092031  0.87267214  1  0  0.42968  0  0.875762  0  0  0.396647  0  0.940933  0  0  0.407515  0  0.925451  0  0  0.291871  0.388922  0  0.951938  0
H  H31  1  0.99073221  0.74092181  0.12732746  1  0  0.429677  0  0.875767  0  0  0.396639  0  0.940943  0  0  0.407508  0  0.925461  0  0  0.291864  0.388915  0  0.951948  0
H  H32  1  0.24514899  0.22088034  0.85822436  1  0  0.41747  0  0.894031  0  0  0.384959  0  0.959379  0  0  0.396144  0  0.943173  0  0  0.292357  0.377007  0  0.970903  0
H  H33  1  0.75485204  0.72088065  0.14177519  1  0  0.417308  0  0.894278  0  0  0.384841  0  0.959566  0  0  0.396028  0  0.943357  0  0  0.292275  0.376889  0  0.97109  0
C  C34  1  0.20447518  0.49740838  0.73746304  1  0  0.134565  0  3.713045  0  0  0.100328  0  3.972963  0  0  0.109044  0  3.989383  0  0  0.040728  0.094556  0  3.961944  0
C  C35  1  0.79552354  0.99740816  0.26253710  1  0  0.134591  0  3.712957  0  0  0.100359  0  3.972874  0  0  0.109077  0  3.989289  0  0  0.040739  0.094588  0  3.961855  0
C  C36  1  0.18429102  0.56926773  0.64494643  1  0  -0.141665  0  3.682283  0  0  -0.164583  0  3.935218  0  0  -0.171184  0  3.953624  0  0  -0.077058  -0.160413  0  3.923195  0
C  C37  1  0.81570520  0.06926829  0.35505358  1  0  -0.141702  0  3.682187  0  0  -0.164621  0  3.935123  0  0  -0.171224  0  3.953527  0  0  -0.077077  -0.16045  0  3.923101  0
C  C38  1  0.17014404  0.70779534  0.64997794  1  0  0.106209  0  3.809056  0  0  0.124536  0  4.040444  0  0  0.129247  0  4.061719  0  0  0.013887  0.121349  0  4.026049  0
C  C39  1  0.82985398  0.20779590  0.35002316  1  0  0.10627  0  3.808961  0  0  0.124604  0  4.040344  0  0  0.129316  0  4.061624  0  0  0.013896  0.121416  0  4.025951  0
C  C40  1  0.17548902  0.76631312  0.75059228  1  0  -0.152251  0  3.694404  0  0  -0.173796  0  3.944503  0  0  -0.182129  0  3.966394  0  0  -0.08163  -0.168311  0  3.93018  0
C  C41  1  0.82451210  0.26631333  0.24940816  1  0  -0.152266  0  3.694374  0  0  -0.173802  0  3.944463  0  0  -0.182138  0  3.966355  0  0  -0.081631  -0.168323  0  3.930154  0
C  C42  1  0.19530492  0.68721086  0.83932690  1  0  0.130959  0  3.729968  0  0  0.099358  0  3.984359  0  0  0.107111  0  4.004006  0  0  0.037469  0.094301  0  3.971224  0
C  C43  1  0.80469898  0.18720976  0.16067338  1  0  0.130935  0  3.730076  0  0  0.099321  0  3.98447  0  0  0.107078  0  4.004115  0  0  0.037473  0.094247  0  3.971334  0
C  C44  1  0.15219713  0.79165601  0.55736210  1  0  0.016056  0  3.682845  0  0  -0.028428  0  3.965939  0  0  -0.025059  0  3.977466  0  0  0.040445  -0.030199  0  3.957949  0
C  C45  1  0.84780406  0.29165788  0.44263840  1  0  0.015942  0  3.682821  0  0  -0.028533  0  3.965933  0  0  -0.02517  0  3.977474  0  0  0.040413  -0.030296  0  3.957936  0
C  C46  1  0.31456618  0.20392668  0.15152075  1  0  0.133035  0  3.719893  0  0  0.099745  0  3.977096  0  0  0.107771  0  3.996114  0  0  0.039136  0.094366  0  3.964577  0
C  C47  1  0.68543332  0.70392833  0.84847955  1  0  0.133051  0  3.719914  0  0  0.099746  0  3.977093  0  0  0.107772  0  3.996108  0  0  0.039136  0.094367  0  3.964571  0
C  C48  1  0.32607323  0.13444900  0.24570503  1  0  -0.149782  0  3.680165  0  0  -0.170988  0  3.931326  0  0  -0.178896  0  3.952586  0  0  -0.08206  -0.165755  0  3.917379  0
C  C49  1  0.67392609  0.63444932  0.75429592  1  0  -0.149813  0  3.6803  0  0  -0.171007  0  3.931488  0  0  -0.178912  0  3.952746  0  0  -0.082056  -0.165774  0  3.917537  0
C  C50  1  0.32904599  0.20334370  0.34205297  1  0  0.109758  0  3.79993  0  0  0.12697  0  4.031892  0  0  0.13179  0  4.052987  0  0  0.014162  0.123702  0  4.017657  0
C  C51  1  0.67095500  0.70334370  0.65794655  1  0  0.109773  0  3.799956  0  0  0.126976  0  4.031942  0  0  0.131795  0  4.053039  0  0  0.01419  0.123707  0  4.017705  0
C  C52  1  0.31683516  0.34214911  0.33745241  1  0  -0.148679  0  3.682983  0  0  -0.170995  0  3.934835  0  0  -0.177816  0  3.953611  0  0  -0.07854  -0.166669  0  3.922531  0
C  C53  1  0.68316022  0.84214914  0.66254739  1  0  -0.148648  0  3.682941  0  0  -0.17099  0  3.934808  0  0  -0.177813  0  3.953588  0  0  -0.078543  -0.166663  0  3.922504  0
C  C54  1  0.30060874  0.40386979  0.24005159  1  0  0.132508  0  3.708506  0  0  0.103018  0  3.959901  0  0  0.11122  0  3.977166  0  0  0.041606  0.097693  0  3.948144  0
C  C55  1  0.69939274  0.90387115  0.75994677  1  0  0.132598  0  3.708491  0  0  0.103089  0  3.959892  0  0  0.11129  0  3.97716  0  0  0.041645  0.097761  0  3.948139  0
C  C56  1  0.34744834  0.12842249  0.43953541  1  0  0.012421  0  3.68597  0  0  -0.030308  0  3.967452  0  0  -0.02707  0  3.979227  0  0  0.037971  -0.031951  0  3.95928  0
C  C57  1  0.65254950  0.62842312  0.56046472  1  0  0.012414  0  3.685985  0  0  -0.030327  0  3.967488  0  0  -0.027087  0  3.979262  0  0  0.037923  -0.03197  0  3.959317  0
S  S58  1  0.61389899  0.24461028  0.86680843  1  0  1.585393  0  5.825069  0  0  1.452822  0  6.37439  0  0  1.507912  0  6.339843  0  0  0.573397  1.414563  0  6.396895  0
S  S59  1  0.38610210  0.74461018  0.13319038  1  0  1.585277  0  5.825168  0  0  1.452676  0  6.374512  0  0  1.507765  0  6.339973  0  0  0.573349  1.41442  0  6.397005  0
N  N60  1  0.21076235  0.55439274  0.83398728  1  0  -0.372756  0  3.282628  0  0  -0.289654  0  3.549996  0  0  -0.312105  0  3.570472  0  0  -0.340029  -0.274131  0  3.535804  0
N  N61  1  0.78924125  0.05439164  0.16601270  1  0  -0.372772  0  3.282669  0  0  -0.289675  0  3.550044  0  0  -0.312127  0  3.570518  0  0  -0.340052  -0.274155  0  3.535864  0
N  N62  1  0.16259943  0.74125512  0.46368538  1  0  -0.070658  0  2.919801  0  0  -0.056431  0  3.215452  0  0  -0.055393  0  3.224666  0  0  -0.214721  -0.057704  0  3.208979  0
N  N63  1  0.83740015  0.24125632  0.53631501  1  0  -0.070664  0  2.919849  0  0  -0.056424  0  3.215487  0  0  -0.055387  0  3.224703  0  0  -0.214699  -0.057699  0  3.209014  0
N  N64  1  0.30019589  0.33678137  0.14761870  1  0  -0.361908  0  3.269155  0  0  -0.278721  0  3.53476  0  0  -0.301144  0  3.555372  0  0  -0.338834  -0.26314  0  3.520607  0
N  N65  1  0.69980838  0.83678304  0.85238032  1  0  -0.361996  0  3.269176  0  0  -0.278812  0  3.53481  0  0  -0.301236  0  3.555424  0  0  -0.338873  -0.263231  0  3.52066  0
N  N66  1  0.36470083  0.18771041  0.52946113  1  0  -0.073637  0  2.917784  0  0  -0.058801  0  3.213002  0  0  -0.058611  0  3.223104  0  0  -0.216008  -0.059396  0  3.205904  0
N  N67  1  0.63529864  0.68771072  0.47053914  1  0  -0.073669  0  2.91777  0  0  -0.05883  0  3.212967  0  0  -0.058642  0  3.223087  0  0  -0.215995  -0.059426  0  3.205869  0
O  O68  1  0.14533353  0.83726442  0.38705516  1  0  -0.423491  0  2.098736  0  0  -0.371957  0  2.337868  0  0  -0.394274  0  2.333465  0  0  -0.261543  -0.355457  0  2.340051  0
O  O69  1  0.85465295  0.33726590  0.61294540  1  0  -0.423466  0  2.098809  0  0  -0.371926  0  2.337922  0  0  -0.394246  0  2.333516  0  0  -0.261521  -0.355428  0  2.340105  0
O  O70  1  0.38241452  0.09775368  0.61097848  1  0  -0.427209  0  2.062408  0  0  -0.37753  0  2.295423  0  0  -0.399303  0  2.2907  0  0  -0.269358  -0.361331  0  2.297799  0
O  O71  1  0.61758769  0.59775271  0.38902160  1  0  -0.42713  0  2.062409  0  0  -0.377389  0  2.295492  0  0  -0.399198  0  2.290695  0  0  -0.269325  -0.361188  0  2.297866  0
O  O72  1  0.59056863  0.37274028  0.92468991  1  0  -0.754755  0  1.959162  0  0  -0.686272  0  2.222195  0  0  -0.710252  0  2.20344  0  0  -0.353614  -0.669182  0  2.23524  0
O  O73  1  0.40943425  0.87274099  0.07530918  1  0  -0.754686  0  1.959151  0  0  -0.686206  0  2.222199  0  0  -0.71019  0  2.20345  0  0  -0.353554  -0.669119  0  2.235241  0
O  O74  1  0.44849930  0.23110699  0.78910909  1  0  -0.735069  0  2.012265  0  0  -0.670817  0  2.252863  0  0  -0.692448  0  2.233796  0  0  -0.346529  -0.655528  0  2.265747  0
O  O75  1  0.55150176  0.73110634  0.21088969  1  0  -0.735052  0  2.012228  0  0  -0.670773  0  2.252831  0  0  -0.692421  0  2.233761  0  0  -0.346548  -0.655487  0  2.265718  0
O  O76  1  0.80624847  0.24464489  0.80760419  1  0  -0.729431  0  1.992601  0  0  -0.662726  0  2.22928  0  0  -0.683937  0  2.209927  0  0  -0.34595  -0.647607  0  2.24208  0
O  O77  1  0.19375410  0.74464478  0.19239463  1  0  -0.729429  0  1.99272  0  0  -0.662684  0  2.229377  0  0  -0.683895  0  2.210025  0  0  -0.345925  -0.647563  0  2.242172  0
O  O78  1  0.60805794  0.13345969  0.94267412  1  0  -0.752669  0  2.005863  0  0  -0.688794  0  2.290661  0  0  -0.712811  0  2.271122  0  0  -0.366579  -0.67146  0  2.303772  0
O  O79  1  0.39194142  0.63346033  0.05732366  1  0  -0.752609  0  2.005811  0  0  -0.68876  0  2.290651  0  0  -0.712774  0  2.271111  0  0  -0.366604  -0.671431  0  2.303772  0
O  O80  1  0.91164704  0.47350580  0.03519197  1  0  -0.847955  0  1.836978  0  0  -0.785347  0  2.028237  0  0  -0.806901  0  1.994642  0  0  -0.595675  -0.770177  0  2.052482  0
O  O81  1  0.08835457  0.97350622  0.96480971  1  0  -0.847936  0  1.837019  0  0  -0.785325  0  2.028278  0  0  -0.806878  0  1.994684  0  0  -0.595656  -0.770154  0  2.052519  0
O  O82  1  0.13740855  0.23089052  0.91269560  1  0  -0.849343  0  1.900042  0  0  -0.77555  0  2.092377  0  0  -0.800126  0  2.059556  0  0  -0.57427  -0.757638  0  2.115406  0
O  O83  1  0.86259250  0.73089077  0.08730398  1  0  -0.849187  0  1.900238  0  0  -0.775444  0  2.092525  0  0  -0.80002  0  2.059703  0  0  -0.574191  -0.75753  0  2.115553  0
