# generated using pymatgen
data_CuH12(C8N5)2
_symmetry_space_group_name_H-M   'P 1'
_cell_length_a   7.08571076
_cell_length_b   9.48860479
_cell_length_c   13.84829036
_cell_angle_alpha   89.99999216
_cell_angle_beta   90.00048544
_cell_angle_gamma   90.12659615
_symmetry_Int_Tables_number   1
_chemical_formula_structural   CuH12(C8N5)2
_chemical_formula_sum   'Cu2 H24 C32 N20'
_cell_volume   931.06688158
_cell_formula_units_Z   2
loop_
 _symmetry_equiv_pos_site_id
 _symmetry_equiv_pos_as_xyz
  1  'x, y, z'
loop_
 _atom_site_type_symbol
 _atom_site_label
 _atom_site_symmetry_multiplicity
 _atom_site_fract_x
 _atom_site_fract_y
 _atom_site_fract_z
 _atom_site_occupancy
 _atom_site_hle17_ddec_charge
 _atom_site_hle17_ddec_spin_density
 _atom_site_hle17_ddec_sum_bond_order
 _atom_site_hle17_magmom
 _atom_site_hse06_10hf_ddec_charge
 _atom_site_hse06_10hf_ddec_spin_density
 _atom_site_hse06_10hf_ddec_sum_bond_order
 _atom_site_hse06_10hf_magmom
 _atom_site_hse06_ddec_charge
 _atom_site_hse06_ddec_spin_density
 _atom_site_hse06_ddec_sum_bond_order
 _atom_site_hse06_magmom
 _atom_site_pbe_cm5_charge
 _atom_site_pbe_ddec_charge
 _atom_site_pbe_ddec_spin_density
 _atom_site_pbe_ddec_sum_bond_order
 _atom_site_pbe_magmom
Cu  Cu0  1  0.99998986  0.00000221  0.50000047  1  0.867435  0.720798  1.965968  0.493  0.870245  0.813062  2.354678  0.634  0.948434  0.889306  2.292561  0.72  0.820701  0.821531  0.748529  2.398246  0.568
Cu  Cu1  1  0.50000156  0.00000292  0.99999751  1  0.867469  -0.720836  1.965948  -0.493  0.870145  -0.813058  2.354663  -0.634  0.948301  -0.889304  2.292635  -0.72  0.8207  0.821407  -0.748524  2.398258  -0.568
H  H2  1  0.16614896  0.46248292  0.66439868  1  0.305355  0.0005  0.926856  0.001  0.285341  0.00043  0.994326  0.001  0.29291  0.000337  0.988379  0.001  0.309314  0.279804  0.000513  0.998866  0.001
H  H3  1  0.33384333  0.53750879  0.16439872  1  0.305368  -0.0005  0.92678  -0.001  0.285286  -0.00043  0.994366  -0.001  0.292859  -0.000337  0.988414  -0.001  0.309261  0.279745  -0.000513  0.998908  -0.001
H  H4  1  0.83382313  0.53752172  0.33560006  1  0.305356  0.0005  0.926828  0.001  0.285275  0.00043  0.994388  0.001  0.292847  0.000337  0.988436  0.001  0.309259  0.279738  0.000513  0.998927  0.001
H  H5  1  0.66617920  0.46248146  0.83559857  1  0.305348  -0.000499  0.9269  -0.001  0.285332  -0.000429  0.994374  -0.001  0.292905  -0.000337  0.988411  -0.001  0.309271  0.279794  -0.000512  0.998914  -0.001
H  H6  1  0.81827484  0.50042019  0.61368922  1  0.109635  0.000561  0.949387  0.001  0.122044  0.000447  1.004193  0.001  0.124043  0.000315  1.003901  0.0  0.120309  0.12034  0.00053  1.004817  0.001
H  H7  1  0.68172944  0.49957465  0.11368928  1  0.10975  -0.000563  0.949279  -0.001  0.122071  -0.000447  1.004185  -0.001  0.12407  -0.000315  1.003896  0.0  0.120312  0.120364  -0.00053  1.004808  -0.001
H  H8  1  0.18170013  0.49958651  0.38631168  1  0.109647  0.000561  0.949672  0.001  0.122021  0.000446  1.004526  0.001  0.124023  0.000315  1.004229  0.0  0.120228  0.120312  0.00053  1.005149  0.001
H  H9  1  0.31830181  0.50042498  0.88631379  1  0.109697  -0.000562  0.949558  -0.001  0.122078  -0.000446  1.004417  -0.001  0.12408  -0.000315  1.004122  0.0  0.120264  0.120371  -0.00053  1.005042  -0.001
H  H10  1  0.71745374  0.24661303  0.52564344  1  0.10976  0.000186  0.955898  0.0  0.119312  0.000314  1.015249  0.0  0.120844  0.000227  1.014765  0.0  0.117675  0.118048  0.0004  1.015747  0.001
H  H11  1  0.78254777  0.75338295  0.02564762  1  0.109734  -0.000186  0.955861  0.0  0.119245  -0.000314  1.015268  0.0  0.120779  -0.000227  1.014783  0.0  0.117645  0.117979  -0.000399  1.015762  -0.001
H  H12  1  0.28253373  0.75338612  0.47434663  1  0.10983  0.000185  0.956143  0.0  0.11941  0.000314  1.01543  0.0  0.120944  0.000227  1.014945  0.0  0.117734  0.118149  0.000399  1.015926  0.001
H  H13  1  0.21747227  0.24661999  0.97435112  1  0.109769  -0.000185  0.956089  0.0  0.119344  -0.000314  1.015402  0.0  0.120877  -0.000227  1.014917  0.0  0.117711  0.118079  -0.000399  1.015895  -0.001
H  H14  1  0.42840956  0.28685089  0.64658984  1  0.130895  -0.000162  0.944203  0.0  0.150947  -8e-05  1.004561  0.0  0.153187  -6.7e-05  1.003696  0.0  0.09807  0.149269  -9.2e-05  1.005221  0.0
H  H15  1  0.07158112  0.71314402  0.14658150  1  0.131072  0.000162  0.944087  0.0  0.151089  8e-05  1.004447  0.0  0.153327  6.7e-05  1.003583  0.0  0.098132  0.149429  9.2e-05  1.00509  0.0
H  H16  1  0.57158336  0.71314082  0.35342117  1  0.131028  -0.00016  0.944057  0.0  0.151043  -8e-05  1.004423  0.0  0.153281  -6.7e-05  1.003558  0.0  0.098123  0.149376  -9.2e-05  1.005076  0.0
H  H17  1  0.92842447  0.28684647  0.85340641  1  0.130895  0.000161  0.944184  0.0  0.150938  8e-05  1.004559  0.0  0.153176  6.8e-05  1.003698  0.0  0.098068  0.149268  9.2e-05  1.005209  0.0
H  H18  1  0.37611460  0.12205086  0.58970543  1  0.138992  -0.000162  0.9837  0.0  0.155076  -6.3e-05  1.050141  0.0  0.156246  -5.7e-05  1.050658  0.0  0.097282  0.153988  -7.6e-05  1.049925  0.0
H  H19  1  0.12388656  0.87794709  0.08969952  1  0.139071  0.000162  0.983762  0.0  0.155132  6.3e-05  1.050202  0.0  0.15631  5.7e-05  1.05071  0.0  0.097266  0.154043  7.6e-05  1.049989  0.0
H  H20  1  0.62387575  0.87795036  0.41030269  1  0.139073  -0.000161  0.983743  0.0  0.15512  -6.3e-05  1.05019  0.0  0.156285  -5.7e-05  1.050709  0.0  0.097256  0.154034  -7.6e-05  1.049976  0.0
H  H21  1  0.87611917  0.12204866  0.91029127  1  0.139016  0.000161  0.983725  0.0  0.155097  6.3e-05  1.050172  0.0  0.156276  5.7e-05  1.050679  0.0  0.097292  0.154007  7.6e-05  1.049957  0.0
H  H22  1  0.32064110  0.14933434  0.71345271  1  0.131905  -0.000265  0.926583  0.0  0.153289  -8.9e-05  0.98221  0.0  0.1549  -9.8e-05  0.982551  0.0  0.096878  0.152183  -7.9e-05  0.981727  0.0
H  H23  1  0.17935478  0.85065729  0.21344344  1  0.131988  0.000268  0.92642  0.0  0.153326  8.9e-05  0.982103  0.0  0.154937  9.8e-05  0.982444  0.0  0.096884  0.152221  7.9e-05  0.981623  0.0
H  H24  1  0.67932510  0.85066088  0.28655397  1  0.131986  -0.000266  0.926444  0.0  0.153306  -8.9e-05  0.982142  0.0  0.154923  -9.8e-05  0.98247  0.0  0.096872  0.152198  -8e-05  0.981674  0.0
H  H25  1  0.82065361  0.14933210  0.78654302  1  0.131878  0.000265  0.926586  0.0  0.153266  9e-05  0.982221  0.0  0.154882  9.8e-05  0.982553  0.0  0.096857  0.15216  8e-05  0.98174  0.0
C  C26  1  0.13830746  0.25484173  0.61377141  1  0.4245  -0.004547  3.676907  -0.004  0.410889  -0.000199  3.939536  0.0  0.428736  -0.00112  3.954293  -0.001  0.220486  0.398906  0.000421  3.929717  0.001
C  C27  1  0.36168424  0.74515739  0.11376295  1  0.424276  0.004547  3.677351  0.004  0.410824  0.0002  3.939756  0.0  0.428614  0.001118  3.954592  0.001  0.220496  0.398883  -0.000421  3.929889  -0.001
C  C28  1  0.86167299  0.74515857  0.38623094  1  0.424584  -0.004545  3.677352  -0.004  0.410969  -0.000197  3.939972  0.0  0.428735  -0.001119  3.95485  -0.001  0.220585  0.399023  0.000422  3.930103  0.001
C  C29  1  0.63832017  0.25484154  0.88622423  1  0.424421  0.004547  3.677084  0.004  0.410832  0.000199  3.939619  0.0  0.428618  0.001117  3.954461  0.001  0.22043  0.398885  -0.000422  3.92975  -0.001
C  C30  1  0.89611432  0.40359849  0.60316968  1  -0.00988  0.004107  3.724588  0.004  -0.049409  0.002082  3.989006  0.002  -0.047792  0.001658  4.007963  0.002  -0.005714  -0.050545  0.002359  3.976581  0.003
C  C31  1  0.60387565  0.59639549  0.10316579  1  -0.009969  -0.004103  3.724511  -0.004  -0.049416  -0.002082  3.988932  -0.002  -0.047797  -0.001657  4.007888  -0.002  -0.005619  -0.050548  -0.002359  3.976506  -0.003
C  C32  1  0.10386136  0.59638185  0.39683917  1  -0.009746  0.00411  3.724045  0.004  -0.049265  0.002083  3.988478  0.002  -0.047648  0.001657  4.007431  0.002  -0.005578  -0.050397  0.00236  3.976051  0.003
C  C33  1  0.39614074  0.40362963  0.89683583  1  -0.00965  -0.004113  3.723571  -0.004  -0.049207  -0.002084  3.987972  -0.002  -0.047592  -0.001659  4.006929  -0.002  -0.005451  -0.050341  -0.002362  3.975554  -0.003
C  C34  1  0.84751845  0.27836159  0.56042349  1  -0.009812  -0.00057  3.765226  -0.001  -0.041622  0.000868  4.039241  0.001  -0.038336  1.8e-05  4.061331  0.0  -0.012511  -0.043529  0.001418  4.02465  0.001
C  C35  1  0.65246953  0.72163560  0.06041984  1  -0.009847  0.000571  3.765099  0.001  -0.041618  -0.000868  4.039118  -0.001  -0.038333  -1.9e-05  4.061203  0.0  -0.012543  -0.043522  -0.001418  4.024526  -0.001
C  C36  1  0.15246773  0.72164180  0.43958825  1  -0.010134  -0.000572  3.764886  -0.001  -0.041966  0.000867  4.038928  0.001  -0.038679  1.7e-05  4.061013  0.0  -0.012715  -0.043877  0.001417  4.024346  0.001
C  C37  1  0.34753606  0.27835488  0.93958756  1  -0.0101  0.000576  3.764762  0.001  -0.041936  -0.000866  4.038811  -0.001  -0.038645  -1.8e-05  4.060894  0.0  -0.012721  -0.043843  -0.001416  4.024222  -0.001
C  C38  1  0.32640583  0.20001406  0.64198687  1  -0.402123  0.000178  3.701575  0.001  -0.48039  0.000137  3.931986  0.0  -0.484664  9.4e-05  3.937959  0.0  -0.237686  -0.477081  0.000163  3.927763  0.0
C  C39  1  0.17358472  0.79997873  0.14197756  1  -0.402424  -0.000185  3.701653  -0.001  -0.480646  -0.000138  3.932027  0.0  -0.484907  -9.4e-05  3.938005  0.0  -0.237756  -0.477373  -0.000163  3.927783  0.0
C  C40  1  0.67357746  0.79998726  0.35802198  1  -0.402436  0.000175  3.701574  0.001  -0.480566  0.000137  3.931987  0.0  -0.48481  9.4e-05  3.937986  0.0  -0.237721  -0.477281  0.000163  3.927748  0.0
C  C41  1  0.82641105  0.20001399  0.85800890  1  -0.40212  -0.000176  3.701645  -0.001  -0.480397  -0.000138  3.932044  0.0  -0.484659  -9.4e-05  3.938026  0.0  -0.237693  -0.47711  -0.000163  3.927799  0.0
C  C42  1  0.07783347  0.86381595  0.69498929  1  0.320675  -0.014063  3.824923  -0.012  0.312696  0.003866  4.097796  0.007  0.3339  0.00264  4.115086  0.006  0.19986  0.297299  0.004693  4.085842  0.008
C  C43  1  0.42219209  0.13618794  0.19498172  1  0.320826  0.014052  3.825466  0.012  0.312864  -0.003864  4.0983  -0.007  0.334065  -0.002643  4.115586  -0.006  0.199952  0.297464  -0.004691  4.086345  -0.008
C  C44  1  0.92217542  0.13619240  0.30501739  1  0.320969  -0.014052  3.825281  -0.012  0.312993  0.003865  4.09813  0.007  0.334198  0.002641  4.115416  0.006  0.200024  0.297593  0.004692  4.08618  0.008
C  C45  1  0.57783365  0.86381703  0.80501124  1  0.320627  0.014061  3.824994  0.012  0.312688  -0.003867  4.097901  -0.007  0.333892  -0.002641  4.115188  -0.006  0.199872  0.29728  -0.004694  4.085936  -0.008
C  C46  1  0.05297653  0.81402336  0.78854735  1  -0.214382  0.037685  4.053062  0.036  -0.209826  0.007788  4.305715  0.008  -0.227305  0.004209  4.324474  0.005  -0.036128  -0.195929  0.012537  4.290647  0.012
C  C47  1  0.44704169  0.18596794  0.28854929  1  -0.214434  -0.03768  4.053514  -0.036  -0.20987  -0.007785  4.306165  -0.008  -0.227348  -0.004203  4.324928  -0.005  -0.036018  -0.195978  -0.012538  4.291105  -0.012
C  C48  1  0.94705446  0.18596678  0.21145355  1  -0.214608  0.03766  4.053887  0.036  -0.210055  0.007778  4.306546  0.008  -0.227538  0.004205  4.325304  0.005  -0.036132  -0.196164  0.012528  4.291487  0.012
C  C49  1  0.55295882  0.81404370  0.71144583  1  -0.214337  -0.037665  4.05337  -0.036  -0.209892  -0.007774  4.306201  -0.008  -0.227376  -0.004231  4.324985  -0.005  -0.036014  -0.195981  -0.012538  4.291113  -0.012
C  C50  1  0.12072062  0.89416842  0.86647771  1  0.30155  -0.009804  3.807808  -0.011  0.295125  0.000215  4.080715  -0.001  0.311359  5.4e-05  4.098532  0.0  0.183726  0.28401  8.6e-05  4.067482  -0.001
C  C51  1  0.37926636  0.10582325  0.36647211  1  0.301733  0.009814  3.807762  0.011  0.295308  -0.000216  4.080668  0.001  0.311544  -5.6e-05  4.09849  0.0  0.183763  0.284197  -8.6e-05  4.067436  0.001
C  C52  1  0.87929059  0.10582093  0.13353041  1  0.301798  -0.00981  3.807863  -0.011  0.295383  0.000214  4.080751  -0.001  0.311621  5.5e-05  4.098569  0.0  0.183812  0.284267  8.6e-05  4.067521  -0.001
C  C53  1  0.62072554  0.89418322  0.63352085  1  0.301898  0.009815  3.807462  0.011  0.295514  -0.000215  4.080392  0.001  0.311751  -5.9e-05  4.098206  0.0  0.183888  0.284397  -8.6e-05  4.067162  0.001
C  C54  1  0.96134683  0.68488457  0.80416939  1  0.299737  -0.011776  3.857468  -0.013  0.283708  -0.000881  4.138393  -0.002  0.297127  -0.000961  4.157179  -0.002  0.182602  0.273984  -0.000656  4.125043  -0.002
C  C55  1  0.53865329  0.31510706  0.30417382  1  0.299522  0.011781  3.857938  0.013  0.283495  0.000879  4.138859  0.002  0.296911  0.000963  4.157651  0.002  0.182453  0.273776  0.000656  4.125507  0.002
C  C56  1  0.03867138  0.31510258  0.19582862  1  0.299569  -0.011782  3.857871  -0.013  0.283527  -0.000881  4.138813  -0.002  0.296948  -0.000963  4.157604  -0.002  0.182413  0.273802  -0.000656  4.125456  -0.002
C  C57  1  0.46134711  0.68490036  0.69582419  1  0.299439  0.011786  3.857889  0.013  0.283438  0.000881  4.138868  0.002  0.296857  0.00096  4.15766  0.002  0.182354  0.273709  0.000657  4.125517  0.002
N  N58  1  0.99922189  0.18704777  0.56697265  1  -0.424427  0.080555  3.276389  0.095  -0.384641  0.059146  3.575013  0.078  -0.420517  0.048103  3.599074  0.067  -0.372051  -0.362683  0.064118  3.560521  0.081
N  N59  1  0.50077200  0.81295567  0.06696905  1  -0.424308  -0.08054  3.276416  -0.095  -0.384568  -0.05914  3.574986  -0.078  -0.420417  -0.048098  3.599072  -0.067  -0.37204  -0.362623  -0.064107  3.560487  -0.081
N  N60  1  0.00075712  0.81295150  0.43303187  1  -0.424194  0.080557  3.276344  0.095  -0.384436  0.059145  3.574992  0.078  -0.420287  0.048103  3.599081  0.067  -0.371995  -0.362491  0.064117  3.56049  0.081
N  N61  1  0.49923531  0.18704639  0.93302752  1  -0.424259  -0.080542  3.276577  -0.095  -0.384508  -0.05914  3.575214  -0.078  -0.420357  -0.048097  3.599302  -0.067  -0.372079  -0.362562  -0.06411  3.56071  -0.081
N  N62  1  0.07822822  0.38652293  0.63590398  1  -0.33552  0.002498  3.441863  0.003  -0.270353  0.002098  3.665795  0.003  -0.287228  0.001538  3.680326  0.002  -0.378979  -0.259261  0.002507  3.656502  0.003
N  N63  1  0.42176379  0.61347513  0.13589577  1  -0.335452  -0.002499  3.44202  -0.003  -0.27028  -0.002099  3.665958  -0.003  -0.287137  -0.001537  3.680507  -0.002  -0.378978  -0.259193  -0.002507  3.656648  -0.003
N  N64  1  0.92173527  0.61347655  0.36410992  1  -0.335648  0.002497  3.442076  0.003  -0.270391  0.002098  3.666045  0.003  -0.287243  0.001539  3.680606  0.002  -0.378954  -0.259306  0.002507  3.656732  0.003
N  N65  1  0.57827050  0.38653289  0.86410224  1  -0.335629  -0.002498  3.441849  -0.003  -0.270375  -0.002098  3.665609  -0.003  -0.287229  -0.001537  3.680156  -0.002  -0.37892  -0.25929  -0.002507  3.656304  -0.003
N  N66  1  0.10584950  0.90496402  0.61631828  1  -0.442613  0.059289  2.972945  0.068  -0.434787  0.037928  3.280172  0.048  -0.460844  0.031623  3.288251  0.041  -0.357891  -0.41803  0.041795  3.275827  0.05
N  N67  1  0.39415112  0.09505080  0.11632140  1  -0.442651  -0.059257  2.973608  -0.068  -0.434815  -0.037926  3.28077  -0.048  -0.460861  -0.031619  3.28886  -0.041  -0.357939  -0.418053  -0.04179  3.276422  -0.05
N  N68  1  0.89415090  0.09504340  0.38367902  1  -0.442745  0.05926  2.973404  0.068  -0.434898  0.037926  3.280594  0.048  -0.460951  0.031619  3.28867  0.041  -0.357985  -0.418144  0.041789  3.276248  0.05
N  N69  1  0.60585492  0.90495654  0.88368166  1  -0.442529  -0.059277  2.973125  -0.068  -0.434674  -0.037933  3.280287  -0.048  -0.460721  -0.031615  3.288376  -0.041  -0.357881  -0.417912  -0.041794  3.275938  -0.05
N  N70  1  0.68055399  0.96177681  0.56955931  1  -0.4278  -0.020996  2.730788  -0.021  -0.426545  -0.003833  2.999332  -0.003  -0.44296  -0.002472  3.008691  -0.002  -0.317158  -0.414745  -0.005922  2.992885  -0.006
N  N71  1  0.81946562  0.03823682  0.06956064  1  -0.427592  0.020987  2.730798  0.021  -0.426342  0.003827  2.999317  0.003  -0.442755  0.002479  3.008696  0.002  -0.316999  -0.414536  0.005917  2.992863  0.006
N  N72  1  0.31943803  0.03823388  0.43043870  1  -0.427634  -0.020995  2.730839  -0.021  -0.426382  -0.003829  2.999386  -0.003  -0.442796  -0.002481  3.008748  -0.002  -0.317035  -0.414579  -0.005922  2.992932  -0.006
N  N73  1  0.18053619  0.96177058  0.93043665  1  -0.427448  0.020985  2.731008  0.021  -0.426189  0.003827  2.999519  0.003  -0.4426  0.002482  3.008897  0.002  -0.316947  -0.414384  0.00592  2.993064  0.006
N  N74  1  0.88330721  0.57720069  0.81628334  1  -0.44049  0.022475  2.656805  0.024  -0.4263  0.004459  2.895797  0.005  -0.438155  0.002747  2.906917  0.003  -0.318623  -0.417114  0.006353  2.887901  0.007
N  N75  1  0.61667638  0.42279959  0.31627948  1  -0.440388  -0.02248  2.656789  -0.024  -0.426168  -0.004458  2.895758  -0.005  -0.438024  -0.002752  2.906883  -0.003  -0.318591  -0.416981  -0.006354  2.887861  -0.007
N  N76  1  0.11671965  0.42279373  0.18371829  1  -0.440423  0.022481  2.656619  0.024  -0.426195  0.004458  2.895611  0.005  -0.438052  0.002749  2.90674  0.003  -0.318552  -0.417009  0.006351  2.887713  0.007
N  N77  1  0.38330979  0.57720380  0.68371709  1  -0.440326  -0.022486  2.656721  -0.024  -0.426105  -0.004464  2.895671  -0.005  -0.437959  -0.002741  2.906797  -0.003  -0.318481  -0.416917  -0.006356  2.887777  -0.007
