# generated using pymatgen
data_CdH17C24N3O5
_symmetry_space_group_name_H-M   'P 1'
_cell_length_a   10.22898989
_cell_length_b   14.70732014
_cell_length_c   16.72949970
_cell_angle_alpha   89.99956275
_cell_angle_beta   94.38621445
_cell_angle_gamma   90.00115117
_symmetry_Int_Tables_number   1
_chemical_formula_structural   CdH17C24N3O5
_chemical_formula_sum   'Cd4 H68 C96 N12 O20'
_cell_volume   2509.43189366
_cell_formula_units_Z   4
loop_
 _symmetry_equiv_pos_site_id
 _symmetry_equiv_pos_as_xyz
  1  'x, y, z'
loop_
 _atom_site_type_symbol
 _atom_site_label
 _atom_site_symmetry_multiplicity
 _atom_site_fract_x
 _atom_site_fract_y
 _atom_site_fract_z
 _atom_site_occupancy
 _atom_site_pbe_bader_charge
 _atom_site_pbe_bader_spin_density
 _atom_site_pbe_cm5_charge
 _atom_site_pbe_ddec_charge
 _atom_site_pbe_ddec_spin_density
 _atom_site_pbe_ddec_sum_bond_order
 _atom_site_pbe_magmom
Cd  Cd0  1  0.22100353  0.36794767  0.28215838  1  1.241334  0  0.752734  0.784103  0  2.233364  0
Cd  Cd1  1  0.77899233  0.86795460  0.21784128  1  1.241288  0  0.752696  0.784046  0  2.233475  0
Cd  Cd2  1  0.77900089  0.63205553  0.71783945  1  1.241323  0  0.752741  0.784104  0  2.233372  0
Cd  Cd3  1  0.22100912  0.13205132  0.78216179  1  1.241433  0  0.752765  0.784142  0  2.233295  0
H  H4  1  0.04474921  0.60092263  0.49956583  1  0.077087  0  0.110752  0.11548  0  1.011941  0
H  H5  1  0.95525198  0.10092926  0.00042328  1  0.077452  0  0.110788  0.115538  0  1.011847  0
H  H6  1  0.95526402  0.39907785  0.50043483  1  0.078081  0  0.110761  0.115504  0  1.011867  0
H  H7  1  0.04473971  0.89907394  0.99957035  1  0.077265  0  0.110777  0.115518  0  1.011872  0
H  H8  1  0.44120912  0.47451265  0.39425080  1  0.159412  0  0.115761  0.099821  0  1.040426  0
H  H9  1  0.55880731  0.97450798  0.10576113  1  0.159623  0  0.115718  0.099829  0  1.040368  0
H  H10  1  0.55879726  0.52548782  0.60574653  1  0.159308  0  0.115752  0.099775  0  1.040481  0
H  H11  1  0.44118536  0.02549318  0.89423135  1  0.160599  0  0.115733  0.099868  0  1.040254  0
H  H12  1  0.40337687  0.16583688  0.53872114  1  0.137433  0  0.10841  0.125534  0  1.026372  0
H  H13  1  0.59662721  0.66583564  0.96128079  1  0.137603  0  0.108406  0.125497  0  1.026413  0
H  H14  1  0.59661576  0.83415068  0.46127971  1  0.137409  0  0.1084  0.125563  0  1.026323  0
H  H15  1  0.40337717  0.33415736  0.03872422  1  0.137457  0  0.108366  0.125485  0  1.02637  0
H  H16  1  0.46627697  0.59971737  0.49603611  1  0.090069  0  0.106579  0.10726  0  1.020322  0
H  H17  1  0.53372702  0.09970987  0.00397525  1  0.090164  0  0.106571  0.107237  0  1.020338  0
H  H18  1  0.53373824  0.40028583  0.50396105  1  0.090099  0  0.106615  0.107255  0  1.02044  0
H  H19  1  0.46626859  0.90029333  0.99601916  1  0.090018  0  0.106607  0.107269  0  1.020326  0
H  H20  1  0.36973092  0.69983648  0.58949728  1  0.08573  0  0.10414  0.105831  0  1.022632  0
H  H21  1  0.63026137  0.19983143  0.91050385  1  0.085821  0  0.104189  0.105881  0  1.022698  0
H  H22  1  0.63029021  0.30017012  0.41049359  1  0.085827  0  0.104081  0.105739  0  1.022793  0
H  H23  1  0.36972831  0.80017381  0.08949865  1  0.085979  0  0.104153  0.1058  0  1.022722  0
H  H24  1  0.30029195  0.29799039  0.46678077  1  0.074785  0  0.115911  0.085534  0  0.990046  0
H  H25  1  0.69970782  0.79799312  0.03322133  1  0.074785  0  0.115891  0.085544  0  0.989867  0
H  H26  1  0.69971829  0.70200601  0.53322811  1  0.074839  0  0.115892  0.085534  0  0.989971  0
H  H27  1  0.30027695  0.20200736  0.96678332  1  0.074751  0  0.115897  0.085533  0  0.989954  0
H  H28  1  0.03842551  0.47614096  0.39785648  1  0.142998  0  0.117267  0.103891  0  1.035008  0
H  H29  1  0.96158616  0.97614811  0.10213608  1  0.143072  0  0.117306  0.103911  0  1.034932  0
H  H30  1  0.96157889  0.52386020  0.60214434  1  0.143075  0  0.117292  0.103963  0  1.035003  0
H  H31  1  0.03840846  0.02385373  0.89785829  1  0.14298  0  0.117304  0.103848  0  1.035012  0
H  H32  1  0.56937441  0.22562929  0.10274240  1  0.058289  0  0.105377  0.127167  0  1.027696  0
H  H33  1  0.43061444  0.72566641  0.39727339  1  0.059633  0  0.105353  0.127195  0  1.027877  0
H  H34  1  0.43062500  0.77434332  0.89727552  1  0.059381  0  0.105352  0.127175  0  1.02784  0
H  H35  1  0.56939493  0.27433067  0.60271453  1  0.060322  0  0.105344  0.12719  0  1.027902  0
H  H36  1  0.07777354  0.73867109  0.54012027  1  0.083235  0  0.108024  0.105069  0  0.993122  0
H  H37  1  0.92222189  0.23867039  0.95986224  1  0.083316  0  0.108026  0.105055  0  0.993234  0
H  H38  1  0.92224064  0.26132803  0.45988462  1  0.083377  0  0.107989  0.105091  0  0.993135  0
H  H39  1  0.07776881  0.76133349  0.04013313  1  0.083261  0  0.10801  0.105058  0  0.993193  0
H  H40  1  0.39584766  0.82260992  0.65596120  1  0.093411  0  0.106613  0.113852  0  1.015208  0
H  H41  1  0.60413730  0.32260850  0.84403639  1  0.093482  0  0.106612  0.113871  0  1.015045  0
H  H42  1  0.60416755  0.17738716  0.34403716  1  0.093651  0  0.106659  0.113898  0  1.015209  0
H  H43  1  0.39584645  0.67740149  0.15597658  1  0.093253  0  0.106665  0.113923  0  1.015054  0
H  H44  1  0.34288776  0.01443802  0.31615409  1  0.117119  0  0.11084  0.124613  0  1.004794  0
H  H45  1  0.65710506  0.51443606  0.18384892  1  0.117175  0  0.110795  0.12459  0  1.004674  0
H  H46  1  0.65710197  0.98556586  0.68383885  1  0.117311  0  0.110824  0.12459  0  1.004751  0
H  H47  1  0.34289834  0.48556646  0.81615783  1  0.11725  0  0.110829  0.12461  0  1.004707  0
H  H48  1  0.84023353  0.21830079  0.11154491  1  0.102934  0  0.104887  0.129822  0  1.039605  0
H  H49  1  0.15976096  0.71834778  0.38847957  1  0.103303  0  0.104863  0.12987  0  1.03971  0
H  H50  1  0.15976586  0.78166025  0.88847719  1  0.102917  0  0.104869  0.129797  0  1.039745  0
H  H51  1  0.84024740  0.28164862  0.61151368  1  0.103199  0  0.104869  0.129769  0  1.039724  0
H  H52  1  0.23635497  0.15384295  0.25506193  1  0.129406  0  0.125638  0.104426  0  0.966346  0
H  H53  1  0.76363390  0.65384467  0.24494177  1  0.129349  0  0.125605  0.104461  0  0.966385  0
H  H54  1  0.76364748  0.84617249  0.74493700  1  0.129361  0  0.125648  0.104479  0  0.966298  0
H  H55  1  0.23635086  0.34616193  0.75506527  1  0.129433  0  0.12564  0.104431  0  0.966361  0
H  H56  1  0.39863451  0.96671062  0.73347612  1  0.091129  0  0.113161  0.084324  0  1.010643  0
H  H57  1  0.60135352  0.46670783  0.76651650  1  0.091685  0  0.11318  0.084375  0  1.010547  0
H  H58  1  0.60139148  0.03328850  0.26652038  1  0.091309  0  0.113195  0.084363  0  1.010728  0
H  H59  1  0.39862142  0.53329877  0.23349185  1  0.091167  0  0.11317  0.08437  0  1.010736  0
H  H60  1  0.00229121  0.00994166  0.67782166  1  0.079356  0  0.115749  0.085216  0  1.006772  0
H  H61  1  0.99770176  0.50993578  0.82215684  1  0.079028  0  0.115778  0.085302  0  1.006718  0
H  H62  1  0.99772983  0.99005677  0.32218715  1  0.079107  0  0.115821  0.085306  0  1.0067  0
H  H63  1  0.00228118  0.49005926  0.17782023  1  0.079278  0  0.115745  0.085242  0  1.006679  0
H  H64  1  0.98122724  0.86691946  0.59714405  1  0.115502  0  0.107914  0.115693  0  1.004991  0
H  H65  1  0.01876592  0.36691334  0.90283273  1  0.11616  0  0.107824  0.115558  0  1.005003  0
H  H66  1  0.01878301  0.13307898  0.40286304  1  0.115373  0  0.107872  0.115654  0  1.005197  0
H  H67  1  0.98122878  0.63308374  0.09714729  1  0.11546  0  0.107881  0.115675  0  1.00506  0
H  H68  1  0.45149034  0.93808785  0.42932912  1  0.075758  0  0.103537  0.10189  0  1.023935  0
H  H69  1  0.54850554  0.43808471  0.07066889  1  0.075809  0  0.103579  0.10195  0  1.023821  0
H  H70  1  0.54847978  0.06190175  0.57066466  1  0.075628  0  0.103528  0.101946  0  1.023927  0
H  H71  1  0.45151453  0.56190489  0.92933747  1  0.075645  0  0.103542  0.101941  0  1.023841  0
C  C72  1  0.13569550  0.57508249  0.47846220  1  -0.116574  0  -0.077884  -0.168046  0  3.918706  0
C  C73  1  0.86430103  0.07508833  0.02152984  1  -0.116914  0  -0.077745  -0.167854  0  3.918631  0
C  C74  1  0.86430988  0.42492003  0.52153987  1  -0.117689  0  -0.077819  -0.16796  0  3.918686  0
C  C75  1  0.13568674  0.92491759  0.97846181  1  -0.116892  0  -0.077873  -0.16817  0  3.918893  0
C  C76  1  0.60578836  0.31399391  0.20712096  1  0.366945  0  0.055821  0.061313  0  3.971021  0
C  C77  1  0.39419811  0.81401787  0.29288577  1  0.366937  0  0.055874  0.0611  0  3.970978  0
C  C78  1  0.39421799  0.68599909  0.79288294  1  0.367439  0  0.055872  0.061363  0  3.970743  0
C  C79  1  0.60580434  0.18599349  0.70711257  1  0.367365  0  0.055905  0.061384  0  3.970888  0
C  C80  1  0.95683918  0.32940962  0.24612270  1  1.602902  0  0.173863  0.50808  0  4.346164  0
C  C81  1  0.04315159  0.82941879  0.25389430  1  1.603336  0  0.17403  0.508425  0  4.346337  0
C  C82  1  0.04317111  0.67058406  0.75387662  1  1.60294  0  0.173821  0.507888  0  4.346177  0
C  C83  1  0.95684296  0.17058849  0.74611561  1  1.602961  0  0.173928  0.508293  0  4.346216  0
C  C84  1  0.35667130  0.50382115  0.42072664  1  0.415292  0  0.037979  0.072726  0  3.971517  0
C  C85  1  0.64333789  0.00381928  0.07927663  1  0.414493  0  0.038104  0.072789  0  3.971321  0
C  C86  1  0.64333116  0.49618204  0.57926931  1  0.414987  0  0.038103  0.072859  0  3.971517  0
C  C87  1  0.35665479  0.99618188  0.92071644  1  0.412403  0  0.038105  0.07291  0  3.9711  0
C  C88  1  0.18706805  0.83208077  0.61878412  1  0.003706  0  0.011025  0.150061  0  4.014325  0
C  C89  1  0.81292410  0.33207788  0.88120001  1  0.004251  0  0.010861  0.14973  0  4.014529  0
C  C90  1  0.81294225  0.16791835  0.38121280  1  0.00342  0  0.011083  0.149997  0  4.014664  0
C  C91  1  0.18707052  0.66792600  0.11879616  1  0.003613  0  0.011056  0.150139  0  4.014525  0
C  C92  1  0.38970511  0.07879013  0.43196197  1  -0.046002  0  0.009715  0.147475  0  4.016175  0
C  C93  1  0.61028951  0.57879060  0.06804011  1  -0.046472  0  0.009755  0.14755  0  4.016147  0
C  C94  1  0.61027479  0.92120151  0.56803587  1  -0.046276  0  0.009698  0.147481  0  4.016371  0
C  C95  1  0.38971879  0.42120580  0.93196628  1  -0.046745  0  0.009738  0.147332  0  4.016445  0
C  C96  1  0.37265032  0.15990997  0.47500107  1  -0.077573  0  -0.079462  -0.170167  0  3.896794  0
C  C97  1  0.62735345  0.65991243  0.02499973  1  -0.07824  0  -0.079422  -0.170092  0  3.896914  0
C  C98  1  0.62734134  0.84008235  0.52499913  1  -0.07791  0  -0.079411  -0.170262  0  3.897018  0
C  C99  1  0.37265387  0.34008261  0.97500661  1  -0.078086  0  -0.079358  -0.170012  0  3.89675  0
C  C100  1  0.36939676  0.57342239  0.47683200  1  -0.000618  0  -0.081394  -0.171364  0  3.936617  0
C  C101  1  0.63060457  0.07342152  0.02316985  1  -0.00042  0  -0.081377  -0.171284  0  3.936863  0
C  C102  1  0.63060765  0.42657809  0.52316703  1  -0.00041  0  -0.081607  -0.171472  0  3.937067  0
C  C103  1  0.36938809  0.92658304  0.97682562  1  0.00034  0  -0.081514  -0.171594  0  3.93682  0
C  C104  1  0.25745541  0.61205665  0.50668649  1  0.029892  0  0.01407  0.157477  0  4.001764  0
C  C105  1  0.74253151  0.11205719  0.99331017  1  0.029798  0  0.014003  0.15731  0  4.002281  0
C  C106  1  0.74253824  0.38795131  0.49330723  1  0.03002  0  0.01425  0.157564  0  4.001901  0
C  C107  1  0.25745724  0.88794873  0.00668451  1  0.030309  0  0.01426  0.157846  0  4.001747  0
C  C108  1  0.27193041  0.69016999  0.55971661  1  -0.036286  0  -0.073736  -0.102684  0  3.929496  0
C  C109  1  0.72806066  0.19016673  0.94027975  1  -0.037005  0  -0.073784  -0.102648  0  3.930017  0
C  C110  1  0.72808876  0.30983321  0.44027417  1  -0.036942  0  -0.073742  -0.102588  0  3.929839  0
C  C111  1  0.27192904  0.80984055  0.05972096  1  -0.036905  0  -0.073791  -0.102681  0  3.929483  0
C  C112  1  0.31269182  0.23370767  0.43554553  1  0.512733  0  0.042972  0.085353  0  3.985976  0
C  C113  1  0.68730321  0.73370790  0.06445676  1  0.513345  0  0.042935  0.085289  0  3.98599  0
C  C114  1  0.68730963  0.76629077  0.56445694  1  0.513177  0  0.042881  0.08537  0  3.985964  0
C  C115  1  0.31268449  0.26629190  0.93554983  1  0.513265  0  0.042839  0.085239  0  3.986025  0
C  C116  1  0.13092881  0.50508015  0.42270028  1  0.476062  0  0.040904  0.078319  0  3.9521  0
C  C117  1  0.86907850  0.00508283  0.07729452  1  0.47597  0  0.040779  0.078099  0  3.9521  0
C  C118  1  0.86907463  0.49492441  0.57729810  1  0.476009  0  0.040812  0.078171  0  3.952224  0
C  C119  1  0.13091221  0.99491628  0.92269906  1  0.475912  0  0.040798  0.0783  0  3.952173  0
C  C120  1  0.63888703  0.25937945  0.14484285  1  0.018893  0  -0.114595  -0.19187  0  4.036502  0
C  C121  1  0.36110080  0.75941529  0.35517506  1  0.017832  0  -0.114607  -0.191919  0  4.036877  0
C  C122  1  0.36111632  0.74059520  0.85517287  1  0.017704  0  -0.114579  -0.191938  0  4.036753  0
C  C123  1  0.63890265  0.24058791  0.64482093  1  0.017003  0  -0.114675  -0.192094  0  4.036874  0
C  C124  1  0.82197014  0.30788484  0.21382194  1  0.349537  0  0.063272  0.084827  0  3.933834  0
C  C125  1  0.17801416  0.80790853  0.28619250  1  0.349281  0  0.063107  0.084533  0  3.933628  0
C  C126  1  0.17803618  0.69209728  0.78618615  1  0.349381  0  0.063164  0.084739  0  3.933742  0
C  C127  1  0.82198632  0.19209739  0.71380933  1  0.349295  0  0.06319  0.084651  0  3.93378  0
C  C128  1  0.47695067  0.33910555  0.23469644  1  1.592713  0  0.172646  0.502148  0  4.360403  0
C  C129  1  0.52304732  0.83911593  0.26530531  1  1.592512  0  0.172761  0.502285  0  4.360297  0
C  C130  1  0.52305569  0.66089765  0.76530448  1  1.592833  0  0.172687  0.502155  0  4.360428  0
C  C131  1  0.47695514  0.16089407  0.73469243  1  1.592942  0  0.17266  0.501996  0  4.360414  0
C  C132  1  0.17485339  0.75001701  0.57045766  1  0.008185  0  -0.072601  -0.100138  0  3.94035  0
C  C133  1  0.82513252  0.25001249  0.92953089  1  0.008719  0  -0.072598  -0.100158  0  3.940824  0
C  C134  1  0.82515693  0.24998687  0.42953748  1  0.008739  0  -0.072569  -0.100207  0  3.940691  0
C  C135  1  0.17485228  0.74999071  0.07046719  1  0.008809  0  -0.072629  -0.100249  0  3.940421  0
C  C136  1  0.30572895  0.86154703  0.65864714  1  -0.081759  0  -0.081356  -0.167033  0  3.928089  0
C  C137  1  0.69425615  0.36154418  0.84134184  1  -0.082243  0  -0.081287  -0.166872  0  3.928017  0
C  C138  1  0.69428426  0.13845481  0.34135591  1  -0.081969  0  -0.081455  -0.166988  0  3.928421  0
C  C139  1  0.30572765  0.63846377  0.15866037  1  -0.081886  0  -0.081478  -0.167128  0  3.928315  0
C  C140  1  0.33606419  0.07611594  0.35187288  1  -0.038477  0  -0.079583  -0.177098  0  3.90815  0
C  C141  1  0.66393036  0.57611780  0.14812921  1  -0.037572  0  -0.079588  -0.177141  0  3.908158  0
C  C142  1  0.66392357  0.92388590  0.64812175  1  -0.03838  0  -0.0795  -0.176913  0  3.908093  0
C  C143  1  0.33607401  0.42388132  0.85187938  1  -0.038648  0  -0.079522  -0.176944  0  3.908236  0
C  C144  1  0.77757464  0.25533208  0.14932186  1  0.064902  0  -0.113042  -0.182785  0  4.013505  0
C  C145  1  0.22241308  0.75536601  0.35069607  1  0.064505  0  -0.112995  -0.182804  0  4.013745  0
C  C146  1  0.22242675  0.74463780  0.85069316  1  0.065172  0  -0.112931  -0.182629  0  4.013561  0
C  C147  1  0.77759135  0.24463583  0.64930057  1  0.064411  0  -0.112983  -0.182614  0  4.013535  0
C  C148  1  0.27676450  0.15331533  0.31733896  1  0.449373  0  0.05026  0.096103  0  3.955448  0
C  C149  1  0.72322533  0.65331567  0.18266479  1  0.448897  0  0.050341  0.096065  0  3.955322  0
C  C150  1  0.72323600  0.84669263  0.68265928  1  0.449453  0  0.050219  0.09595  0  3.955312  0
C  C151  1  0.27676137  0.34668820  0.81734414  1  0.44976  0  0.050209  0.096021  0  3.955454  0
C  C152  1  0.30820600  0.94193947  0.70191767  1  0.493372  0  0.042697  0.088928  0  3.965405  0
C  C153  1  0.69178527  0.44193698  0.79807168  1  0.492675  0  0.042677  0.088826  0  3.965517  0
C  C154  1  0.69180918  0.05805693  0.29808427  1  0.493304  0  0.042707  0.088915  0  3.965366  0
C  C155  1  0.30820245  0.55806826  0.20193013  1  0.493239  0  0.042752  0.088876  0  3.965522  0
C  C156  1  0.08703968  0.96648773  0.67085623  1  0.501775  0  0.048692  0.100617  0  3.962476  0
C  C157  1  0.91295723  0.46648196  0.82912487  1  0.5022  0  0.048685  0.100451  0  3.962489  0
C  C158  1  0.91297843  0.03351071  0.32914825  1  0.501812  0  0.048678  0.100609  0  3.962271  0
C  C159  1  0.08703547  0.53351308  0.17086163  1  0.501992  0  0.048699  0.100565  0  3.96235  0
C  C160  1  0.07592948  0.88688736  0.62619805  1  -0.060546  0  -0.079765  -0.171718  0  3.921958  0
C  C161  1  0.92406325  0.38688406  0.87378037  1  -0.061297  0  -0.079567  -0.171416  0  3.922013  0
C  C162  1  0.92408568  0.11311448  0.37380807  1  -0.060399  0  -0.079675  -0.17161  0  3.921854  0
C  C163  1  0.07592751  0.61311710  0.12620305  1  -0.060855  0  -0.079677  -0.171685  0  3.921899  0
C  C164  1  0.46118879  0.00008138  0.46542194  1  0.025896  0  -0.075849  -0.107659  0  3.929294  0
C  C165  1  0.53880366  0.50008251  0.03457457  1  0.025556  0  -0.075881  -0.107764  0  3.929412  0
C  C166  1  0.53878034  0.99990482  0.53457298  1  -0.072  0  -0.075852  -0.107817  0  3.9295  0
C  C167  1  0.46121446  0.49990709  0.96542991  1  -0.07154  0  -0.075909  -0.107772  0  3.929627  0
N  N168  1  0.20129898  0.99429969  0.70782128  1  -1.19855  0  -0.325142  -0.23047  0  3.486714  0
N  N169  1  0.79869084  0.49429468  0.79216348  1  -1.198811  0  -0.325198  -0.230376  0  3.486629  0
N  N170  1  0.79872307  0.00570011  0.29218100  1  -1.198535  0  -0.325272  -0.23064  0  3.486886  0
N  N171  1  0.20129202  0.50570444  0.20782912  1  -1.198406  0  -0.32519  -0.230406  0  3.48671  0
N  N172  1  0.26710736  0.23182224  0.35782622  1  -1.211189  0  -0.327416  -0.244646  0  3.500574  0
N  N173  1  0.73289254  0.73182377  0.14217333  1  -1.211156  0  -0.327394  -0.244592  0  3.500294  0
N  N174  1  0.73290097  0.76818232  0.64217420  1  -1.211095  0  -0.327343  -0.244642  0  3.500453  0
N  N175  1  0.26709810  0.26817671  0.85783340  1  -1.21081  0  -0.32733  -0.244598  0  3.500441  0
N  N176  1  0.23948526  0.46927847  0.39410798  1  -1.230897  0  -0.329291  -0.241718  0  3.50227  0
N  N177  1  0.76052617  0.96927867  0.10589537  1  -1.23024  0  -0.329351  -0.24166  0  3.502192  0
N  N178  1  0.76051425  0.53072405  0.60589022  1  -1.230469  0  -0.329357  -0.24179  0  3.502228  0
N  N179  1  0.23946453  0.03072453  0.89409940  1  -1.229904  0  -0.32939  -0.241852  0  3.502097  0
O  O180  1  0.37633707  0.31409232  0.19016164  1  -1.162438  0  -0.341977  -0.545162  0  2.148304  0
O  O181  1  0.62365434  0.81409216  0.30983876  1  -1.162357  0  -0.341983  -0.545184  0  2.148311  0
O  O182  1  0.62366833  0.68591767  0.80983565  1  -1.162596  0  -0.342087  -0.545242  0  2.14829  0
O  O183  1  0.37634320  0.18592736  0.69016293  1  -1.162582  0  -0.342047  -0.545187  0  2.14814  0
O  O184  1  0.71756493  0.34440385  0.24964567  1  -1.046273  0  -0.11321  -0.105114  0  2.628304  0
O  O185  1  0.28242043  0.84442458  0.25036201  1  -1.046121  0  -0.113187  -0.104819  0  2.627922  0
O  O186  1  0.28243751  0.65559390  0.75035506  1  -1.046718  0  -0.113204  -0.10509  0  2.628195  0
O  O187  1  0.71757416  0.15559086  0.74964013  1  -1.046461  0  -0.113249  -0.105051  0  2.628252  0
O  O188  1  0.04863302  0.29510551  0.20762605  1  -1.145343  0  -0.349377  -0.545448  0  2.148398  0
O  O189  1  0.95136171  0.79511624  0.29238838  1  -1.145492  0  -0.349379  -0.545604  0  2.148589  0
O  O190  1  0.95137435  0.70489225  0.79236954  1  -1.145074  0  -0.349273  -0.545346  0  2.14837  0
O  O191  1  0.04863874  0.20488628  0.70761942  1  -1.145593  0  -0.349393  -0.545582  0  2.148373  0
O  O192  1  0.97516327  0.38037593  0.30710307  1  -1.18448  0  -0.33981  -0.562495  0  2.18173  0
O  O193  1  0.02480737  0.88038403  0.19291082  1  -1.184968  0  -0.339898  -0.562563  0  2.181904  0
O  O194  1  0.02484410  0.61962523  0.69289371  1  -1.184634  0  -0.339898  -0.562441  0  2.181732  0
O  O195  1  0.97517540  0.11963073  0.80709971  1  -1.184474  0  -0.33979  -0.56246  0  2.18185  0
O  O196  1  0.47264306  0.38218241  0.30043887  1  -1.181384  0  -0.341734  -0.567318  0  2.196817  0
O  O197  1  0.52734931  0.88218460  0.19955455  1  -1.181094  0  -0.341808  -0.567372  0  2.196755  0
O  O198  1  0.52736036  0.61782147  0.69956190  1  -1.181431  0  -0.341701  -0.567281  0  2.196794  0
O  O199  1  0.47264829  0.11781384  0.80043279  1  -1.181243  0  -0.341654  -0.567154  0  2.197024  0
