# generated using pymatgen
data_Zn3H32C16S2(N3O8)2
_symmetry_space_group_name_H-M   'P 1'
_cell_length_a   8.41706407
_cell_length_b   9.46528233
_cell_length_c   9.57889263
_cell_angle_alpha   107.89691320
_cell_angle_beta   115.81269918
_cell_angle_gamma   90.26669730
_symmetry_Int_Tables_number   1
_chemical_formula_structural   Zn3H32C16S2(N3O8)2
_chemical_formula_sum   'Zn3 H32 C16 S2 N6 O16'
_cell_volume   645.16418761
_cell_formula_units_Z   1
loop_
 _symmetry_equiv_pos_site_id
 _symmetry_equiv_pos_as_xyz
  1  'x, y, z'
loop_
 _atom_site_type_symbol
 _atom_site_label
 _atom_site_symmetry_multiplicity
 _atom_site_fract_x
 _atom_site_fract_y
 _atom_site_fract_z
 _atom_site_occupancy
 _atom_site_hle17_bader_spin_density
 _atom_site_hle17_ddec_charge
 _atom_site_hle17_ddec_spin_density
 _atom_site_hle17_ddec_sum_bond_order
 _atom_site_hle17_magmom
 _atom_site_hse06_10hf_bader_spin_density
 _atom_site_hse06_10hf_ddec_charge
 _atom_site_hse06_10hf_ddec_spin_density
 _atom_site_hse06_10hf_ddec_sum_bond_order
 _atom_site_hse06_10hf_magmom
 _atom_site_hse06_bader_spin_density
 _atom_site_hse06_ddec_charge
 _atom_site_hse06_ddec_spin_density
 _atom_site_hse06_ddec_sum_bond_order
 _atom_site_hse06_magmom
 _atom_site_pbe_bader_spin_density
 _atom_site_pbe_cm5_charge
 _atom_site_pbe_ddec_charge
 _atom_site_pbe_ddec_spin_density
 _atom_site_pbe_ddec_sum_bond_order
 _atom_site_pbe_magmom
Zn  Zn0  1  0.19274669  0.51529475  0.82867339  1  0  1.172121  0  1.697317  0  0  1.009225  0  2.147316  0  0  1.0573  0  2.08879  0  0  0.675463  0.973555  0  2.189019  0
Zn  Zn1  1  0.80725419  0.48470468  0.17132319  1  0  1.172117  0  1.697475  0  0  1.009188  0  2.147518  0  0  1.057267  0  2.088987  0  0  0.675397  0.973516  0  2.189222  0
Zn  Zn2  1  0.49999832  0.00000193  0.49999829  1  0  0.978576  0  1.739164  0  0  0.785976  0  2.162592  0  0  0.830901  0  2.121146  0  0  0.676022  0.754458  0  2.190804  0
H  H3  1  0.50833397  0.05634821  0.18073612  1  0  0.082775  0  0.943454  0  0  0.095817  0  1.008986  0  0  0.097145  0  1.008083  0  0  0.11386  0.094838  0  1.009669  0
H  H4  1  0.49166624  0.94365457  0.81926437  1  0  0.082708  0  0.943491  0  0  0.095772  0  1.009022  0  0  0.097102  0  1.008115  0  0  0.11385  0.094794  0  1.009701  0
H  H5  1  0.34242928  0.04057777  0.97917490  1  0  0.097999  0  0.925592  0  0  0.114117  0  0.983297  0  0  0.115316  0  0.982846  0  0  0.120169  0.113329  0  0.983478  0
H  H6  1  0.65756982  0.95942613  0.02082656  1  0  0.098026  0  0.925527  0  0  0.11409  0  0.983332  0  0  0.115284  0  0.982881  0  0  0.120165  0.113301  0  0.983509  0
H  H7  1  0.11211615  0.08295007  0.07300919  1  0  0.060962  0  0.945927  0  0  0.074206  0  1.015963  0  0  0.075279  0  1.015257  0  0  0.101489  0.073234  0  1.016741  0
H  H8  1  0.88788384  0.91705158  0.92699192  1  0  0.060961  0  0.945925  0  0  0.074202  0  1.01595  0  0  0.075275  0  1.015243  0  0  0.10149  0.07323  0  1.016729  0
H  H9  1  0.21439803  0.92542142  0.11514444  1  0  0.094864  0  0.940628  0  0  0.106995  0  1.005937  0  0  0.108215  0  1.005441  0  0  0.112819  0.105823  0  1.00668  0
H  H10  1  0.78560196  0.07458024  0.88485667  1  0  0.094915  0  0.940658  0  0  0.107021  0  1.00597  0  0  0.108233  0  1.005475  0  0  0.112835  0.10585  0  1.006712  0
H  H11  1  0.46019885  0.45800643  0.34522260  1  0  0.091561  0  0.921519  0  0  0.109901  0  0.9764  0  0  0.110383  0  0.977024  0  0  0.119988  0.109521  0  0.975967  0
H  H12  1  0.53979586  0.54199521  0.65477754  1  0  0.091559  0  0.921467  0  0  0.109861  0  0.976403  0  0  0.110342  0  0.977031  0  0  0.119991  0.109482  0  0.97597  0
H  H13  1  0.59082468  0.32152245  0.40602294  1  0  0.076358  0  0.953228  0  0  0.090668  0  1.015163  0  0  0.091979  0  1.014547  0  0  0.112522  0.089654  0  1.015712  0
H  H14  1  0.40917222  0.67848369  0.59398046  1  0  0.076371  0  0.953305  0  0  0.090703  0  1.015192  0  0  0.092016  0  1.014576  0  0  0.112542  0.089694  0  1.015733  0
H  H15  1  0.36274968  0.33526738  0.50395943  1  0  0.088085  0  0.963328  0  0  0.098769  0  1.032891  0  0  0.099783  0  1.032703  0  0  0.107916  0.097736  0  1.033585  0
H  H16  1  0.63724657  0.66473539  0.49604164  1  0  0.088092  0  0.963337  0  0  0.098783  0  1.032907  0  0  0.099796  0  1.032722  0  0  0.107914  0.097749  0  1.033602  0
H  H17  1  0.19122548  0.32448545  0.30599084  1  0  0.076239  0  0.961717  0  0  0.089028  0  1.028431  0  0  0.089989  0  1.028687  0  0  0.100637  0.088349  0  1.028182  0
H  H18  1  0.80877320  0.67551619  0.69401081  1  0  0.076279  0  0.961666  0  0  0.089084  0  1.028366  0  0  0.090045  0  1.028623  0  0  0.100673  0.088405  0  1.028114  0
H  H19  1  0.00299263  0.10327415  0.25566302  1  0  0.072203  0  0.912865  0  0  0.091494  0  0.968825  0  0  0.0923  0  0.968892  0  0  0.104258  0.090705  0  0.969177  0
H  H20  1  0.99700825  0.89672525  0.74433773  1  0  0.072184  0  0.912853  0  0  0.091502  0  0.968776  0  0  0.092308  0  0.968845  0  0  0.10427  0.090714  0  0.969126  0
H  H21  1  0.14893022  0.16482032  0.47049212  1  0  0.081481  0  0.931069  0  0  0.096085  0  0.995015  0  0  0.096661  0  0.995399  0  0  0.110726  0.095603  0  0.994763  0
H  H22  1  0.85106671  0.83517908  0.52950712  1  0  0.08151  0  0.931028  0  0  0.096112  0  0.994979  0  0  0.096689  0  0.995361  0  0  0.110735  0.09563  0  0.994727  0
H  H23  1  0.98641439  0.89815583  0.35639500  1  0  0.079809  0  0.942428  0  0  0.096552  0  1.002687  0  0  0.097113  0  1.003066  0  0  0.104239  0.09605  0  1.002566  0
H  H24  1  0.01358231  0.10184244  0.64360485  1  0  0.079766  0  0.942465  0  0  0.09654  0  1.002724  0  0  0.097097  0  1.003099  0  0  0.104233  0.096036  0  1.002609  0
H  H25  1  0.10009876  0.84372309  0.23709108  1  0  0.071423  0  0.93491  0  0  0.08972  0  0.994579  0  0  0.089758  0  0.99537  0  0  0.106035  0.089434  0  0.994388  0
H  H26  1  0.89989838  0.15627744  0.76290859  1  0  0.071409  0  0.934896  0  0  0.089728  0  0.99457  0  0  0.089766  0  0.99536  0  0  0.106022  0.089443  0  0.99438  0
H  H27  1  0.51434076  0.28639264  0.12677442  1  0  0.315009  0  0.880782  0  0  0.295923  0  0.941154  0  0  0.303821  0  0.935215  0  0  0.316111  0.29002  0  0.945663  0
H  H28  1  0.48566077  0.71361012  0.87323074  1  0  0.314971  0  0.880784  0  0  0.295925  0  0.94113  0  0  0.303823  0  0.935191  0  0  0.316097  0.290026  0  0.945634  0
H  H29  1  0.30113474  0.29184074  0.07498286  1  0  0.300883  0  0.894269  0  0  0.282218  0  0.954491  0  0  0.290596  0  0.94853  0  0  0.311003  0.27634  0  0.95861  0
H  H30  1  0.69886657  0.70816092  0.92501771  1  0  0.300749  0  0.894434  0  0  0.282124  0  0.954616  0  0  0.290498  0  0.948668  0  0  0.310993  0.276248  0  0.958731  0
H  H31  1  0.25821245  0.80216639  0.48441670  1  0  0.298593  0  0.911737  0  0  0.286961  0  0.969381  0  0  0.293678  0  0.96414  0  0  0.290837  0.28202  0  0.973295  0
H  H32  1  0.74178776  0.19783638  0.51558588  1  0  0.298598  0  0.911736  0  0  0.287003  0  0.969338  0  0  0.293724  0  0.964086  0  0  0.290835  0.282064  0  0.973252  0
H  H33  1  0.27037664  0.97802963  0.59999456  1  0  0.296007  0  0.943905  0  0  0.284616  0  0.999411  0  0  0.2912  0  0.994982  0  0  0.286641  0.279772  0  1.002827  0
H  H34  1  0.72962136  0.02197541  0.40000579  1  0  0.296056  0  0.943884  0  0  0.284663  0  0.999388  0  0  0.291244  0  0.994963  0  0  0.286659  0.27982  0  1.002803  0
C  C35  1  0.04055735  0.43025097  0.01601580  1  0  0.540974  0  3.902644  0  0  0.49539  0  4.193532  0  0  0.524868  0  4.186423  0  0  0.212088  0.475203  0  4.197891  0
C  C36  1  0.95945737  0.56974519  0.98396626  1  0  0.541072  0  3.902586  0  0  0.495365  0  4.193603  0  0  0.524838  0  4.186499  0  0  0.212035  0.47518  0  4.197959  0
C  C37  1  0.93888441  0.42734103  0.47997833  1  0  0.52587  0  3.9353  0  0  0.482331  0  4.230195  0  0  0.511253  0  4.224957  0  0  0.20297  0.462587  0  4.232833  0
C  C38  1  0.06111894  0.57264369  0.52002718  1  0  0.5257  0  3.935478  0  0  0.482158  0  4.230399  0  0  0.511073  0  4.225175  0  0  0.202778  0.462415  0  4.233033  0
C  C39  1  0.38227220  0.09108093  0.11119146  1  0  0.018693  0  3.546854  0  0  -0.044994  0  3.808342  0  0  -0.041124  0  3.817548  0  0  -0.061282  -0.047568  0  3.801585  0
C  C40  1  0.61772669  0.90892184  0.88881062  1  0  0.01895  0  3.546633  0  0  -0.044781  0  3.808265  0  0  -0.040894  0  3.817439  0  0  -0.061216  -0.047359  0  3.801521  0
C  C41  1  0.23643135  0.04806352  0.14894078  1  0  -0.048021  0  3.663182  0  0  -0.103802  0  3.922226  0  0  -0.101116  0  3.933626  0  0  -0.074736  -0.10545  0  3.914593  0
C  C42  1  0.76356689  0.95193588  0.85106001  1  0  -0.048144  0  3.663416  0  0  -0.10386  0  3.92245  0  0  -0.101165  0  3.933839  0  0  -0.074706  -0.105508  0  3.914813  0
C  C43  1  0.45630142  0.33814143  0.32915217  1  0  0.02687  0  3.539828  0  0  -0.032575  0  3.795382  0  0  -0.029069  0  3.805867  0  0  -0.059343  -0.034793  0  3.788197  0
C  C44  1  0.54369484  0.66186132  0.67085203  1  0  0.026803  0  3.539924  0  0  -0.03258  0  3.795489  0  0  -0.02908  0  3.80598  0  0  -0.05939  -0.034804  0  3.788302  0
C  C45  1  0.31721501  0.28549253  0.37060260  1  0  -0.059932  0  3.648932  0  0  -0.11777  0  3.910891  0  0  -0.115759  0  3.92346  0  0  -0.080978  -0.118997  0  3.902577  0
C  C46  1  0.68278235  0.71450911  0.62939958  1  0  -0.059982  0  3.648922  0  0  -0.117863  0  3.91092  0  0  -0.115852  0  3.923492  0  0  -0.080986  -0.11909  0  3.902616  0
C  C47  1  0.12733195  0.08489804  0.35041612  1  0  -0.038455  0  3.639431  0  0  -0.091951  0  3.897539  0  0  -0.089547  0  3.910093  0  0  -0.072647  -0.09358  0  3.889049  0
C  C48  1  0.87266541  0.91510361  0.64958503  1  0  -0.038442  0  3.639269  0  0  -0.09193  0  3.897415  0  0  -0.089529  0  3.909969  0  0  -0.07263  -0.093558  0  3.888926  0
C  C49  1  0.10961879  0.92608845  0.35073660  1  0  0.05597  0  3.629569  0  0  -0.004219  0  3.893683  0  0  0.000124  0  3.905392  0  0  -0.079629  -0.007122  0  3.885816  0
C  C50  1  0.89037681  0.07391095  0.64926318  1  0  0.056076  0  3.629552  0  0  -0.004217  0  3.893811  0  0  0.000134  0  3.90551  0  0  -0.079607  -0.007119  0  3.885941  0
S  S51  1  0.46366469  0.26595900  0.81446649  1  0  1.59106  0  5.790228  0  0  1.463364  0  6.335044  0  0  1.51966  0  6.29905  0  0  0.568563  1.424297  0  6.358793  0
S  S52  1  0.53633837  0.73404492  0.18553440  1  0  1.591131  0  5.790205  0  0  1.463398  0  6.335041  0  0  1.519686  0  6.299051  0  0  0.568483  1.424343  0  6.358794  0
N  N53  1  0.41387442  0.25701686  0.15403695  1  0  -0.285794  0  3.313514  0  0  -0.222254  0  3.532318  0  0  -0.236183  0  3.540319  0  0  -0.484851  -0.212462  0  3.526973  0
N  N54  1  0.58612711  0.74298591  0.84596718  1  0  -0.28579  0  3.313671  0  0  -0.222314  0  3.532514  0  0  -0.236243  0  3.540519  0  0  -0.484913  -0.212522  0  3.527164  0
N  N55  1  0.28229906  0.12009959  0.32492599  1  0  -0.233654  0  3.19981  0  0  -0.137813  0  3.440423  0  0  -0.154738  0  3.461137  0  0  -0.335047  -0.126181  0  3.425995  0
N  N56  1  0.71769787  0.87989979  0.67507638  1  0  -0.233654  0  3.199898  0  0  -0.137817  0  3.440514  0  0  -0.154741  0  3.461224  0  0  -0.335106  -0.126187  0  3.426086  0
N  N57  1  0.27018882  0.91212333  0.49153372  1  0  -0.632193  0  3.133939  0  0  -0.571433  0  3.392968  0  0  -0.592137  0  3.390006  0  0  -0.636629  -0.556905  0  3.394888  0
N  N58  1  0.72980986  0.08787832  0.50846792  1  0  -0.632308  0  3.134028  0  0  -0.57155  0  3.393042  0  0  -0.592254  0  3.39008  0  0  -0.636647  -0.557023  0  3.394964  0
O  O59  1  0.38527643  0.40057754  0.77957429  1  0  -0.755477  0  2.015517  0  0  -0.693172  0  2.311097  0  0  -0.716745  0  2.289554  0  0  -0.363634  -0.676397  0  2.3254  0
O  O60  1  0.61472885  0.59942408  0.22043300  1  0  -0.755552  0  2.015402  0  0  -0.69318  0  2.310952  0  0  -0.716741  0  2.289385  0  0  -0.36361  -0.676408  0  2.325254  0
O  O61  1  0.55540053  0.21086595  0.71045401  1  0  -0.732715  0  1.9829  0  0  -0.665914  0  2.259898  0  0  -0.688792  0  2.241372  0  0  -0.361385  -0.649681  0  2.272295  0
O  O62  1  0.44460515  0.78914473  0.28954788  1  0  -0.73274  0  1.982758  0  0  -0.665973  0  2.259847  0  0  -0.688854  0  2.241324  0  0  -0.361419  -0.649723  0  2.272204  0
O  O63  1  0.32343689  0.14854131  0.78246368  1  0  -0.729385  0  1.951502  0  0  -0.673705  0  2.195165  0  0  -0.69467  0  2.179871  0  0  -0.357381  -0.659217  0  2.204876  0
O  O64  1  0.67657300  0.85145698  0.21753703  1  0  -0.729337  0  1.951592  0  0  -0.67364  0  2.195243  0  0  -0.694592  0  2.179942  0  0  -0.357295  -0.659154  0  2.204953  0
O  O65  1  0.60016984  0.30904864  0.99338220  1  0  -0.759406  0  2.064933  0  0  -0.686777  0  2.346299  0  0  -0.711785  0  2.326163  0  0  -0.360105  -0.669194  0  2.360215  0
O  O66  1  0.39983718  0.69095526  0.00662228  1  0  -0.759478  0  2.065059  0  0  -0.686846  0  2.346426  0  0  -0.711851  0  2.32629  0  0  -0.360097  -0.669297  0  2.360368  0
O  O67  1  0.98757131  0.36498654  0.08799899  1  0  -0.566731  0  2.067536  0  0  -0.515782  0  2.323175  0  0  -0.539363  0  2.312993  0  0  -0.290321  -0.49891  0  2.329693  0
O  O68  1  0.01242894  0.63500272  0.91200048  1  0  -0.566646  0  2.068067  0  0  -0.515626  0  2.323738  0  0  -0.539209  0  2.313585  0  0  -0.290228  -0.498757  0  2.33025  0
O  O69  1  0.15715958  0.39097171  0.96624503  1  0  -0.587983  0  2.105999  0  0  -0.524396  0  2.356891  0  0  -0.550587  0  2.345759  0  0  -0.291826  -0.505533  0  2.36395  0
O  O70  1  0.84283978  0.60901981  0.03375375  1  0  -0.587978  0  2.105399  0  0  -0.524388  0  2.356371  0  0  -0.550581  0  2.345233  0  0  -0.291835  -0.505526  0  2.363435  0
O  O71  1  0.96300680  0.38339979  0.59917899  1  0  -0.590772  0  2.041474  0  0  -0.534055  0  2.290057  0  0  -0.559657  0  2.280843  0  0  -0.300249  -0.515529  0  2.295786  0
O  O72  1  0.03699144  0.61659293  0.40080721  1  0  -0.590769  0  2.041115  0  0  -0.53398  0  2.289596  0  0  -0.559591  0  2.280394  0  0  -0.300115  -0.51545  0  2.29532  0
O  O73  1  0.82323170  0.36323847  0.33082426  1  0  -0.584608  0  2.043992  0  0  -0.525763  0  2.293971  0  0  -0.550613  0  2.283534  0  0  -0.306263  -0.507782  0  2.300848  0
O  O74  1  0.17675361  0.63674186  0.66915734  1  0  -0.584443  0  2.044496  0  0  -0.525661  0  2.294547  0  0  -0.550501  0  2.284111  0  0  -0.306247  -0.507683  0  2.301423  0
