# generated using pymatgen
data_ZnH10C18Br2NO4
_symmetry_space_group_name_H-M   'P 1'
_cell_length_a   11.13090327
_cell_length_b   16.22282039
_cell_length_c   17.57170931
_cell_angle_alpha   96.02227741
_cell_angle_beta   89.77274802
_cell_angle_gamma   92.42009176
_symmetry_Int_Tables_number   1
_chemical_formula_structural   ZnH10C18Br2NO4
_chemical_formula_sum   'Zn2 H20 C36 Br4 N2 O8'
_cell_volume   3152.67913404
_cell_formula_units_Z   2
loop_
 _symmetry_equiv_pos_site_id
 _symmetry_equiv_pos_as_xyz
  1  'x, y, z'
loop_
 _atom_site_type_symbol
 _atom_site_label
 _atom_site_symmetry_multiplicity
 _atom_site_fract_x
 _atom_site_fract_y
 _atom_site_fract_z
 _atom_site_occupancy
 _atom_site_pbe_bader_charge
 _atom_site_pbe_bader_spin_density
 _atom_site_pbe_cm5_charge
 _atom_site_pbe_ddec_charge
 _atom_site_pbe_ddec_spin_density
 _atom_site_pbe_ddec_sum_bond_order
 _atom_site_pbe_magmom
Zn  Zn0  1  0.49509016  0.41501099  0.49607996  1  1.282533  0  0.670745  0.824002  0  2.38313  0
Zn  Zn1  1  0.50562109  0.58571861  0.50400147  1  1.286802  0  0.670137  0.821139  0  2.404623  0
H  H2  1  0.38102045  0.71058317  0.42618057  1  0.133227  0  0.128112  0.108174  0  0.976786  0
H  H3  1  0.38336730  0.86408526  0.42705507  1  0.095253  0  0.112954  0.119173  0  0.993201  0
H  H4  1  0.66107529  0.87838319  0.60062031  1  0.078084  0  0.114433  0.121464  0  0.982853  0
H  H5  1  0.64703493  0.72297040  0.59114054  1  0.132435  0  0.128949  0.107507  0  0.97193  0
H  H6  1  0.35075610  0.12175263  0.39207896  1  0.104774  0  0.114158  0.121152  0  0.982292  0
H  H7  1  0.60294638  0.13640485  0.58063931  1  0.100507  0  0.11242  0.118524  0  0.992079  0
H  H8  1  0.60361852  0.29009357  0.58281821  1  0.140371  0  0.121848  0.099883  0  0.99822  0
H  H9  1  0.36864885  0.27707452  0.39996374  1  0.134903  0  0.123129  0.100438  0  0.992069  0
H  H10  1  0.59782111  0.00474201  0.56197627  1  0.060144  0  0.107609  0.102558  0  0.99737  0
H  H11  1  0.40240099  0.99552943  0.43728321  1  0.058882  0  0.107932  0.102969  0  0.997559  0
H  H12  1  0.51170146  0.61732195  0.26570328  1  0.092453  0  0.101514  0.104207  0  1.004074  0
H  H13  1  0.51096505  0.61098834  0.12423810  1  0.048502  0  0.098469  0.096618  0  1.009838  0
H  H14  1  0.48341274  0.34358704  0.11002643  1  0.031542  0  0.097485  0.094705  0  1.003035  0
H  H15  1  0.47920421  0.35199481  0.25263215  1  0.082037  0  0.101709  0.104561  0  1.001173  0
H  H16  1  0.50599607  0.65470955  0.88965798  1  0.045783  0  0.09741  0.094613  0  1.003191  0
H  H17  1  0.50061623  0.38734532  0.87606928  1  0.051889  0  0.098621  0.096908  0  1.009906  0
H  H18  1  0.50428051  0.38056323  0.73463440  1  0.067306  0  0.101189  0.103209  0  1.003589  0
H  H19  1  0.50470907  0.64583732  0.74696509  1  0.069341  0  0.102275  0.105695  0  1.002032  0
H  H20  1  0.49412773  0.40390538  0.99609769  1  0.048371  0  0.097563  0.092348  0  1.013109  0
H  H21  1  0.50472717  0.59451077  0.00385773  1  0.058253  0  0.097944  0.093287  0  1.012859  0
C  C22  1  0.49443305  0.49033444  0.35313816  1  1.544186  0  0.21382  0.596043  0  4.154351  0
C  C23  1  0.26682006  0.50238376  0.50303041  1  1.641122  0  0.209195  0.607741  0  4.157788  0
C  C24  1  0.50559351  0.50793584  0.64686045  1  1.535981  0  0.213875  0.596225  0  4.155401  0
C  C25  1  0.73395113  0.50144595  0.49704288  1  1.653228  0  0.209287  0.606452  0  4.157382  0
C  C26  1  0.44174859  0.75080431  0.46347570  1  0.443056  0  0.056028  0.098535  0  3.933448  0
C  C27  1  0.44387777  0.83640763  0.46475773  1  -0.0444  0  -0.077962  -0.172359  0  3.924436  0
C  C28  1  0.52330317  0.88554305  0.51461184  1  0.015104  0  0.009224  0.148338  0  4.033412  0
C  C29  1  0.59754762  0.84365720  0.56104982  1  0.063303  0  -0.078898  -0.180254  0  3.932333  0
C  C30  1  0.59031932  0.75759536  0.55652241  1  0.422585  0  0.06007  0.106936  0  3.928315  0
C  C31  1  0.53196201  0.97582508  0.52037038  1  -0.082527  0  -0.074998  -0.112048  0  3.958422  0
C  C32  1  0.46743231  0.02444152  0.47943312  1  0.008636  0  -0.074045  -0.113101  0  3.95866  0
C  C33  1  0.40919568  0.15654339  0.43478894  1  0.010734  0  -0.078362  -0.178209  0  3.927653  0
C  C34  1  0.47620703  0.11471842  0.48531293  1  -0.041752  0  0.010094  0.150712  0  4.034217  0
C  C35  1  0.54858223  0.16399796  0.53940789  1  0.015334  0  -0.077595  -0.171504  0  3.919645  0
C  C36  1  0.55049740  0.24964270  0.54103010  1  0.424062  0  0.054217  0.10126  0  3.929563  0
C  C37  1  0.41768874  0.24258386  0.43892968  1  0.435852  0  0.057816  0.107145  0  3.925783  0
C  C38  1  0.49445254  0.48513577  0.26780091  1  -0.014952  0  -0.018134  -0.031434  0  3.960629  0
C  C39  1  0.50421132  0.55775091  0.23072327  1  -0.031625  0  -0.084166  -0.086763  0  3.996387  0
C  C40  1  0.50426370  0.55358849  0.15148655  1  -0.064819  0  -0.091604  -0.132947  0  3.970734  0
C  C41  1  0.49671820  0.47636883  0.10608300  1  0.061417  0  -0.010975  0.113408  0  4.048163  0
C  C42  1  0.48829556  0.40393187  0.14412538  1  -0.011426  0  -0.0926  -0.139953  0  3.983597  0
C  C43  1  0.48611693  0.40811500  0.22355221  1  -0.027895  0  -0.085575  -0.087218  0  3.996342  0
C  C44  1  0.49770929  0.46800574  0.02279983  1  -0.085724  0  -0.090436  -0.12833  0  4.001012  0
C  C45  1  0.50213851  0.53040196  0.97719931  1  -0.011666  0  -0.091527  -0.131451  0  4.001852  0
C  C46  1  0.50508177  0.59429110  0.85571044  1  0.005828  0  -0.092612  -0.140153  0  3.983739  0
C  C47  1  0.50334394  0.52195604  0.89391426  1  -0.141584  0  -0.01039  0.114842  0  4.045887  0
C  C48  1  0.50261444  0.44465550  0.84866526  1  -0.032661  0  -0.091451  -0.13263  0  3.970215  0
C  C49  1  0.50451135  0.44028059  0.76941134  1  0.008803  0  -0.085154  -0.08935  0  3.997915  0
C  C50  1  0.50526772  0.51278378  0.73218041  1  -0.049794  0  -0.017862  -0.029535  0  3.959401  0
C  C51  1  0.50491288  0.58989515  0.77628655  1  0.002243  0  -0.085477  -0.087252  0  3.995603  0
C  C52  1  0.12950456  0.50156714  0.50279044  1  0.076405  0  -0.016278  -0.087837  0  3.867271  0
C  C53  1  0.87113467  0.50081122  0.49719970  1  0.009029  0  -0.015139  -0.084111  0  3.872266  0
C  C54  1  0.06722763  0.57598731  0.50689418  1  0.012348  0  -0.014861  0.05514  0  3.897501  0
C  C55  1  0.93261954  0.42707890  0.50085000  1  -0.020585  0  -0.015257  0.053206  0  3.896326  0
C  C56  1  0.94210349  0.57477122  0.49572183  1  -0.05509  0  -0.016054  0.052309  0  3.902666  0
C  C57  1  0.05900344  0.42675893  0.49642540  1  -0.030169  0  -0.014815  0.055201  0  3.892091  0
Br  Br58  1  0.14748620  0.68089065  0.53420583  1  -0.026709  0  0.018445  -0.058786  0  1.563002  0
Br  Br59  1  0.84804203  0.32556241  0.51563328  1  -0.028971  0  0.019628  -0.061354  0  1.604508  0
Br  Br60  1  0.87268673  0.67433843  0.47212207  1  -0.02403  0  0.018595  -0.057891  0  1.555964  0
Br  Br61  1  0.13010237  0.32189671  0.47750424  1  -0.025023  0  0.019621  -0.060716  0  1.605492  0
N  N62  1  0.51358896  0.71200399  0.50861804  1  -1.221054  0  -0.319468  -0.19566  0  3.517768  0
N  N63  1  0.48681972  0.28838539  0.49136054  1  -1.222019  0  -0.317531  -0.192925  0  3.507367  0
O  O64  1  0.45785181  0.42584201  0.38392054  1  -1.171218  0  -0.320395  -0.550021  0  2.321501  0
O  O65  1  0.53143674  0.55902528  0.38917748  1  -1.160971  0  -0.318404  -0.545148  0  2.327167  0
O  O66  1  0.32174082  0.56365131  0.47731109  1  -1.160865  0  -0.316177  -0.544404  0  2.374718  0
O  O67  1  0.31634334  0.44179365  0.52805119  1  -1.162441  0  -0.313683  -0.53753  0  2.371169  0
O  O68  1  0.47707691  0.57274994  0.61692522  1  -1.157073  0  -0.31922  -0.544911  0  2.32358  0
O  O69  1  0.53409670  0.43941612  0.60998925  1  -1.166207  0  -0.319166  -0.549891  0  2.325683  0
O  O70  1  0.67702177  0.43742583  0.46629647  1  -1.159795  0  -0.314255  -0.536889  0  2.359681  0
O  O71  1  0.68689383  0.56618410  0.52859140  1  -1.159606  0  -0.315993  -0.54406  0  2.367035  0
