# generated using pymatgen
data_ZnH6C8N4O3
_symmetry_space_group_name_H-M   'P 1'
_cell_length_a   8.96127704
_cell_length_b   10.04873954
_cell_length_c   10.88365874
_cell_angle_alpha   89.99985926
_cell_angle_beta   110.64668418
_cell_angle_gamma   89.99973402
_symmetry_Int_Tables_number   1
_chemical_formula_structural   ZnH6C8N4O3
_chemical_formula_sum   'Zn4 H24 C32 N16 O12'
_cell_volume   917.12115095
_cell_formula_units_Z   4
loop_
 _symmetry_equiv_pos_site_id
 _symmetry_equiv_pos_as_xyz
  1  'x, y, z'
loop_
 _atom_site_type_symbol
 _atom_site_label
 _atom_site_symmetry_multiplicity
 _atom_site_fract_x
 _atom_site_fract_y
 _atom_site_fract_z
 _atom_site_occupancy
 _atom_site_hle17_bader_spin_density
 _atom_site_hle17_ddec_charge
 _atom_site_hle17_ddec_spin_density
 _atom_site_hle17_ddec_sum_bond_order
 _atom_site_hle17_magmom
 _atom_site_hse06_10hf_bader_spin_density
 _atom_site_hse06_10hf_ddec_charge
 _atom_site_hse06_10hf_ddec_spin_density
 _atom_site_hse06_10hf_ddec_sum_bond_order
 _atom_site_hse06_10hf_magmom
 _atom_site_hse06_bader_spin_density
 _atom_site_hse06_ddec_charge
 _atom_site_hse06_ddec_spin_density
 _atom_site_hse06_ddec_sum_bond_order
 _atom_site_hse06_magmom
 _atom_site_pbe_bader_spin_density
 _atom_site_pbe_cm5_charge
 _atom_site_pbe_ddec_charge
 _atom_site_pbe_ddec_spin_density
 _atom_site_pbe_ddec_sum_bond_order
 _atom_site_pbe_magmom
Zn  Zn0  1  0.21837302  0.73934854  0.34861510  1  0  1.044117  0  1.833408  0  0  0.85692  0  2.308774  0  0  0.901263  0  2.25693  0  0  0.718679  0.824858  0  2.345413  0
Zn  Zn1  1  0.28162409  0.23934898  0.65138469  1  0  1.044112  0  1.833406  0  0  0.856907  0  2.308763  0  0  0.901254  0  2.256922  0  0  0.718683  0.824855  0  2.345421  0
Zn  Zn2  1  0.78162596  0.26065013  0.65138602  1  0  1.044088  0  1.833421  0  0  0.856914  0  2.308777  0  0  0.90126  0  2.256934  0  0  0.718685  0.824858  0  2.345441  0
Zn  Zn3  1  0.71837610  0.76065068  0.34861586  1  0  1.044116  0  1.833356  0  0  0.85692  0  2.308729  0  0  0.901264  0  2.256883  0  0  0.718686  0.824859  0  2.345391  0
H  H4  1  0.13895733  0.02876395  0.43311899  1  0  0.087709  0  0.950063  0  0  0.09167  0  1.022696  0  0  0.094931  0  1.018369  0  0  0.128141  0.089376  0  1.025418  0
H  H5  1  0.36103533  0.52876433  0.56687631  1  0  0.087742  0  0.949964  0  0  0.091669  0  1.022635  0  0  0.09493  0  1.018309  0  0  0.128118  0.089374  0  1.025359  0
H  H6  1  0.86104047  0.97123571  0.56687995  1  0  0.087679  0  0.950094  0  0  0.091634  0  1.022725  0  0  0.094896  0  1.018399  0  0  0.128121  0.08934  0  1.025449  0
H  H7  1  0.63896246  0.47123334  0.43312355  1  0  0.087717  0  0.950005  0  0  0.091684  0  1.022622  0  0  0.094946  0  1.018295  0  0  0.128146  0.089392  0  1.025346  0
H  H8  1  0.72757351  0.67001383  0.79624311  1  0  0.0751  0  0.927326  0  0  0.084334  0  0.99105  0  0  0.086636  0  0.988061  0  0  0.130896  0.082604  0  0.993204  0
H  H9  1  0.77242920  0.17000852  0.20375733  1  0  0.075099  0  0.927341  0  0  0.084323  0  0.991076  0  0  0.086626  0  0.988085  0  0  0.130888  0.082588  0  0.993237  0
H  H10  1  0.27242787  0.32999081  0.20375595  1  0  0.075115  0  0.927318  0  0  0.084339  0  0.991055  0  0  0.086641  0  0.988066  0  0  0.130893  0.082609  0  0.993206  0
H  H11  1  0.22756979  0.82999114  0.79624288  1  0  0.075115  0  0.927318  0  0  0.08434  0  0.991053  0  0  0.086643  0  0.988062  0  0  0.130891  0.082608  0  0.993207  0
H  H12  1  0.88073435  0.96277839  0.95027658  1  0  0.084211  0  0.934749  0  0  0.096629  0  1.001677  0  0  0.097904  0  1.000455  0  0  0.111546  0.095666  0  1.002565  0
H  H13  1  0.61926748  0.46277710  0.04972293  1  0  0.084198  0  0.934775  0  0  0.096622  0  1.001706  0  0  0.097896  0  1.000486  0  0  0.111557  0.09566  0  1.002593  0
H  H14  1  0.11926703  0.03722127  0.04972432  1  0  0.084206  0  0.934754  0  0  0.096626  0  1.001675  0  0  0.097904  0  1.000456  0  0  0.111562  0.09566  0  1.002564  0
H  H15  1  0.38073389  0.53722256  0.95027889  1  0  0.084195  0  0.93473  0  0  0.096611  0  1.001664  0  0  0.097889  0  1.000443  0  0  0.111548  0.095649  0  1.002549  0
H  H16  1  0.89790360  0.78611441  0.94754604  1  0  0.078956  0  0.92114  0  0  0.094781  0  0.983689  0  0  0.095591  0  0.983077  0  0  0.113799  0.094089  0  0.984293  0
H  H17  1  0.60209113  0.28611517  0.05245179  1  0  0.078904  0  0.921175  0  0  0.094743  0  0.983726  0  0  0.095551  0  0.983118  0  0  0.113793  0.094056  0  0.98433  0
H  H18  1  0.10209301  0.21388426  0.05245346  1  0  0.078935  0  0.921158  0  0  0.09476  0  0.983711  0  0  0.095572  0  0.983102  0  0  0.113813  0.09407  0  0.984313  0
H  H19  1  0.39790786  0.71388548  0.94754841  1  0  0.078899  0  0.921186  0  0  0.094733  0  0.983727  0  0  0.095545  0  0.983119  0  0  0.113787  0.094044  0  0.984332  0
H  H20  1  0.72688490  0.94720772  0.09790290  1  0  0.118421  0  0.934765  0  0  0.129857  0  0.998943  0  0  0.132632  0  0.997368  0  0  0.104157  0.127671  0  1.00038  0
H  H21  1  0.77311108  0.44720655  0.90209402  1  0  0.118455  0  0.934723  0  0  0.129867  0  0.998912  0  0  0.132642  0  0.997337  0  0  0.104162  0.127686  0  1.000348  0
H  H22  1  0.27311648  0.05279194  0.90209800  1  0  0.118402  0  0.934759  0  0  0.129816  0  0.998958  0  0  0.13259  0  0.997383  0  0  0.104144  0.127633  0  1.000392  0
H  H23  1  0.22688791  0.55279311  0.09790619  1  0  0.118424  0  0.934743  0  0  0.12985  0  0.998939  0  0  0.132625  0  0.997364  0  0  0.104146  0.127667  0  1.00037  0
H  H24  1  0.70101818  0.77468269  0.07315482  1  0  0.129954  0  0.942163  0  0  0.141064  0  1.006283  0  0  0.143895  0  1.004905  0  0  0.109034  0.13847  0  1.008192  0
H  H25  1  0.79898379  0.27468134  0.92684516  1  0  0.129967  0  0.942245  0  0  0.141093  0  1.00631  0  0  0.143924  0  1.004936  0  0  0.109042  0.1385  0  1.008225  0
H  H26  1  0.29898320  0.22531698  0.92684700  1  0  0.129976  0  0.94222  0  0  0.141098  0  1.006297  0  0  0.143935  0  1.00491  0  0  0.109044  0.138501  0  1.008211  0
H  H27  1  0.20101758  0.72531832  0.07315574  1  0  0.129985  0  0.942286  0  0  0.141137  0  1.006335  0  0  0.143971  0  1.004962  0  0  0.109056  0.138539  0  1.008252  0
C  C28  1  0.24371103  0.98608569  0.50745615  1  0  0.262161  0  3.67912  0  0  0.204337  0  3.951809  0  0  0.219942  0  3.963684  0  0  0.14794  0.194652  0  3.942331  0
C  C29  1  0.25628435  0.48608566  0.49253890  1  0  0.262205  0  3.678908  0  0  0.204415  0  3.951619  0  0  0.220026  0  3.963482  0  0  0.147975  0.194725  0  3.942149  0
C  C30  1  0.75628797  0.01391198  0.49254222  1  0  0.262229  0  3.679015  0  0  0.204413  0  3.951699  0  0  0.220019  0  3.963569  0  0  0.147964  0.194735  0  3.942223  0
C  C31  1  0.74371584  0.51391201  0.50746074  1  0  0.26221  0  3.678918  0  0  0.204393  0  3.951617  0  0  0.220004  0  3.963481  0  0  0.147953  0.194704  0  3.942147  0
C  C32  1  0.42981378  0.84734538  0.61257991  1  0  0.315062  0  3.870971  0  0  0.287094  0  4.142332  0  0  0.300108  0  4.162248  0  0  0.199505  0.278411  0  4.128545  0
C  C33  1  0.07018496  0.34734341  0.38741736  1  0  0.315022  0  3.871202  0  0  0.287052  0  4.142525  0  0  0.300068  0  4.162445  0  0  0.199502  0.278368  0  4.128724  0
C  C34  1  0.57018521  0.15265627  0.38742029  1  0  0.315054  0  3.870985  0  0  0.287087  0  4.142324  0  0  0.300101  0  4.16224  0  0  0.199517  0.278403  0  4.128536  0
C  C35  1  0.92981642  0.65265526  0.61258263  1  0  0.315057  0  3.871107  0  0  0.287069  0  4.142466  0  0  0.300086  0  4.162384  0  0  0.199486  0.278384  0  4.128673  0
C  C36  1  0.44985459  0.96558893  0.68541106  1  0  -0.06979  0  3.826218  0  0  -0.071488  0  4.07922  0  0  -0.079893  0  4.103782  0  0  0.066887  -0.066102  0  4.062885  0
C  C37  1  0.05014332  0.46558425  0.31458295  1  0  -0.069885  0  3.826388  0  0  -0.071484  0  4.079307  0  0  -0.079901  0  4.103883  0  0  0.066902  -0.066077  0  4.062937  0
C  C38  1  0.55014322  0.03441272  0.31458605  1  0  -0.069845  0  3.82626  0  0  -0.0715  0  4.07925  0  0  -0.079907  0  4.103812  0  0  0.066856  -0.066095  0  4.062898  0
C  C39  1  0.94985805  0.53441442  0.68541796  1  0  -0.069728  0  3.82623  0  0  -0.07136  0  4.079166  0  0  -0.079773  0  4.103738  0  0  0.066953  -0.065961  0  4.062814  0
C  C40  1  0.57588121  0.97827468  0.80979786  1  0  0.459908  0  3.874254  0  0  0.414726  0  4.159166  0  0  0.442805  0  4.162696  0  0  0.222988  0.395617  0  4.157264  0
C  C41  1  0.92411694  0.47827077  0.19019595  1  0  0.459773  0  3.874616  0  0  0.414541  0  4.159541  0  0  0.442624  0  4.163075  0  0  0.222868  0.395418  0  4.157636  0
C  C42  1  0.42412136  0.02172897  0.19020339  1  0  0.45974  0  3.874464  0  0  0.414523  0  4.159416  0  0  0.442603  0  4.162948  0  0  0.222883  0.395396  0  4.157524  0
C  C43  1  0.07588206  0.52172790  0.80980150  1  0  0.45976  0  3.874524  0  0  0.414572  0  4.159399  0  0  0.442652  0  4.162933  0  0  0.222915  0.395456  0  4.157493  0
C  C44  1  0.64319259  0.75166111  0.75938275  1  0  0.250442  0  3.720767  0  0  0.19037  0  4.001622  0  0  0.209015  0  4.010904  0  0  0.171798  0.17812  0  3.994961  0
C  C45  1  0.85680715  0.25165635  0.24061664  1  0  0.250389  0  3.720774  0  0  0.190318  0  4.001636  0  0  0.208965  0  4.010914  0  0  0.171728  0.178071  0  3.994973  0
C  C46  1  0.35680759  0.24834154  0.24061781  1  0  0.250342  0  3.720813  0  0  0.190268  0  4.001678  0  0  0.208913  0  4.01096  0  0  0.171735  0.178016  0  3.995015  0
C  C47  1  0.14319184  0.74834232  0.75938265  1  0  0.250321  0  3.720662  0  0  0.190243  0  4.001528  0  0  0.208891  0  4.010805  0  0  0.171692  0.177991  0  3.994868  0
C  C48  1  0.82094177  0.86847016  0.95418789  1  0  0.044445  0  3.623584  0  0  -0.024258  0  3.891465  0  0  -0.017273  0  3.900179  0  0  -0.056285  -0.028846  0  3.885098  0
C  C49  1  0.67905476  0.36846864  0.04580937  1  0  0.044586  0  3.623495  0  0  -0.024188  0  3.891441  0  0  -0.017205  0  3.900156  0  0  -0.056287  -0.028786  0  3.885085  0
C  C50  1  0.17905602  0.13153050  0.04581197  1  0  0.044495  0  3.623485  0  0  -0.024223  0  3.891365  0  0  -0.017252  0  3.900097  0  0  -0.056332  -0.028812  0  3.884997  0
C  C51  1  0.32094423  0.63153103  0.95419083  1  0  0.044596  0  3.623457  0  0  -0.024128  0  3.891355  0  0  -0.017154  0  3.900084  0  0  -0.056263  -0.028722  0  3.88499  0
C  C52  1  0.78514775  0.85643903  0.08061363  1  0  -0.308833  0  3.681731  0  0  -0.347201  0  3.93268  0  0  -0.354455  0  3.93963  0  0  -0.167685  -0.34155  0  3.928006  0
C  C53  1  0.71485126  0.35643606  0.91938438  1  0  -0.308898  0  3.681851  0  0  -0.347199  0  3.932665  0  0  -0.354455  0  3.939617  0  0  -0.167665  -0.341555  0  3.928005  0
C  C54  1  0.21485243  0.14356263  0.91938692  1  0  -0.30888  0  3.681799  0  0  -0.347191  0  3.932681  0  0  -0.35444  0  3.939644  0  0  -0.167681  -0.34154  0  3.928013  0
C  C55  1  0.28514893  0.64356460  0.08061617  1  0  -0.308923  0  3.681845  0  0  -0.347297  0  3.932786  0  0  -0.354553  0  3.939747  0  0  -0.167686  -0.341643  0  3.928112  0
C  C56  1  0.93124305  0.82760411  0.19883192  1  0  0.725312  0  3.814826  0  0  0.674277  0  4.106859  0  0  0.708984  0  4.09913  0  0  0.218074  0.650121  0  4.11132  0
C  C57  1  0.56875616  0.32760106  0.80116622  1  0  0.725201  0  3.814962  0  0  0.674198  0  4.1069  0  0  0.708909  0  4.099163  0  0  0.218008  0.650054  0  4.111349  0
C  C58  1  0.06875714  0.17239555  0.80116771  1  0  0.725275  0  3.81492  0  0  0.67421  0  4.10699  0  0  0.708904  0  4.099274  0  0  0.218048  0.650057  0  4.111443  0
C  C59  1  0.43124402  0.67239761  0.19883434  1  0  0.725372  0  3.814799  0  0  0.674278  0  4.106906  0  0  0.708977  0  4.099185  0  0  0.21806  0.650118  0  4.111368  0
N  N60  1  0.29886884  0.86221831  0.50007997  1  0  -0.472255  0  3.225434  0  0  -0.392363  0  3.529677  0  0  -0.415194  0  3.537163  0  0  -0.364442  -0.37676  0  3.52372  0
N  N61  1  0.20112859  0.36221650  0.49991964  1  0  -0.472243  0  3.225452  0  0  -0.39234  0  3.529663  0  0  -0.415169  0  3.537143  0  0  -0.364425  -0.37675  0  3.523734  0
N  N62  1  0.70113133  0.13778334  0.49992242  1  0  -0.472279  0  3.225405  0  0  -0.392365  0  3.529607  0  0  -0.415201  0  3.537104  0  0  -0.364422  -0.376766  0  3.523662  0
N  N63  1  0.79887160  0.63778117  0.50007908  1  0  -0.472248  0  3.225333  0  0  -0.392349  0  3.529581  0  0  -0.415177  0  3.537057  0  0  -0.364419  -0.376751  0  3.523643  0
N  N64  1  0.33010143  0.05255436  0.61681512  1  0  -0.411635  0  3.273933  0  0  -0.333163  0  3.570203  0  0  -0.353704  0  3.583697  0  0  -0.359951  -0.318744  0  3.560057  0
N  N65  1  0.16989465  0.55255303  0.38317837  1  0  -0.411597  0  3.273657  0  0  -0.333223  0  3.569999  0  0  -0.353759  0  3.58349  0  0  -0.359991  -0.318809  0  3.55985  0
N  N66  1  0.66989757  0.94744530  0.38318325  1  0  -0.411613  0  3.273813  0  0  -0.333195  0  3.570134  0  0  -0.353732  0  3.583622  0  0  -0.359968  -0.318782  0  3.559989  0
N  N67  1  0.83010553  0.44744564  0.61682219  1  0  -0.411662  0  3.273696  0  0  -0.333267  0  3.570021  0  0  -0.353804  0  3.583514  0  0  -0.360005  -0.318851  0  3.559879  0
N  N68  1  0.52286621  0.73677506  0.64893562  1  0  -0.405995  0  3.053902  0  0  -0.374197  0  3.338087  0  0  -0.389911  0  3.348704  0  0  -0.331119  -0.363643  0  3.330252  0
N  N69  1  0.97713483  0.23677250  0.35106418  1  0  -0.4059  0  3.053906  0  0  -0.374119  0  3.338098  0  0  -0.38983  0  3.348712  0  0  -0.331067  -0.363572  0  3.330266  0
N  N70  1  0.47713397  0.26322759  0.35106401  1  0  -0.405913  0  3.053909  0  0  -0.374122  0  3.33809  0  0  -0.389832  0  3.348705  0  0  -0.331083  -0.363575  0  3.330265  0
N  N71  1  0.02286536  0.76322517  0.64893546  1  0  -0.40592  0  3.053818  0  0  -0.374117  0  3.338004  0  0  -0.38983  0  3.348619  0  0  -0.331064  -0.363571  0  3.330177  0
N  N72  1  0.67593042  0.86336550  0.83655948  1  0  -0.200541  0  3.40951  0  0  -0.110627  0  3.638263  0  0  -0.132396  0  3.65942  0  0  -0.23893  -0.096284  0  3.623681  0
N  N73  1  0.82406735  0.36336108  0.16343723  1  0  -0.200492  0  3.409427  0  0  -0.11055  0  3.63818  0  0  -0.132322  0  3.659341  0  0  -0.238856  -0.0962  0  3.623592  0
N  N74  1  0.32406857  0.13663815  0.16344072  1  0  -0.200378  0  3.409354  0  0  -0.110447  0  3.638106  0  0  -0.132215  0  3.659273  0  0  -0.238808  -0.096096  0  3.623519  0
N  N75  1  0.17593284  0.63663958  0.83656332  1  0  -0.200466  0  3.409397  0  0  -0.110542  0  3.638142  0  0  -0.132313  0  3.659307  0  0  -0.238855  -0.096195  0  3.623557  0
O  O76  1  0.60420711  0.07098162  0.88996635  1  0  -0.523496  0  1.956301  0  0  -0.478219  0  2.17914  0  0  -0.500108  0  2.175294  0  0  -0.292118  -0.463226  0  2.182409  0
O  O77  1  0.89579157  0.57097311  0.11002579  1  0  -0.523407  0  1.956537  0  0  -0.478121  0  2.179393  0  0  -0.500007  0  2.175541  0  0  -0.29207  -0.463128  0  2.182665  0
O  O78  1  0.39579549  0.92902501  0.11002848  1  0  -0.523418  0  1.956405  0  0  -0.478142  0  2.17927  0  0  -0.500031  0  2.175421  0  0  -0.292072  -0.463144  0  2.182546  0
O  O79  1  0.10420982  0.42902457  0.88997328  1  0  -0.523449  0  1.956472  0  0  -0.478179  0  2.179322  0  0  -0.500063  0  2.175469  0  0  -0.292093  -0.463185  0  2.182591  0
O  O80  1  0.91717880  0.79248417  0.30676893  1  0  -0.656961  0  2.089573  0  0  -0.585353  0  2.375127  0  0  -0.613822  0  2.359899  0  0  -0.319771  -0.565077  0  2.384891  0
O  O81  1  0.58282066  0.29248234  0.69322844  1  0  -0.656958  0  2.089736  0  0  -0.585334  0  2.375212  0  0  -0.613809  0  2.35999  0  0  -0.319778  -0.565064  0  2.38498  0
O  O82  1  0.08282258  0.20751549  0.69323105  1  0  -0.65694  0  2.089579  0  0  -0.585334  0  2.375167  0  0  -0.613801  0  2.359953  0  0  -0.319781  -0.565068  0  2.384951  0
O  O83  1  0.41717833  0.70751633  0.30677085  1  0  -0.657059  0  2.089681  0  0  -0.585353  0  2.375143  0  0  -0.613821  0  2.359925  0  0  -0.319794  -0.565087  0  2.384932  0
O  O84  1  0.06976226  0.83775045  0.19043297  1  0  -0.626304  0  2.00894  0  0  -0.549209  0  2.265735  0  0  -0.576973  0  2.252138  0  0  -0.313136  -0.529433  0  2.275747  0
O  O85  1  0.43023654  0.33774788  0.80956617  1  0  -0.626274  0  2.008932  0  0  -0.549183  0  2.265684  0  0  -0.576949  0  2.252084  0  0  -0.313097  -0.529411  0  2.275697  0
O  O86  1  0.93023911  0.16224921  0.80956793  1  0  -0.626224  0  2.008902  0  0  -0.549169  0  2.265762  0  0  -0.576927  0  2.252168  0  0  -0.313117  -0.529395  0  2.275776  0
O  O87  1  0.56976244  0.66225079  0.19043495  1  0  -0.626343  0  2.0089  0  0  -0.549226  0  2.265722  0  0  -0.576988  0  2.252124  0  0  -0.313139  -0.529446  0  2.275727  0
