# generated using pymatgen
data_SmH13C17O12
_symmetry_space_group_name_H-M   'P 1'
_cell_length_a   10.19192200
_cell_length_b   10.43239139
_cell_length_c   11.09603042
_cell_angle_alpha   96.30609735
_cell_angle_beta   112.41873459
_cell_angle_gamma   103.90858380
_symmetry_Int_Tables_number   1
_chemical_formula_structural   SmH13C17O12
_chemical_formula_sum   'Sm2 H26 C34 O24'
_cell_volume   1031.61307796
_cell_formula_units_Z   2
loop_
 _symmetry_equiv_pos_site_id
 _symmetry_equiv_pos_as_xyz
  1  'x, y, z'
loop_
 _atom_site_type_symbol
 _atom_site_label
 _atom_site_symmetry_multiplicity
 _atom_site_fract_x
 _atom_site_fract_y
 _atom_site_fract_z
 _atom_site_occupancy
 _atom_site_hle17_bader_spin_density
 _atom_site_hle17_ddec_charge
 _atom_site_hle17_ddec_spin_density
 _atom_site_hle17_ddec_sum_bond_order
 _atom_site_hle17_magmom
 _atom_site_hse06_10hf_bader_spin_density
 _atom_site_hse06_10hf_ddec_charge
 _atom_site_hse06_10hf_ddec_spin_density
 _atom_site_hse06_10hf_ddec_sum_bond_order
 _atom_site_hse06_10hf_magmom
 _atom_site_hse06_bader_spin_density
 _atom_site_hse06_ddec_charge
 _atom_site_hse06_ddec_spin_density
 _atom_site_hse06_ddec_sum_bond_order
 _atom_site_hse06_magmom
 _atom_site_pbe_bader_spin_density
 _atom_site_pbe_cm5_charge
 _atom_site_pbe_ddec_charge
 _atom_site_pbe_ddec_spin_density
 _atom_site_pbe_ddec_sum_bond_order
 _atom_site_pbe_magmom
Sm  Sm0  1  0.09250380  0.85484996  0.49069937  1  0  2.264423  0  1.647605  0  0  2.110145  0  2.117202  0  0  2.221575  0  1.950758  0  0  1.49136  2.074608  0  2.15251  0
Sm  Sm1  1  0.90749623  0.14513963  0.50929266  1  0  2.26438  0  1.647727  0  0  2.110068  0  2.117393  0  0  2.221525  0  1.950901  0  0  1.491364  2.074517  0  2.152729  0
H  H2  1  0.57418916  0.86654871  0.45466074  1  0  0.125271  0  0.948164  0  0  0.131268  0  1.01615  0  0  0.135843  0  1.012301  0  0  0.112784  0.128016  0  1.018934  0
H  H3  1  0.42580883  0.13344095  0.54533157  1  0  0.125233  0  0.948172  0  0  0.131282  0  1.016112  0  0  0.135859  0  1.012262  0  0  0.112774  0.12803  0  1.018894  0
H  H4  1  0.16662106  0.60328156  0.13739886  1  0  0.126076  0  0.986868  0  0  0.126107  0  1.064658  0  0  0.131248  0  1.0599  0  0  0.109685  0.122487  0  1.067615  0
H  H5  1  0.83336509  0.39671654  0.86258980  1  0  0.125981  0  0.986906  0  0  0.126035  0  1.064669  0  0  0.131179  0  1.059919  0  0  0.10963  0.122415  0  1.067629  0
H  H6  1  0.58784179  0.59445642  0.13773085  1  0  0.12715  0  0.954946  0  0  0.13118  0  1.026206  0  0  0.136197  0  1.021323  0  0  0.110413  0.127595  0  1.029233  0
H  H7  1  0.41215505  0.40554452  0.86226318  1  0  0.127122  0  0.955014  0  0  0.131149  0  1.02628  0  0  0.136165  0  1.0214  0  0  0.110425  0.127559  0  1.029312  0
H  H8  1  0.10305705  0.53678963  0.90845786  1  0  0.062288  0  0.914153  0  0  0.071179  0  0.981073  0  0  0.071942  0  0.978119  0  0  0.121193  0.070556  0  0.983208  0
H  H9  1  0.89693235  0.46321361  0.09153773  1  0  0.062212  0  0.914151  0  0  0.071146  0  0.981074  0  0  0.071909  0  0.97812  0  0  0.121187  0.070522  0  0.983209  0
H  H10  1  0.12845673  0.38668750  0.83358775  1  0  0.080716  0  0.938926  0  0  0.086894  0  1.008389  0  0  0.087962  0  1.00619  0  0  0.125811  0.085922  0  1.010677  0
H  H11  1  0.87153555  0.61331345  0.16639947  1  0  0.080656  0  0.938992  0  0  0.086905  0  1.008426  0  0  0.087975  0  1.006217  0  0  0.125791  0.085931  0  1.010713  0
H  H12  1  0.99179242  0.27408396  0.16206404  1  0  0.127089  0  0.926813  0  0  0.135618  0  0.988721  0  0  0.140625  0  0.983843  0  0  0.115244  0.132085  0  0.992136  0
H  H13  1  0.00819969  0.72591388  0.83792099  1  0  0.127148  0  0.926871  0  0  0.135691  0  0.988758  0  0  0.140701  0  0.983874  0  0  0.115263  0.132156  0  0.992176  0
H  H14  1  0.20329506  0.96247801  0.18023663  1  0  0.122526  0  0.940019  0  0  0.128787  0  1.005774  0  0  0.132705  0  1.002595  0  0  0.113882  0.126237  0  1.007436  0
H  H15  1  0.79671465  0.03753308  0.81977413  1  0  0.122602  0  0.939992  0  0  0.128832  0  1.005781  0  0  0.132747  0  1.002601  0  0  0.113964  0.12629  0  1.007431  0
H  H16  1  0.44806517  0.91578138  0.05051212  1  0  0.398335  0  0.885949  0  0  0.368043  0  0.963272  0  0  0.38034  0  0.949929  0  0  0.311512  0.359397  0  0.972637  0
H  H17  1  0.55197146  0.08422284  0.94950168  1  0  0.398396  0  0.886016  0  0  0.368164  0  0.963192  0  0  0.380454  0  0.949851  0  0  0.311704  0.359525  0  0.97257  0
H  H18  1  0.25003779  0.24715263  0.93396539  1  0  0.126391  0  0.952592  0  0  0.131027  0  1.023004  0  0  0.134833  0  1.019786  0  0  0.115711  0.128291  0  1.025328  0
H  H19  1  0.74999583  0.75286299  0.06605317  1  0  0.126492  0  0.952555  0  0  0.131026  0  1.02305  0  0  0.134855  0  1.019826  0  0  0.115697  0.128288  0  1.025372  0
H  H20  1  0.34055334  0.96090401  0.78050552  1  0  0.435855  0  0.856158  0  0  0.405486  0  0.918524  0  0  0.414852  0  0.905118  0  0  0.306156  0.398983  0  0.92794  0
H  H21  1  0.65945486  0.03909782  0.21949930  1  0  0.435912  0  0.856083  0  0  0.405507  0  0.918505  0  0  0.414881  0  0.90509  0  0  0.306137  0.398997  0  0.927928  0
H  H22  1  0.40399174  0.92507715  0.67587130  1  0  0.4466  0  0.815246  0  0  0.424169  0  0.874132  0  0  0.432664  0  0.861923  0  0  0.32267  0.418178  0  0.882894  0
H  H23  1  0.59600388  0.07491676  0.32412614  1  0  0.446557  0  0.81531  0  0  0.424129  0  0.874184  0  0  0.432623  0  0.861978  0  0  0.322641  0.418137  0  0.882946  0
H  H24  1  0.19648131  0.65735913  0.64868301  1  0  0.449306  0  0.80043  0  0  0.434224  0  0.844653  0  0  0.442557  0  0.832784  0  0  0.337581  0.428123  0  0.85358  0
H  H25  1  0.80354779  0.34263361  0.35130653  1  0  0.449147  0  0.800846  0  0  0.434106  0  0.844848  0  0  0.442432  0  0.832991  0  0  0.337518  0.428006  0  0.853773  0
H  H26  1  0.10826496  0.56711722  0.50292070  1  0  0.45411  0  0.796746  0  0  0.433197  0  0.852492  0  0  0.442305  0  0.839336  0  0  0.33628  0.426831  0  0.861903  0
H  H27  1  0.89162683  0.43279269  0.49710480  1  0  0.45408  0  0.796767  0  0  0.433172  0  0.852502  0  0  0.442276  0  0.839351  0  0  0.336315  0.426813  0  0.8619  0
C  C28  1  0.76523516  0.78382071  0.36525929  1  0  0.705666  0  3.855886  0  0  0.660913  0  4.140928  0  0  0.695477  0  4.137018  0  0  0.224438  0.637295  0  4.147177  0
C  C29  1  0.23475639  0.21617516  0.63472808  1  0  0.70554  0  3.856153  0  0  0.660817  0  4.141167  0  0  0.695393  0  4.137242  0  0  0.22437  0.6372  0  4.147414  0
C  C30  1  0.59907357  0.73636086  0.30235021  1  0  -0.04616  0  3.765934  0  0  -0.020463  0  4.00165  0  0  -0.027565  0  4.022929  0  0  -0.014702  -0.015706  0  3.986354  0
C  C31  1  0.40092149  0.26363108  0.69764956  1  0  -0.045995  0  3.765601  0  0  -0.020361  0  4.001404  0  0  -0.027462  0  4.022677  0  0  -0.014622  -0.015602  0  3.986104  0
C  C32  1  0.51812033  0.78898769  0.36180620  1  0  -0.099374  0  3.674007  0  0  -0.140163  0  3.925009  0  0  -0.138398  0  3.942337  0  0  -0.084937  -0.141879  0  3.913863  0
C  C33  1  0.48187424  0.21100319  0.63819151  1  0  -0.099418  0  3.673869  0  0  -0.14021  0  3.924919  0  0  -0.138452  0  3.942247  0  0  -0.084974  -0.141921  0  3.913772  0
C  C34  1  0.36252067  0.73592039  0.30284820  1  0  -0.028559  0  3.75969  0  0  -0.000304  0  3.989972  0  0  -0.007396  0  4.012048  0  0  -0.016096  0.004161  0  3.974953  0
C  C35  1  0.63747419  0.26408064  0.69714703  1  0  -0.028471  0  3.759474  0  0  -0.000321  0  3.989916  0  0  -0.007406  0  4.011989  0  0  -0.016076  0.004144  0  3.974899  0
C  C36  1  0.27192810  0.77512347  0.37111880  1  0  0.640762  0  3.931185  0  0  0.598926  0  4.216252  0  0  0.631829  0  4.215037  0  0  0.192325  0.576158  0  4.220372  0
C  C37  1  0.72806275  0.22487558  0.62887320  1  0  0.640801  0  3.9313  0  0  0.59899  0  4.216384  0  0  0.631893  0  4.215162  0  0  0.192428  0.576222  0  4.220507  0
C  C38  1  0.28756513  0.63981248  0.18096817  1  0  -0.177581  0  3.688757  0  0  -0.216128  0  3.94403  0  0  -0.216677  0  3.959804  0  0  -0.096346  -0.214393  0  3.932533  0
C  C39  1  0.71242813  0.36018447  0.81902435  1  0  -0.177519  0  3.688841  0  0  -0.216051  0  3.944101  0  0  -0.216613  0  3.959886  0  0  -0.096326  -0.214315  0  3.932602  0
C  C40  1  0.36964334  0.59308536  0.12009064  1  0  0.271004  0  3.797193  0  0  0.2664  0  4.05961  0  0  0.274648  0  4.076377  0  0  0.080263  0.259948  0  4.048095  0
C  C41  1  0.63035832  0.40691748  0.87990326  1  0  0.271041  0  3.797287  0  0  0.266493  0  4.059635  0  0  0.274739  0  4.076405  0  0  0.080381  0.260053  0  4.048116  0
C  C42  1  0.52537283  0.63683289  0.18327873  1  0  -0.151796  0  3.663805  0  0  -0.189789  0  3.918151  0  0  -0.189575  0  3.932482  0  0  -0.087054  -0.188066  0  3.906915  0
C  C43  1  0.47462185  0.36316108  0.81672023  1  0  -0.151865  0  3.663572  0  0  -0.189849  0  3.917925  0  0  -0.189635  0  3.932256  0  0  -0.087155  -0.188119  0  3.906684  0
C  C44  1  0.15023141  0.45299231  0.92724450  1  0  0.257303  0  3.612234  0  0  0.175985  0  3.898532  0  0  0.19229  0  3.895901  0  0  0.030305  0.164955  0  3.899803  0
C  C45  1  0.84976382  0.54701065  0.07274563  1  0  0.257486  0  3.612085  0  0  0.176056  0  3.898616  0  0  0.192368  0  3.895981  0  0  0.030332  0.165038  0  3.899886  0
C  C46  1  0.11508728  0.27342771  0.04098000  1  0  0.277631  0  3.786956  0  0  0.270509  0  4.052811  0  0  0.278348  0  4.069241  0  0  0.089092  0.264814  0  4.041831  0
C  C47  1  0.88491248  0.72656608  0.95901780  1  0  0.277545  0  3.787473  0  0  0.270693  0  4.052978  0  0  0.278541  0  4.069409  0  0  0.089073  0.264992  0  4.041996  0
C  C48  1  0.05934510  0.22459111  0.12985351  1  0  -0.132386  0  3.654889  0  0  -0.171397  0  3.909688  0  0  -0.170936  0  3.924618  0  0  -0.075889  -0.17126  0  3.899212  0
C  C49  1  0.94066057  0.77540670  0.87015012  1  0  -0.132418  0  3.654902  0  0  -0.171519  0  3.909582  0  0  -0.171061  0  3.924509  0  0  -0.07588  -0.17138  0  3.899109  0
C  C50  1  0.08956558  0.11201938  0.17824550  1  0  -0.056564  0  3.766766  0  0  -0.031211  0  4.001922  0  0  -0.039635  0  4.024357  0  0  -0.014344  -0.025512  0  3.98574  0
C  C51  1  0.91043761  0.88798265  0.82176142  1  0  -0.056728  0  3.766714  0  0  -0.031314  0  4.001796  0  0  -0.03974  0  4.024233  0  0  -0.014481  -0.025618  0  3.985617  0
C  C52  1  0.02782090  0.06031378  0.27270503  1  0  0.7153  0  3.863772  0  0  0.669517  0  4.154183  0  0  0.704646  0  4.147938  0  0  0.231802  0.645923  0  4.160393  0
C  C53  1  0.97216809  0.93968934  0.72728411  1  0  0.715171  0  3.864031  0  0  0.669377  0  4.154419  0  0  0.704506  0  4.14818  0  0  0.231866  0.645782  0  4.16063  0
C  C54  1  0.17891106  0.04909671  0.14076562  1  0  -0.063738  0  3.679853  0  0  -0.105553  0  3.933042  0  0  -0.102152  0  3.951715  0  0  -0.074669  -0.107143  0  3.919372  0
C  C55  1  0.82110242  0.95091629  0.85924469  1  0  -0.06377  0  3.679848  0  0  -0.105585  0  3.933042  0  0  -0.102181  0  3.951711  0  0  -0.07472  -0.107173  0  3.919384  0
C  C56  1  0.23599743  0.09993975  0.05324105  1  0  -0.08291  0  3.819599  0  0  -0.058399  0  4.060918  0  0  -0.069661  0  4.086261  0  0  -0.023865  -0.051063  0  4.043755  0
C  C57  1  0.76402266  0.90007714  0.94676988  1  0  -0.082898  0  3.819448  0  0  -0.058444  0  4.060787  0  0  -0.0697  0  4.086129  0  0  -0.023893  -0.05112  0  4.043639  0
C  C58  1  0.33444313  0.03988002  0.01418706  1  0  0.670704  0  3.773629  0  0  0.618476  0  4.067498  0  0  0.653731  0  4.056613  0  0  0.244761  0.594474  0  4.074394  0
C  C59  1  0.66556103  0.96012806  0.98581807  1  0  0.670631  0  3.774003  0  0  0.618439  0  4.06781  0  0  0.65369  0  4.056924  0  0  0.244763  0.594442  0  4.074706  0
C  C60  1  0.20393173  0.21143846  0.00205118  1  0  -0.141198  0  3.663941  0  0  -0.18202  0  3.920935  0  0  -0.180699  0  3.937585  0  0  -0.080328  -0.182906  0  3.910077  0
C  C61  1  0.79609664  0.78857728  0.99796578  1  0  -0.14127  0  3.66392  0  0  -0.18202  0  3.920797  0  0  -0.180739  0  3.937421  0  0  -0.080304  -0.182899  0  3.909938  0
O  O62  1  0.83751953  0.70336501  0.35239809  1  0  -0.683224  0  1.916829  0  0  -0.637503  0  2.148408  0  0  -0.667249  0  2.135527  0  0  -0.376026  -0.622303  0  2.157366  0
O  O63  1  0.16247122  0.29662181  0.64759442  1  0  -0.683111  0  1.917114  0  0  -0.637381  0  2.148668  0  0  -0.667135  0  2.135778  0  0  -0.37597  -0.622179  0  2.157623  0
O  O64  1  0.83459252  0.90663077  0.43319051  1  0  -0.84199  0  2.175938  0  0  -0.779837  0  2.435281  0  0  -0.820935  0  2.422874  0  0  -0.435491  -0.761042  0  2.441591  0
O  O65  1  0.16540019  0.09336724  0.56680375  1  0  -0.842047  0  2.176001  0  0  -0.779903  0  2.435329  0  0  -0.821003  0  2.422922  0  0  -0.435538  -0.761107  0  2.441636  0
O  O66  1  0.32871302  0.88273549  0.46452522  1  0  -0.711541  0  1.967128  0  0  -0.662439  0  2.204244  0  0  -0.693143  0  2.192951  0  0  -0.385522  -0.645202  0  2.210709  0
O  O67  1  0.67129118  0.11725339  0.53548877  1  0  -0.711504  0  1.967365  0  0  -0.662392  0  2.204451  0  0  -0.693097  0  2.193158  0  0  -0.385515  -0.645152  0  2.210915  0
O  O68  1  0.13865141  0.69883787  0.33589880  1  0  -0.703189  0  1.948927  0  0  -0.655626  0  2.182278  0  0  -0.685914  0  2.171575  0  0  -0.383844  -0.639239  0  2.189772  0
O  O69  1  0.86132789  0.30117425  0.66406663  1  0  -0.703295  0  1.949027  0  0  -0.655721  0  2.182356  0  0  -0.686013  0  2.171652  0  0  -0.383899  -0.639327  0  2.189848  0
O  O70  1  0.30768475  0.50097766  0.99909163  1  0  -0.314125  0  2.325462  0  0  -0.247083  0  2.5633  0  0  -0.265418  0  2.563423  0  0  -0.18276  -0.234004  0  2.562595  0
O  O71  1  0.69231556  0.49902115  0.00090324  1  0  -0.314163  0  2.325563  0  0  -0.247119  0  2.563452  0  0  -0.265454  0  2.563578  0  0  -0.182783  -0.234066  0  2.562763  0
O  O72  1  0.07768937  0.38376948  0.99926375  1  0  -0.310104  0  2.347475  0  0  -0.240709  0  2.587967  0  0  -0.260194  0  2.590264  0  0  -0.175359  -0.22693  0  2.585831  0
O  O73  1  0.92231265  0.61623651  0.00073510  1  0  -0.309973  0  2.347594  0  0  -0.24079  0  2.588184  0  0  -0.260283  0  2.590487  0  0  -0.175299  -0.227001  0  2.586035  0
O  O74  1  0.96457575  0.13184604  0.31807063  1  0  -0.727621  0  2.003071  0  0  -0.676354  0  2.249392  0  0  -0.709808  0  2.236397  0  0  -0.396957  -0.658609  0  2.255991  0
O  O75  1  0.03541631  0.86816217  0.68192268  1  0  -0.727408  0  2.003177  0  0  -0.676164  0  2.249529  0  0  -0.709614  0  2.236535  0  0  -0.396838  -0.658419  0  2.256127  0
O  O76  1  0.04334764  0.94838931  0.30065145  1  0  -0.734279  0  2.059293  0  0  -0.68573  0  2.31674  0  0  -0.720763  0  2.306859  0  0  -0.403554  -0.667735  0  2.322128  0
O  O77  1  0.95666873  0.05163269  0.69935435  1  0  -0.7343  0  2.059357  0  0  -0.685734  0  2.316763  0  0  -0.720778  0  2.306891  0  0  -0.403667  -0.667736  0  2.322154  0
O  O78  1  0.39019266  0.08608502  0.93865360  1  0  -0.599769  0  2.015304  0  0  -0.540635  0  2.227958  0  0  -0.563288  0  2.21772  0  0  -0.286789  -0.52512  0  2.234628  0
O  O79  1  0.60983507  0.91393392  0.06136891  1  0  -0.599722  0  2.015648  0  0  -0.540526  0  2.228239  0  0  -0.563181  0  2.218013  0  0  -0.286686  -0.525007  0  2.23489  0
O  O80  1  0.36151776  0.93503531  0.06535439  1  0  -0.529653  0  2.106789  0  0  -0.478233  0  2.321884  0  0  -0.500931  0  2.309366  0  0  -0.318086  -0.462676  0  2.330205  0
O  O81  1  0.63849350  0.06496979  0.93466525  1  0  -0.529648  0  2.107307  0  0  -0.478243  0  2.322355  0  0  -0.500931  0  2.309838  0  0  -0.31824  -0.4627  0  2.330681  0
O  O82  1  0.32613063  0.89070246  0.70565174  1  0  -0.890373  0  1.84628  0  0  -0.844632  0  2.021162  0  0  -0.86847  0  1.987773  0  0  -0.61694  -0.83232  0  2.041509  0
O  O83  1  0.67386284  0.10930186  0.29435334  1  0  -0.890406  0  1.846288  0  0  -0.844661  0  2.021219  0  0  -0.868511  0  1.987807  0  0  -0.61691  -0.832341  0  2.041587  0
O  O84  1  0.10333361  0.63435887  0.56836276  1  0  -0.858396  0  1.813866  0  0  -0.813914  0  1.98477  0  0  -0.837875  0  1.950024  0  0  -0.593831  -0.802011  0  2.006231  0
O  O85  1  0.89667905  0.36565727  0.43165033  1  0  -0.858185  0  1.814266  0  0  -0.813698  0  1.98512  0  0  -0.837659  0  1.950379  0  0  -0.593733  -0.801799  0  2.006584  0
