# generated using pymatgen
data_Cu2H24C25N6O11
_symmetry_space_group_name_H-M   'P 1'
_cell_length_a   7.81455459
_cell_length_b   12.18612997
_cell_length_c   16.71130378
_cell_angle_alpha   90.52530036
_cell_angle_beta   94.06171301
_cell_angle_gamma   106.42487341
_symmetry_Int_Tables_number   1
_chemical_formula_structural   Cu2H24C25N6O11
_chemical_formula_sum   'Cu4 H48 C50 N12 O22'
_cell_volume   1521.91760310
_cell_formula_units_Z   2
loop_
 _symmetry_equiv_pos_site_id
 _symmetry_equiv_pos_as_xyz
  1  'x, y, z'
loop_
 _atom_site_type_symbol
 _atom_site_label
 _atom_site_symmetry_multiplicity
 _atom_site_fract_x
 _atom_site_fract_y
 _atom_site_fract_z
 _atom_site_occupancy
 _atom_site_pbe_bader_charge
 _atom_site_pbe_bader_spin_density
 _atom_site_pbe_cm5_charge
 _atom_site_pbe_ddec_charge
 _atom_site_pbe_ddec_spin_density
 _atom_site_pbe_ddec_sum_bond_order
 _atom_site_pbe_magmom
Cu  Cu0  1  0.38054525  0.50873634  0.04544120  1  1.080214  0.585758  0.688507  0.771422  0.752677  2.407675  0.587
Cu  Cu1  1  0.61946215  0.49126904  0.95455310  1  1.080232  0.58576  0.688502  0.77136  0.752677  2.407703  0.587
Cu  Cu2  1  0.00000008  0.00000091  0.49999832  1  1.101067  0.579949  0.75821  0.834267  0.749404  2.270891  0.578
Cu  Cu3  1  0.49999451  0.00000405  0.49999875  1  1.089468  -0.585362  0.695791  0.940282  -0.794878  2.145395  -0.587
H  H4  1  0.65049891  0.85918146  0.54066420  1  0.662961  -0.00033  0.284978  0.380774  -0.000766  0.967481  0.0
H  H5  1  0.34948280  0.14082133  0.45933445  1  0.663159  -0.000331  0.28492  0.380695  -0.000766  0.967582  0.0
H  H6  1  0.68386075  0.87202663  0.43894109  1  0.656798  -0.000464  0.284331  0.392789  -0.000964  0.950453  -0.002
H  H7  1  0.31613309  0.12798045  0.56105926  1  0.65677  -0.000464  0.284335  0.392789  -0.000964  0.950456  -0.002
H  H8  1  0.31632435  0.25696629  0.77550137  1  0.123082  0.000342  0.104364  0.114458  0.000258  1.025191  0.0
H  H9  1  0.68368348  0.74303737  0.22449593  1  0.123072  0.000342  0.104344  0.114415  0.000258  1.025248  0.0
H  H10  1  0.77724669  0.04926037  0.71417733  1  0.103717  0.000339  0.108469  0.129891  0.000282  1.017907  0.0
H  H11  1  0.22276156  0.95073045  0.28582951  1  0.103573  0.000339  0.108481  0.129915  0.000282  1.01776  0.0
H  H12  1  0.90918767  0.24692903  0.93778391  1  0.084659  0.000456  0.106525  0.122105  0.000359  1.03624  0.0
H  H13  1  0.09083565  0.75306949  0.06221997  1  0.084625  0.000456  0.106531  0.122085  0.000359  1.036229  0.0
H  H14  1  0.64426015  0.09862806  0.96619342  1  0.037504  1.2e-05  0.0909  0.08566  -6e-06  1.015933  0.0
H  H15  1  0.35577805  0.90136961  0.03381525  1  0.037223  1.2e-05  0.090972  0.085758  -6e-06  1.015912  0.0
H  H16  1  0.43794622  0.08856456  0.90785198  1  0.074098  8e-06  0.105374  0.11827  4e-06  0.978381  0.0
H  H17  1  0.56207225  0.91143824  0.09216250  1  0.073905  8e-06  0.10538  0.118241  4e-06  0.978563  0.0
H  H18  1  0.60853631  0.22258428  0.91829301  1  0.080407  -2.9e-05  0.098407  0.110597  -2.7e-05  1.031035  0.0
H  H19  1  0.39149949  0.77741681  0.08171796  1  0.080141  -2.9e-05  0.09836  0.110457  -2.7e-05  1.031081  0.0
H  H20  1  0.57690885  0.73023242  0.76448324  1  0.126866  0.000386  0.105692  0.119235  0.000336  1.009289  0.0
H  H21  1  0.42308465  0.26977380  0.23551589  1  0.126683  0.000386  0.105733  0.119361  0.000336  1.009185  0.0
H  H22  1  0.25441313  0.95743600  0.70899304  1  0.106343  -0.000407  0.109736  0.131043  -0.000365  1.020231  0.0
H  H23  1  0.74555542  0.04255738  0.29100564  1  0.106464  -0.000407  0.109776  0.131051  -0.000365  1.020298  0.0
H  H24  1  0.18172073  0.75927980  0.92349812  1  0.098068  0.000419  0.105816  0.115084  0.000328  1.052338  0.0
H  H25  1  0.81827430  0.24072727  0.07650527  1  0.098135  0.000419  0.10584  0.115172  0.000328  1.052317  0.0
H  H26  1  0.89444889  0.77452498  0.88799611  1  0.104083  -1e-06  0.099511  0.112798  1e-06  0.999214  0.0
H  H27  1  0.10554569  0.22547010  0.11201559  1  0.10418  -1e-06  0.099491  0.112789  1e-06  0.999394  0.0
H  H28  1  0.84354480  0.90891500  0.88654081  1  0.068494  9e-06  0.105242  0.117789  -1e-06  0.986241  0.0
H  H29  1  0.15644018  0.09107580  0.11347049  1  0.068407  9e-06  0.105259  0.117814  -1e-06  0.986195  0.0
H  H30  1  0.02561176  0.89171045  0.95227938  1  0.035987  2.6e-05  0.091769  0.088062  0.0  1.013331  0.0
H  H31  1  0.97438551  0.10828721  0.04772405  1  0.036103  2.6e-05  0.091753  0.088056  0.0  1.013168  0.0
H  H32  1  0.37062006  0.63085197  0.22728940  1  0.175795  -1.2e-05  0.14972  0.127345  -1e-06  0.969114  0.0
H  H33  1  0.62938344  0.36915083  0.77271072  1  0.175854  -1.2e-05  0.149758  0.127435  -1e-06  0.969063  0.0
H  H34  1  0.94055164  0.44409617  0.07059817  1  0.157837  -2.7e-05  0.13506  0.112602  -5e-06  1.013712  0.0
H  H35  1  0.05945819  0.55590322  0.92939739  1  0.157824  -2.7e-05  0.135027  0.11261  -5e-06  1.013769  0.0
H  H36  1  0.93547024  0.61280949  0.32170700  1  0.091698  -7e-06  0.122431  0.11158  -1.6e-05  0.962065  0.0
H  H37  1  0.06453571  0.38718989  0.67828961  1  0.091645  -7e-06  0.122419  0.111566  -1.6e-05  0.96196  0.0
H  H38  1  0.17095197  0.66966511  0.34093693  1  0.08332  0.0  0.119734  0.1025  -1.9e-05  0.971962  0.0
H  H39  1  0.82904629  0.33033170  0.65906355  1  0.083269  0.0  0.119751  0.102481  -1.9e-05  0.971948  0.0
H  H40  1  0.20336065  0.48165546  0.38026169  1  0.045522  -2e-06  0.102587  0.104759  -2e-06  0.960895  0.0
H  H41  1  0.79663108  0.51833792  0.61973493  1  0.045704  -2e-06  0.102578  0.104821  -2e-06  0.960958  0.0
H  H42  1  0.04574855  0.51965063  0.43731380  1  0.067131  2.5e-05  0.099168  0.100596  2e-05  1.022903  0.0
H  H43  1  0.95424009  0.48034447  0.56268270  1  0.067066  2.5e-05  0.099164  0.100602  2e-05  1.022918  0.0
H  H44  1  0.95734818  0.34890252  0.29215943  1  0.070503  2.7e-05  0.118995  0.100697  9e-06  0.990793  0.0
H  H45  1  0.04264754  0.65109686  0.70783558  1  0.070639  2.7e-05  0.119021  0.100828  9e-06  0.990716  0.0
H  H46  1  0.79460591  0.39280482  0.34170547  1  0.07739  0.000234  0.124544  0.115567  0.000128  0.953794  0.0
H  H47  1  0.20538789  0.60719285  0.65828586  1  0.07747  0.000234  0.124507  0.115574  0.000128  0.953742  0.0
H  H48  1  0.81559899  0.17762930  0.57206111  1  0.149945  0.000443  0.13868  0.09883  0.000285  1.012301  0.0
H  H49  1  0.18440575  0.82237607  0.42793607  1  0.149864  0.000443  0.138688  0.098788  0.000285  1.012317  0.0
H  H50  1  0.06843691  0.18513428  0.35753512  1  0.214637  0.000184  0.155332  0.14123  3e-06  0.970125  0.0
H  H51  1  0.93154669  0.81486082  0.64245819  1  0.214545  0.000184  0.155302  0.141239  3e-06  0.970124  0.0
C  C52  1  0.12578585  0.25759188  0.86286375  1  -0.045803  0.016785  -0.019634  -0.007879  0.011695  3.997349  0.013
C  C53  1  0.87422720  0.74240921  0.13713554  1  -0.045635  0.016786  -0.01968  -0.008022  0.011695  3.99722  0.013
C  C54  1  0.17871692  0.22398382  0.79076147  1  -0.042337  0.001773  -0.089484  -0.135704  0.001282  3.954179  0.002
C  C55  1  0.82129774  0.77601813  0.20923969  1  -0.042408  0.001773  -0.089382  -0.135526  0.001282  3.954158  0.002
C  C56  1  0.05279515  0.14955233  0.73693739  1  0.027222  0.010985  -0.021195  -0.024233  0.007656  4.023656  0.009
C  C57  1  0.94721618  0.85044791  0.26306363  1  0.027315  0.010987  -0.021276  -0.024331  0.007658  4.023717  0.009
C  C58  1  0.87546460  0.10745745  0.75584271  1  0.035282  -0.001161  -0.090656  -0.198269  -0.000756  3.922996  -0.001
C  C59  1  0.12455281  0.89253080  0.24416329  1  0.03523  -0.001161  -0.090697  -0.198303  -0.000756  3.922901  -0.001
C  C60  1  0.82230006  0.14061976  0.82858673  1  0.426068  0.000892  0.081438  0.244798  0.00049  4.084549  0.001
C  C61  1  0.17771024  0.85937534  0.17141542  1  0.426431  0.000893  0.08144  0.244668  0.00049  4.084418  0.001
C  C62  1  0.94751072  0.21620545  0.88239978  1  -0.019562  0.00068  -0.102306  -0.235826  0.000578  3.960167  0.001
C  C63  1  0.05250029  0.78378537  0.11760118  1  -0.019935  0.00068  -0.102238  -0.235551  0.000577  3.959957  0.001
C  C64  1  0.26019846  0.34368494  0.91681152  1  1.555009  -0.001106  0.214595  0.574106  0.001158  4.155205  -0.004
C  C65  1  0.73980812  0.65631615  0.08318931  1  1.55516  -0.001107  0.214502  0.574002  0.001158  4.155014  -0.004
C  C66  1  0.10903874  0.11820861  0.65773903  1  1.543996  0.000395  0.209746  0.565081  0.001516  4.186565  -0.001
C  C67  1  0.89096785  0.88179248  0.34226120  1  1.544204  0.000395  0.209791  0.565179  0.001515  4.186731  -0.001
C  C68  1  0.58257575  0.12931945  0.91282384  1  0.369305  -4.6e-05  -0.14212  -0.172141  -2.7e-05  3.883617  0.0
C  C69  1  0.41745233  0.87068164  0.08718743  1  0.370136  -4.6e-05  -0.142159  -0.172074  -2.7e-05  3.883682  0.0
C  C70  1  0.38786002  0.74003643  0.85064045  1  0.044492  0.01576  -0.016817  -0.005489  0.011  3.987869  0.012
C  C71  1  0.61213862  0.25996979  0.14935829  1  0.044284  0.01576  -0.016892  -0.00548  0.011001  3.987733  0.012
C  C72  1  0.47420267  0.76927156  0.78021055  1  -0.054247  -0.001216  -0.087076  -0.13518  -0.00079  3.94668  -0.001
C  C73  1  0.52577859  0.23073037  0.21979047  1  -0.054139  -0.001216  -0.087135  -0.135297  -0.00079  3.946343  -0.001
C  C74  1  0.42447746  0.84738025  0.72905928  1  -0.047781  -0.007911  -0.019524  -0.021604  -0.005894  3.999888  -0.006
C  C75  1  0.57550192  0.15261740  0.27094105  1  -0.047738  -0.007913  -0.019672  -0.02179  -0.005895  3.999903  -0.006
C  C76  1  0.29078562  0.89610631  0.74870747  1  0.021193  -0.001565  -0.089525  -0.198754  -0.001187  3.934027  -0.001
C  C77  1  0.70918738  0.10389134  0.25129141  1  0.021346  -0.001564  -0.089446  -0.198684  -0.001186  3.93404  -0.001
C  C78  1  0.20002809  0.86373418  0.81798268  1  0.473427  0.000855  0.079492  0.243863  0.000567  4.086103  0.001
C  C79  1  0.79995284  0.13625834  0.18201829  1  0.472871  0.000855  0.079563  0.243942  0.000567  4.08589  0.001
C  C80  1  0.24985604  0.78644840  0.86952449  1  -0.089398  0.000774  -0.102734  -0.239572  0.000621  3.976845  0.001
C  C81  1  0.75013394  0.21355610  0.13048048  1  -0.089105  0.000774  -0.102803  -0.239781  0.000621  3.976984  0.001
C  C82  1  0.43514858  0.65406479  0.90505078  1  1.552681  -0.002156  0.214998  0.576205  0.000368  4.144358  -0.005
C  C83  1  0.56485694  0.34594229  0.09494584  1  1.552844  -0.002156  0.21509  0.576324  0.000367  4.144151  -0.005
C  C84  1  0.50572375  0.87347290  0.64996610  1  1.537025  -0.000679  0.211178  0.574099  -0.001995  4.175638  0.001
C  C85  1  0.49425953  0.12653075  0.35003561  1  1.536738  -0.000679  0.211221  0.574153  -0.001994  4.175415  0.001
C  C86  1  0.95164467  0.86805305  0.89310634  1  0.358627  -2.3e-05  -0.139056  -0.169554  -1.8e-05  3.884293  0.0
C  C87  1  0.04834866  0.13194204  0.10690411  1  0.358006  -2.3e-05  -0.139051  -0.169556  -1.9e-05  3.884388  0.0
C  C88  1  0.23866096  0.58438627  0.20115105  1  0.956748  -0.000626  0.162759  0.086517  -0.000452  3.893624  0.0
C  C89  1  0.76134428  0.41561739  0.79884674  1  0.956477  -0.000626  0.162662  0.086344  -0.000452  3.893465  0.0
C  C90  1  0.01848761  0.48923514  0.12326246  1  0.983468  -0.000376  0.142739  0.146884  -0.000284  3.974201  0.0
C  C91  1  0.98152188  0.51076938  0.87673491  1  0.983555  -0.000376  0.142767  0.146841  -0.000284  3.974385  0.0
C  C92  1  0.06368100  0.59248091  0.32171497  1  0.287527  4.9e-05  -0.041635  -0.087914  1.6e-05  3.895236  0.0
C  C93  1  0.93631813  0.40751504  0.67828674  1  0.28769  4.9e-05  -0.041561  -0.087675  1.6e-05  3.894981  0.0
C  C94  1  0.06897801  0.49412958  0.37679544  1  -0.002825  5.1e-05  -0.15756  -0.191978  4.1e-05  3.944786  0.0
C  C95  1  0.93101247  0.50586380  0.62319993  1  -0.003128  5.1e-05  -0.157559  -0.192111  4.1e-05  3.944728  0.0
C  C96  1  0.92962456  0.38228377  0.34947586  1  0.351784  0.00078  -0.044873  -0.095772  0.000612  3.896307  0.001
C  C97  1  0.07036659  0.61771390  0.65051776  1  0.351741  0.00078  -0.044843  -0.095955  0.000612  3.896286  0.001
C  C98  1  0.86578246  0.20455761  0.51441075  1  0.949292  -0.000169  0.143346  0.114061  0.000416  4.040136  0.0
C  C99  1  0.13421233  0.79544262  0.48558541  1  0.949321  -0.00017  0.143345  0.114113  0.000416  4.040214  0.0
C  C100  1  0.99466164  0.20544474  0.40546239  1  0.989905  -0.000898  0.177596  0.109324  -0.000141  3.83504  0.0
C  C101  1  0.00532238  0.79455121  0.59452974  1  0.989498  -0.000897  0.177646  0.10922  -0.000141  3.835452  0.0
N  N102  1  0.19898699  0.53698285  0.12743494  1  -1.181709  -0.00134  -0.361231  -0.323472  -0.000251  3.51284  0.0
N  N103  1  0.80102246  0.46302166  0.87256362  1  -1.181513  -0.00134  -0.361212  -0.323393  -0.000251  3.512646  0.0
N  N104  1  0.08686313  0.56594099  0.23889540  1  -0.835144  -0.000103  -0.140061  0.153002  -5.4e-05  3.758962  0.0
N  N105  1  0.91314552  0.43406182  0.76110432  1  -0.835271  -0.000103  -0.140124  0.152901  -5.4e-05  3.759333  0.0
N  N106  1  0.94428331  0.50451138  0.19005106  1  -0.693841  4.1e-05  -0.225609  -0.267316  6e-06  3.109364  0.0
N  N107  1  0.05572465  0.49548971  0.80994684  1  -0.693779  4.1e-05  -0.225569  -0.267263  6e-06  3.109669  0.0
N  N108  1  0.92501039  0.29416799  0.40803025  1  -0.826014  0.002502  -0.129324  0.173803  0.001608  3.732293  0.002
N  N109  1  0.07497451  0.70582710  0.59196251  1  -0.825919  0.002502  -0.129367  0.173868  0.001608  3.732416  0.002
N  N110  1  0.84284998  0.29544637  0.47714066  1  -0.672036  0.006711  -0.219742  -0.252554  0.004355  3.093225  0.005
N  N111  1  0.15714652  0.70455472  0.52285379  1  -0.672011  0.006711  -0.21971  -0.252541  0.004355  3.09322  0.005
N  N112  1  0.95883811  0.14705630  0.47249158  1  -1.190139  0.070328  -0.374896  -0.310559  0.047578  3.629098  0.061
N  N113  1  0.04115339  0.85294222  0.52750325  1  -1.189788  0.070325  -0.374914  -0.310493  0.047576  3.629358  0.061
O  O114  1  0.20641506  0.38320834  0.97833973  1  -1.117191  0.095588  -0.310888  -0.516324  0.061543  2.353325  0.086
O  O115  1  0.79359661  0.61680388  0.02165656  1  -1.117267  0.095593  -0.310832  -0.516264  0.061548  2.353353  0.086
O  O116  1  0.42037878  0.37277772  0.89597514  1  -1.111858  0.09717  -0.309369  -0.520377  0.062453  2.406566  0.088
O  O117  1  0.57962301  0.62722679  0.10402193  1  -1.111776  0.097166  -0.309328  -0.520366  0.062451  2.406373  0.088
O  O118  1  0.26158751  0.17272654  0.63680897  1  -1.169628  -0.00445  -0.317152  -0.524547  -0.00324  2.148778  -0.004
O  O119  1  0.73841810  0.82727798  0.36318944  1  -1.169466  -0.004448  -0.317173  -0.524601  -0.003238  2.148872  -0.004
O  O120  1  0.99254902  0.03754495  0.61655580  1  -1.127906  0.111014  -0.322725  -0.543211  0.071763  2.343509  0.101
O  O121  1  0.00746267  0.96245871  0.38344106  1  -1.128294  0.11103  -0.322716  -0.543215  0.071772  2.343634  0.101
O  O122  1  0.64571577  0.09576419  0.84066269  1  -1.070369  0.000556  -0.19085  -0.166345  0.000326  2.571279  0.0
O  O123  1  0.35430590  0.90423690  0.15934832  1  -1.070667  0.000556  -0.190843  -0.166285  0.000326  2.570986  0.0
O  O124  1  0.34605981  0.62800540  0.96692556  1  -1.124287  0.086119  -0.312496  -0.533848  0.05553  2.388673  0.079
O  O125  1  0.65395132  0.37199997  0.03307247  1  -1.124216  0.086108  -0.312529  -0.533858  0.055522  2.388417  0.079
O  O126  1  0.55929061  0.61246497  0.88586895  1  -1.098415  0.100547  -0.309173  -0.511079  0.064421  2.345124  0.091
O  O127  1  0.44071510  0.38753697  0.11413065  1  -1.098559  0.100542  -0.309149  -0.511116  0.064418  2.345136  0.091
O  O128  1  0.60355617  0.81522614  0.62595025  1  -1.170408  -0.000149  -0.318008  -0.535911  0.00029  2.160598  0.0
O  O129  1  0.39641521  0.18477066  0.37404737  1  -1.170291  -0.000149  -0.318052  -0.535869  0.000289  2.160583  0.0
O  O130  1  0.46264677  0.95465227  0.61136456  1  -1.120601  -0.101918  -0.334058  -0.557453  -0.068769  2.341917  -0.092
O  O131  1  0.53734374  0.04535309  0.38863565  1  -1.120362  -0.101929  -0.334009  -0.557482  -0.068777  2.342008  -0.092
O  O132  1  0.06350479  0.91034618  0.82921911  1  -1.07411  0.000514  -0.191059  -0.167298  0.000328  2.569633  0.0
O  O133  1  0.93647652  0.08964463  0.17078666  1  -1.073559  0.000514  -0.19102  -0.16727  0.000328  2.569672  0.0
O  O134  1  0.66811359  0.91103570  0.49224085  1  -1.249841  -0.079652  -0.589961  -0.824554  -0.054132  2.357499  -0.069
O  O135  1  0.33187694  0.08896966  0.50775876  1  -1.249768  -0.079656  -0.589945  -0.82456  -0.054136  2.357693  -0.069
