# generated using pymatgen
data_KH13C11S(NO3)2
_symmetry_space_group_name_H-M   'P 1'
_cell_length_a   5.47744574
_cell_length_b   7.75431462
_cell_length_c   16.88103923
_cell_angle_alpha   88.25120564
_cell_angle_beta   91.68807702
_cell_angle_gamma   105.44385142
_symmetry_Int_Tables_number   1
_chemical_formula_structural   KH13C11S(NO3)2
_chemical_formula_sum   'K2 H26 C22 S2 N4 O12'
_cell_volume   690.62166393
_cell_formula_units_Z   2
loop_
 _symmetry_equiv_pos_site_id
 _symmetry_equiv_pos_as_xyz
  1  'x, y, z'
loop_
 _atom_site_type_symbol
 _atom_site_label
 _atom_site_symmetry_multiplicity
 _atom_site_fract_x
 _atom_site_fract_y
 _atom_site_fract_z
 _atom_site_occupancy
 _atom_site_hle17_bader_spin_density
 _atom_site_hle17_ddec_charge
 _atom_site_hle17_ddec_spin_density
 _atom_site_hle17_ddec_sum_bond_order
 _atom_site_hle17_magmom
 _atom_site_hse06_10hf_bader_spin_density
 _atom_site_hse06_10hf_ddec_charge
 _atom_site_hse06_10hf_ddec_spin_density
 _atom_site_hse06_10hf_ddec_sum_bond_order
 _atom_site_hse06_10hf_magmom
 _atom_site_hse06_bader_spin_density
 _atom_site_hse06_ddec_charge
 _atom_site_hse06_ddec_spin_density
 _atom_site_hse06_ddec_sum_bond_order
 _atom_site_hse06_magmom
 _atom_site_pbe_bader_spin_density
 _atom_site_pbe_cm5_charge
 _atom_site_pbe_ddec_charge
 _atom_site_pbe_ddec_spin_density
 _atom_site_pbe_ddec_sum_bond_order
 _atom_site_pbe_magmom
K  K0  1  0.60864945  0.25306171  0.47966708  1  0  0.94051  0  0.481925  0  0  0.903401  0  0.664269  0  0  0.916489  0  0.641162  0  0  0.812912  0.893093  0  0.681352  0
K  K1  1  0.39133567  0.74693506  0.52032559  1  0  0.94054  0  0.481922  0  0  0.903386  0  0.664293  0  0  0.916462  0  0.641197  0  0  0.812877  0.893075  0  0.681374  0
H  H2  1  0.52776122  0.73551707  0.29231334  1  0  0.111494  0  0.93627  0  0  0.125345  0  0.990064  0  0  0.128407  0  0.988224  0  0  0.116842  0.123089  0  0.991511  0
H  H3  1  0.47224680  0.26449126  0.70768892  1  0  0.111533  0  0.936185  0  0  0.125395  0  0.989951  0  0  0.128463  0  0.988111  0  0  0.116867  0.123136  0  0.991397  0
H  H4  1  0.44845812  0.62702321  0.15369987  1  0  0.106371  0  0.966551  0  0  0.115444  0  1.029745  0  0  0.118243  0  1.029666  0  0  0.105085  0.113365  0  1.030103  0
H  H5  1  0.55154616  0.37296081  0.84630722  1  0  0.10632  0  0.966459  0  0  0.115363  0  1.029713  0  0  0.11816  0  1.02964  0  0  0.105083  0.113286  0  1.030067  0
H  H6  1  0.78779317  0.73545053  0.05368846  1  0  0.093521  0  0.94964  0  0  0.108272  0  1.002256  0  0  0.110357  0  1.001539  0  0  0.105725  0.106703  0  1.002876  0
H  H7  1  0.21220153  0.26452289  0.94631684  1  0  0.093544  0  0.949717  0  0  0.108349  0  1.002266  0  0  0.110436  0  1.001547  0  0  0.105749  0.106782  0  1.002892  0
H  H8  1  0.18937854  0.95567337  0.09165463  1  0  0.104567  0  0.971699  0  0  0.11112  0  1.038866  0  0  0.114177  0  1.037724  0  0  0.107977  0.108921  0  1.039782  0
H  H9  1  0.81060614  0.04431250  0.90834223  1  0  0.104541  0  0.971724  0  0  0.111075  0  1.038901  0  0  0.114131  0  1.037761  0  0  0.107968  0.108875  0  1.039819  0
H  H10  1  0.05499119  0.54981505  0.33088434  1  0  0.149063  0  0.953304  0  0  0.166053  0  1.012493  0  0  0.169854  0  1.00977  0  0  0.104312  0.163265  0  1.014544  0
H  H11  1  0.94500063  0.45019875  0.66911659  1  0  0.149085  0  0.953117  0  0  0.166015  0  1.012369  0  0  0.169815  0  1.009656  0  0  0.104313  0.163231  0  1.014426  0
H  H12  1  0.07830824  0.58572649  0.22504951  1  0  0.126087  0  0.979074  0  0  0.143746  0  1.045404  0  0  0.144677  0  1.047367  0  0  0.095444  0.143023  0  1.044157  0
H  H13  1  0.92168809  0.41427521  0.77495211  1  0  0.126126  0  0.979038  0  0  0.143778  0  1.045382  0  0  0.144717  0  1.047328  0  0  0.095454  0.143052  0  1.044137  0
H  H14  1  0.19159252  0.41445507  0.27053272  1  0  0.145928  0  0.937134  0  0  0.163513  0  1.00002  0  0  0.166067  0  0.998922  0  0  0.10492  0.16165  0  1.000893  0
H  H15  1  0.80840558  0.58555595  0.72947005  1  0  0.145926  0  0.937083  0  0  0.163518  0  0.999952  0  0  0.166073  0  0.998857  0  0  0.104924  0.161665  0  1.000808  0
H  H16  1  0.80754578  0.35988496  0.98707775  1  0  0.137564  0  0.965677  0  0  0.153545  0  1.030343  0  0  0.156661  0  1.028639  0  0  0.094614  0.15127  0  1.03161  0
H  H17  1  0.19249768  0.64007775  0.01292321  1  0  0.137583  0  0.965561  0  0  0.153499  0  1.030348  0  0  0.156612  0  1.028644  0  0  0.094608  0.15124  0  1.031595  0
H  H18  1  0.51525312  0.32385896  0.03909913  1  0  0.134304  0  0.952286  0  0  0.151139  0  1.016734  0  0  0.153723  0  1.014992  0  0  0.097834  0.149245  0  1.01805  0
H  H19  1  0.48478744  0.67610155  0.96089116  1  0  0.134171  0  0.952284  0  0  0.15103  0  1.016719  0  0  0.153612  0  1.014977  0  0  0.097753  0.149134  0  1.018032  0
H  H20  1  0.64336662  0.14188539  0.02455034  1  0  0.127632  0  0.94967  0  0  0.147501  0  1.013184  0  0  0.149437  0  1.012357  0  0  0.097043  0.146103  0  1.013815  0
H  H21  1  0.35669534  0.85808238  0.97545606  1  0  0.127615  0  0.949739  0  0  0.147507  0  1.013223  0  0  0.149441  0  1.012395  0  0  0.097087  0.146108  0  1.013848  0
H  H22  1  0.35855045  0.14115243  0.28838003  1  0  0.292179  0  0.94166  0  0  0.265155  0  1.014738  0  0  0.275295  0  1.005983  0  0  0.320545  0.257993  0  1.020982  0
H  H23  1  0.64141758  0.85887107  0.71161535  1  0  0.292199  0  0.941646  0  0  0.265191  0  1.0147  0  0  0.275328  0  1.00595  0  0  0.320546  0.258026  0  1.020953  0
H  H24  1  0.15840898  0.31990551  0.42958980  1  0  0.416873  0  0.892772  0  0  0.39031  0  0.950827  0  0  0.399542  0  0.937264  0  0  0.289  0.383832  0  0.960324  0
H  H25  1  0.84159274  0.68010573  0.57040766  1  0  0.41684  0  0.892804  0  0  0.390291  0  0.950827  0  0  0.399516  0  0.937274  0  0  0.289021  0.383812  0  0.960328  0
H  H26  1  0.12683805  0.34543347  0.51915084  1  0  0.405174  0  0.908451  0  0  0.377737  0  0.969046  0  0  0.387679  0  0.954198  0  0  0.285997  0.370695  0  0.979558  0
H  H27  1  0.87315929  0.65457109  0.48084663  1  0  0.405232  0  0.908362  0  0  0.377792  0  0.968965  0  0  0.387733  0  0.954118  0  0  0.285995  0.370752  0  0.979473  0
C  C28  1  0.90048330  0.90240163  0.26989572  1  0  -0.204339  0  3.668432  0  0  -0.181599  0  3.921958  0  0  -0.192192  0  3.943947  0  0  -0.016681  -0.174713  0  3.907195  0
C  C29  1  0.09950042  0.09761493  0.73010396  1  0  -0.204198  0  3.668246  0  0  -0.181563  0  3.921904  0  0  -0.19216  0  3.943906  0  0  -0.016711  -0.174676  0  3.907139  0
C  C30  1  0.67109242  0.78231367  0.24750023  1  0  -0.039556  0  3.73261  0  0  -0.068881  0  3.987922  0  0  -0.066476  0  4.008445  0  0  -0.080493  -0.070158  0  3.973868  0
C  C31  1  0.32889583  0.21769067  0.75250309  1  0  -0.039678  0  3.732569  0  0  -0.068953  0  3.987849  0  0  -0.066557  0  4.008384  0  0  -0.080464  -0.070223  0  3.973787  0
C  C32  1  0.62657118  0.72254249  0.17005109  1  0  -0.079199  0  3.72909  0  0  -0.09793  0  3.988933  0  0  -0.104503  0  4.013414  0  0  -0.092409  -0.093581  0  3.972387  0
C  C33  1  0.37342784  0.27744699  0.82995416  1  0  -0.078987  0  3.729081  0  0  -0.097693  0  3.988914  0  0  -0.10427  0  4.013408  0  0  -0.092359  -0.093346  0  3.972372  0
C  C34  1  0.81562221  0.78397155  0.11409131  1  0  -0.041352  0  3.760384  0  0  -0.05248  0  4.004788  0  0  -0.051867  0  4.027629  0  0  -0.083152  -0.052549  0  3.989079  0
C  C35  1  0.18437760  0.21601540  0.88591040  1  0  -0.041593  0  3.76081  0  0  -0.052771  0  4.005204  0  0  -0.052162  0  4.028056  0  0  -0.083287  -0.052846  0  3.989504  0
C  C36  1  0.04211482  0.90601389  0.13482199  1  0  -0.151341  0  3.729866  0  0  -0.171855  0  3.985869  0  0  -0.179038  0  4.008373  0  0  -0.090089  -0.167161  0  3.970661  0
C  C37  1  0.95787578  0.09398271  0.86517428  1  0  -0.151301  0  3.729854  0  0  -0.171786  0  3.985871  0  0  -0.178972  0  4.008384  0  0  -0.090037  -0.167082  0  3.970656  0
C  C38  1  0.08841829  0.96816497  0.21264261  1  0  0.209079  0  3.753824  0  0  0.187869  0  4.010842  0  0  0.197372  0  4.033448  0  0  0.106515  0.181746  0  3.995457  0
C  C39  1  0.91155503  0.03184385  0.78735110  1  0  0.209171  0  3.753833  0  0  0.18798  0  4.010887  0  0  0.197485  0  4.033494  0  0  0.106505  0.181855  0  3.995501  0
C  C40  1  0.04351920  0.48557482  0.27356638  1  0  -0.432388  0  3.671086  0  0  -0.512785  0  3.907186  0  0  -0.518449  0  3.909115  0  0  -0.249591  -0.508606  0  3.90586  0
C  C41  1  0.95647708  0.51443619  0.72643697  1  0  -0.432458  0  3.670919  0  0  -0.512787  0  3.907144  0  0  -0.518437  0  3.909041  0  0  -0.249606  -0.508619  0  3.905837  0
C  C42  1  0.78786174  0.35664407  0.26381430  1  0  0.497471  0  3.677205  0  0  0.479966  0  3.953012  0  0  0.50439  0  3.953451  0  0  0.159548  0.46334  0  3.952565  0
C  C43  1  0.21212599  0.64335898  0.73618783  1  0  0.49739  0  3.677366  0  0  0.479769  0  3.95339  0  0  0.504186  0  3.953849  0  0  0.159383  0.463142  0  3.952943  0
C  C44  1  0.69868266  0.27523857  0.18691024  1  0  -0.12778  0  3.669061  0  0  -0.126762  0  3.934348  0  0  -0.139588  0  3.9525  0  0  0.082212  -0.118301  0  3.922127  0
C  C45  1  0.30131811  0.72476049  0.81309023  1  0  -0.127663  0  3.668879  0  0  -0.126701  0  3.93426  0  0  -0.139525  0  3.952411  0  0  0.082263  -0.118242  0  3.922043  0
C  C46  1  0.84359807  0.32338935  0.11278351  1  0  0.477782  0  3.708617  0  0  0.464335  0  3.978564  0  0  0.485835  0  3.984342  0  0  0.157817  0.449722  0  3.974354  0
C  C47  1  0.15642208  0.67659352  0.88721778  1  0  0.477799  0  3.708288  0  0  0.464461  0  3.978121  0  0  0.485965  0  3.983889  0  0  0.157854  0.449843  0  3.973923  0
C  C48  1  0.69400692  0.28617585  0.03566148  1  0  -0.435952  0  3.692644  0  0  -0.520027  0  3.932565  0  0  -0.525168  0  3.935663  0  0  -0.25072  -0.516157  0  3.930301  0
C  C49  1  0.30602918  0.71379634  0.96433761  1  0  -0.435836  0  3.692638  0  0  -0.519917  0  3.932522  0  0  -0.525083  0  3.935689  0  0  -0.250723  -0.516067  0  3.930252  0
S  S50  1  0.94680514  0.94958942  0.37308012  1  0  1.338265  0  5.647171  0  0  1.23762  0  6.175051  0  0  1.286631  0  6.14848  0  0  0.522704  1.203697  0  6.192462  0
S  S51  1  0.05318478  0.05043390  0.62691780  1  0  1.337919  0  5.647991  0  0  1.237361  0  6.175865  0  0  1.28636  0  6.149306  0  0  0.522623  1.203439  0  6.193267  0
N  N52  1  0.31869125  0.09347150  0.23134545  1  0  -0.182695  0  3.447375  0  0  -0.124876  0  3.690519  0  0  -0.144831  0  3.706984  0  0  -0.242506  -0.111791  0  3.679354  0
N  N53  1  0.68129741  0.90654388  0.76865012  1  0  -0.18284  0  3.447536  0  0  -0.125038  0  3.690686  0  0  -0.144987  0  3.70714  0  0  -0.242478  -0.111955  0  3.679527  0
N  N54  1  0.47638831  0.15713395  0.17486264  1  0  -0.060479  0  3.143036  0  0  -0.052019  0  3.42088  0  0  -0.042869  0  3.435853  0  0  -0.155154  -0.05751  0  3.410435  0
N  N55  1  0.52361217  0.84286915  0.82513722  1  0  -0.060464  0  3.142806  0  0  -0.051955  0  3.420643  0  0  -0.042801  0  3.435608  0  0  -0.15517  -0.057444  0  3.410197  0
O  O56  1  0.64159898  0.31929736  0.32111514  1  0  -0.525058  0  1.952581  0  0  -0.484413  0  2.17548  0  0  -0.502268  0  2.16935  0  0  -0.331638  -0.472273  0  2.179719  0
O  O57  1  0.35837796  0.68072054  0.67888507  1  0  -0.524937  0  1.952821  0  0  -0.484217  0  2.175707  0  0  -0.502073  0  2.169585  0  0  -0.331421  -0.472071  0  2.179941  0
O  O58  1  0.07534399  0.39232674  0.11332617  1  0  -0.488643  0  1.92065  0  0  -0.445031  0  2.12896  0  0  -0.463847  0  2.127097  0  0  -0.271172  -0.432151  0  2.130134  0
O  O59  1  0.92466522  0.60766510  0.88668566  1  0  -0.488682  0  1.92031  0  0  -0.445151  0  2.128646  0  0  -0.463968  0  2.126778  0  0  -0.271228  -0.432263  0  2.129813  0
O  O60  1  0.04808082  0.80511676  0.40748360  1  0  -0.705094  0  1.995867  0  0  -0.649608  0  2.244497  0  0  -0.671689  0  2.228944  0  0  -0.38385  -0.633789  0  2.254734  0
O  O61  1  0.95191430  0.19491046  0.59251670  1  0  -0.704863  0  1.996148  0  0  -0.649386  0  2.244717  0  0  -0.671472  0  2.229183  0  0  -0.383736  -0.633566  0  2.25495  0
O  O62  1  0.69991570  0.94874670  0.40430219  1  0  -0.724321  0  1.967483  0  0  -0.686129  0  2.231234  0  0  -0.706108  0  2.215947  0  0  -0.430686  -0.671735  0  2.241207  0
O  O63  1  0.30007059  0.05127656  0.59569747  1  0  -0.724257  0  1.96751  0  0  -0.686089  0  2.231266  0  0  -0.706079  0  2.21601  0  0  -0.430641  -0.671696  0  2.24124  0
O  O64  1  0.13467077  0.12525249  0.37731914  1  0  -0.705361  0  2.04981  0  0  -0.647517  0  2.30345  0  0  -0.668117  0  2.287282  0  0  -0.349575  -0.632874  0  2.314171  0
O  O65  1  0.86531806  0.87477766  0.62267576  1  0  -0.705279  0  2.050202  0  0  -0.647467  0  2.303735  0  0  -0.668039  0  2.287559  0  0  -0.349606  -0.632826  0  2.314461  0
O  O66  1  0.19905155  0.41146648  0.47064857  1  0  -0.910407  0  1.797293  0  0  -0.870231  0  1.956319  0  0  -0.887879  0  1.927885  0  0  -0.739378  -0.857475  0  1.976186  0
O  O67  1  0.80095856  0.58853795  0.52935076  1  0  -0.9104  0  1.797255  0  0  -0.870212  0  1.956273  0  0  -0.887856  0  1.927851  0  0  -0.73936  -0.857462  0  1.976142  0
