# generated using pymatgen
data_MnH13C19NO6
_symmetry_space_group_name_H-M   'P 1'
_cell_length_a   7.66183769
_cell_length_b   9.91513704
_cell_length_c   12.11143454
_cell_angle_alpha   107.27389509
_cell_angle_beta   96.43426817
_cell_angle_gamma   108.42251477
_symmetry_Int_Tables_number   1
_chemical_formula_structural   MnH13C19NO6
_chemical_formula_sum   'Mn2 H26 C38 N2 O12'
_cell_volume   811.74459976
_cell_formula_units_Z   2
loop_
 _symmetry_equiv_pos_site_id
 _symmetry_equiv_pos_as_xyz
  1  'x, y, z'
loop_
 _atom_site_type_symbol
 _atom_site_label
 _atom_site_symmetry_multiplicity
 _atom_site_fract_x
 _atom_site_fract_y
 _atom_site_fract_z
 _atom_site_occupancy
 _atom_site_hle17_ddec_charge
 _atom_site_hle17_ddec_spin_density
 _atom_site_hle17_ddec_sum_bond_order
 _atom_site_hle17_magmom
 _atom_site_hse06_10hf_ddec_charge
 _atom_site_hse06_10hf_ddec_spin_density
 _atom_site_hse06_10hf_ddec_sum_bond_order
 _atom_site_hse06_10hf_magmom
 _atom_site_hse06_ddec_charge
 _atom_site_hse06_ddec_spin_density
 _atom_site_hse06_ddec_sum_bond_order
 _atom_site_hse06_magmom
 _atom_site_pbe_cm5_charge
 _atom_site_pbe_ddec_charge
 _atom_site_pbe_ddec_spin_density
 _atom_site_pbe_ddec_sum_bond_order
 _atom_site_pbe_magmom
Mn  Mn0  1  0.19601870  0.40962586  0.04624638  1  1.167714  -4.795996  1.732962  -4.656  1.005485  -4.720572  2.231165  -4.509  1.06748  -4.768611  2.157645  -4.58  0.613104  0.957095  -4.668444  2.287463  -4.436
Mn  Mn1  1  0.80399998  0.59037925  0.95375176  1  1.167693  -4.796011  1.733046  -4.656  1.005427  -4.720598  2.231285  -4.509  1.067428  -4.768641  2.157755  -4.58  0.613091  0.957008  -4.668461  2.287646  -4.435
H  H2  1  0.45561061  0.59656374  0.25176817  1  0.396108  0.000316  0.864717  0.0  0.37591  -0.000483  0.92824  -0.001  0.383185  -0.000187  0.920506  -0.001  0.308428  0.370762  -0.000763  0.933687  -0.001
H  H3  1  0.54438756  0.40341277  0.74823381  1  0.396107  0.000315  0.864757  0.0  0.37595  -0.000482  0.928196  -0.001  0.383223  -0.000187  0.920471  -0.001  0.308508  0.370805  -0.000762  0.933633  -0.001
H  H4  1  0.57433624  0.60925831  0.15598692  1  0.440741  0.000386  0.860584  0.0  0.408054  -0.000258  0.927772  -0.001  0.41867  1.7e-05  0.91228  -0.001  0.300384  0.400616  -0.000554  0.938652  -0.001
H  H5  1  0.42566756  0.39075355  0.84401966  1  0.440822  0.000384  0.860458  0.0  0.408131  -0.000258  0.927661  -0.001  0.418746  1.7e-05  0.912169  -0.001  0.300413  0.400693  -0.000554  0.938541  -0.001
H  H6  1  0.18321172  0.94960704  0.02389768  1  0.111569  0.00062  0.955076  0.0  0.117239  0.000534  1.025105  0.0  0.121332  0.000595  1.021555  0.0  0.108686  0.114201  0.000472  1.027784  0.0
H  H7  1  0.81679022  0.05039230  0.97610552  1  0.11158  0.00063  0.955078  0.0  0.11726  0.000534  1.025101  0.0  0.121355  0.000594  1.021549  0.0  0.108699  0.114219  0.000472  1.027786  0.0
H  H8  1  0.38854739  0.63671115  0.79754155  1  0.136154  0.000725  0.955189  0.0  0.142395  0.000579  1.022122  0.0  0.146933  0.000637  1.017982  0.0  0.111525  0.139099  0.000455  1.024934  0.0
H  H9  1  0.61145623  0.36329509  0.20245942  1  0.136182  0.000726  0.955199  0.0  0.142427  0.000579  1.022108  0.0  0.146966  0.000637  1.017966  0.0  0.111535  0.139147  0.000454  1.024898  0.0
H  H10  1  0.39173542  0.04036283  0.72798589  1  0.117874  0.000271  0.94768  0.0  0.125873  1.7e-05  1.012569  0.0  0.129395  6.6e-05  1.010448  0.0  0.107244  0.123085  -1.9e-05  1.014576  0.0
H  H11  1  0.60821410  0.95962671  0.27199966  1  0.117866  0.000264  0.947711  0.0  0.125934  1.7e-05  1.012515  0.0  0.129457  6.7e-05  1.010393  0.0  0.107245  0.12314  -1.9e-05  1.014528  0.0
H  H12  1  0.46876562  0.69329994  0.43210110  1  0.096617  9.2e-05  0.968783  0.0  0.107747  4.9e-05  1.030379  0.0  0.111055  7.9e-05  1.02911  0.0  0.098718  0.105374  1.1e-05  1.031495  0.0
H  H13  1  0.53122398  0.30671110  0.56789049  1  0.09663  8.4e-05  0.968823  0.0  0.107742  4.9e-05  1.030429  0.0  0.111048  7.9e-05  1.029164  0.0  0.098743  0.105371  1.1e-05  1.031538  0.0
H  H14  1  0.74507868  0.80045681  0.35237684  1  0.092231  9.7e-05  0.994521  0.0  0.101357  -2.9e-05  1.060468  0.0  0.104999  4.7e-05  1.057281  0.0  0.099315  0.098628  -0.000117  1.062768  0.0
H  H15  1  0.25493082  0.19953557  0.64763070  1  0.092177  9.4e-05  0.994547  0.0  0.101333  -2.9e-05  1.060478  0.0  0.10498  4.7e-05  1.057285  0.0  0.099318  0.098607  -0.000118  1.062779  0.0
H  H16  1  0.03191271  0.12101304  0.70660950  1  0.102351  0.000269  0.994429  0.0  0.112647  0.000319  1.054148  0.0  0.115553  0.000318  1.052884  0.0  0.100369  0.110353  0.000313  1.05545  0.0
H  H17  1  0.96808778  0.87895652  0.29339656  1  0.102462  0.000269  0.994475  0.0  0.11272  0.000319  1.054227  0.0  0.115632  0.000318  1.052957  0.0  0.100394  0.110435  0.000313  1.055512  0.0
H  H18  1  0.75618425  0.02061010  0.78067235  1  0.115823  0.000225  0.960858  0.0  0.125407  0.000225  1.023293  0.0  0.128624  0.000245  1.022066  0.0  0.104251  0.12299  0.000199  1.024418  0.0
H  H19  1  0.24377858  0.97939992  0.21931678  1  0.115734  0.000213  0.960723  0.0  0.125351  0.000225  1.023147  0.0  0.128568  0.000246  1.02192  0.0  0.104185  0.122934  0.000199  1.024275  0.0
H  H20  1  0.16594324  0.26073819  0.22931551  1  0.092913  -0.000229  0.931134  0.0  0.101423  -0.000653  0.993407  -0.001  0.103892  -0.00048  0.991617  -0.001  0.123797  0.099391  -0.000814  0.995196  -0.001
H  H21  1  0.83411749  0.73929303  0.77068666  1  0.092722  -0.000213  0.93138  0.0  0.101284  -0.000653  0.993621  -0.001  0.103752  -0.00048  0.991829  -0.001  0.123768  0.099253  -0.000814  0.995408  -0.001
H  H22  1  0.08596379  0.28442343  0.42402642  1  0.101775  -0.000179  0.989921  0.0  0.110522  -0.000205  1.053737  0.0  0.112364  -0.000152  1.055433  0.0  0.10553  0.10912  -0.000251  1.052781  0.0
H  H23  1  0.91410864  0.71560425  0.57597956  1  0.101668  -0.000192  0.990046  0.0  0.110348  -0.000205  1.053944  0.0  0.112201  -0.000151  1.05563  0.0  0.10539  0.108938  -0.000251  1.05301  0.0
H  H24  1  0.98523787  0.69061738  0.42156470  1  0.103358  -0.000217  0.980971  0.0  0.113129  -0.000222  1.042871  0.0  0.115417  -0.000164  1.043383  0.0  0.106701  0.111415  -0.000281  1.042982  0.0
H  H25  1  0.01472476  0.30936072  0.57841935  1  0.103368  -0.000215  0.980799  0.0  0.113117  -0.000222  1.042763  0.0  0.11541  -0.000164  1.043263  0.0  0.106705  0.111394  -0.000281  1.0429  0.0
H  H26  1  0.06660291  0.64625713  0.22473862  1  0.09494  -6.1e-05  0.954101  0.0  0.101327  -0.000669  1.020968  -0.001  0.104063  -0.000405  1.018571  -0.001  0.122482  0.099144  -0.000914  1.023173  -0.001
H  H27  1  0.93334761  0.35372332  0.77524378  1  0.095022  -5.6e-05  0.954041  0.0  0.101327  -0.00067  1.02097  -0.001  0.104062  -0.000406  1.018559  -0.001  0.122505  0.099149  -0.000914  1.023173  -0.001
C  C28  1  0.26318129  0.16010480  0.92305936  1  0.660715  -0.005689  3.877774  -0.004  0.610924  -0.010179  4.162507  -0.007  0.645497  -0.008311  4.156896  -0.006  0.220865  0.58736  -0.012135  4.164671  -0.009
C  C29  1  0.73680878  0.83989894  0.07695512  1  0.660693  -0.005681  3.877779  -0.004  0.610911  -0.010182  4.16247  -0.007  0.645483  -0.00831  4.156858  -0.006  0.220866  0.58735  -0.012137  4.164634  -0.009
C  C30  1  0.29345071  0.01313277  0.88384919  1  -0.055709  0.00463  3.779778  0.003  -0.029653  0.003291  4.016025  0.002  -0.03893  0.003996  4.040401  0.003  -0.017307  -0.023861  0.002852  3.999849  0.002
C  C31  1  0.70655088  0.98687459  0.11615362  1  -0.05567  0.004729  3.779817  0.003  -0.029567  0.00331  4.015997  0.002  -0.038846  0.003961  4.040379  0.003  -0.0173  -0.023781  0.00285  3.999825  0.002
C  C32  1  0.24713722  0.91759482  0.94946995  1  -0.072838  -0.003958  3.70344  -0.004  -0.11571  -0.004214  3.960242  -0.004  -0.113055  -0.003604  3.979564  -0.003  -0.076697  -0.117889  -0.006465  3.948432  -0.005
C  C33  1  0.75286470  0.08241023  0.05053392  1  -0.072726  -0.004059  3.703648  -0.004  -0.115622  -0.004233  3.960432  -0.004  -0.112965  -0.003563  3.979756  -0.003  -0.076661  -0.117806  -0.006462  3.94863  -0.005
C  C34  1  0.28034217  0.78215730  0.91853726  1  -0.061608  0.004771  3.785392  0.003  -0.034355  0.00348  4.022492  0.002  -0.04453  0.004232  4.046781  0.003  -0.016766  -0.027989  0.00276  4.00716  0.002
C  C35  1  0.71965332  0.21784556  0.08146240  1  -0.061822  0.00487  3.785663  0.003  -0.03456  0.003498  4.022814  0.002  -0.044737  0.004195  4.047108  0.003  -0.016827  -0.028194  0.002759  4.007481  0.002
C  C36  1  0.35935623  0.74109433  0.82080742  1  -0.140221  -0.004834  3.657842  -0.005  -0.182214  -0.005099  3.916039  -0.005  -0.1805  -0.004237  3.932052  -0.004  -0.082452  -0.182584  -0.005929  3.904844  -0.005
C  C37  1  0.64063438  0.25890976  0.17918818  1  -0.140344  -0.00491  3.657786  -0.005  -0.182351  -0.005101  3.916101  -0.005  -0.180627  -0.004228  3.932093  -0.004  -0.082479  -0.182742  -0.005929  3.904891  -0.005
C  C38  1  0.39448348  0.83271307  0.75180073  1  0.258808  0.003557  3.784769  0.003  0.254335  0.001714  4.052401  0.001  0.261051  0.002332  4.068401  0.002  0.082759  0.249374  0.001626  4.041307  0.001
C  C39  1  0.60549534  0.16727968  0.24819212  1  0.259121  0.003651  3.784382  0.003  0.254528  0.001706  4.052144  0.001  0.261266  0.002325  4.068138  0.002  0.082703  0.249569  0.001625  4.041046  0.001
C  C40  1  0.36411775  0.96944737  0.78248023  1  -0.158442  -0.005358  3.683696  -0.005  -0.194408  -0.005966  3.936706  -0.005  -0.194283  -0.004937  3.954279  -0.004  -0.085408  -0.193722  -0.00732  3.924547  -0.006
C  C41  1  0.63585804  0.03054989  0.21751613  1  -0.158565  -0.005418  3.683683  -0.005  -0.194588  -0.005965  3.936729  -0.005  -0.194473  -0.004924  3.954314  -0.004  -0.085488  -0.193907  -0.007317  3.924577  -0.006
C  C42  1  0.22083655  0.67583009  0.98443334  1  0.656946  -0.017338  3.880629  -0.015  0.600729  -0.02743  4.175176  -0.023  0.63794  -0.020861  4.167882  -0.018  0.222289  0.574017  -0.035256  4.179515  -0.029
C  C43  1  0.77916547  0.32417845  0.01556731  1  0.657098  -0.01733  3.88066  -0.015  0.600782  -0.027428  4.175305  -0.023  0.637993  -0.020849  4.168011  -0.018  0.222315  0.574077  -0.03525  4.179633  -0.029
C  C44  1  0.59472482  0.84832657  0.61009057  1  0.277841  0.000136  3.809527  0.0  0.268566  4.4e-05  4.0688  0.0  0.28001  4.9e-05  4.083938  0.0  0.082457  0.260875  1e-06  4.058308  0.0
C  C45  1  0.40525585  0.15165592  0.38990051  1  0.278018  0.000128  3.809787  0.0  0.268663  4.3e-05  4.069155  0.0  0.280131  5.1e-05  4.084291  0.0  0.082454  0.260957  1e-06  4.058673  0.0
C  C46  1  0.59432929  0.78895522  0.48964408  1  -0.183462  -7e-05  3.773213  0.0  -0.203936  -0.000138  4.026109  0.0  -0.20843  -6.9e-05  4.044418  0.0  -0.108577  -0.201302  -0.000216  4.013846  0.0
C  C47  1  0.40566756  0.21104192  0.51035580  1  -0.183467  -3.2e-05  3.773372  0.0  -0.203937  -0.000136  4.026332  0.0  -0.208426  -7.1e-05  4.04463  0.0  -0.108519  -0.201302  -0.000216  4.014072  0.0
C  C48  1  0.75079880  0.84903270  0.44673508  1  -0.113417  -3.6e-05  3.780338  0.0  -0.132881  -0.000284  4.031826  0.0  -0.133149  -0.000196  4.050281  0.0  -0.099096  -0.13221  -0.000372  4.019184  0.0
C  C49  1  0.24920828  0.15095744  0.55327010  1  -0.113295  -7.4e-05  3.780544  0.0  -0.132795  -0.000286  4.031987  0.0  -0.133065  -0.000194  4.050449  0.0  -0.099124  -0.132131  -0.000372  4.019354  0.0
C  C50  1  0.91498266  0.96982805  0.52246562  1  0.019509  -5.5e-05  3.789263  0.0  0.032401  -5.8e-05  4.026831  0.0  0.031351  -4.9e-05  4.051023  0.0  -0.025174  0.032869  -8.2e-05  4.011189  0.0
C  C51  1  0.08503101  0.03014712  0.47754423  1  0.019159  -2.7e-05  3.789243  0.0  0.032111  -5.8e-05  4.02678  0.0  0.031047  -4.9e-05  4.050987  0.0  -0.025195  0.032587  -8.2e-05  4.01114  0.0
C  C52  1  0.90954001  0.02908437  0.64271980  1  -0.089624  3.5e-05  3.724697  0.0  -0.109087  -1e-06  3.972778  0.0  -0.1101  3.5e-05  3.994101  0.0  -0.092254  -0.108509  -3.4e-05  3.959104  0.0
C  C53  1  0.09045820  0.97089213  0.35728300  1  -0.089461  3.1e-05  3.724559  0.0  -0.108902  -2e-06  3.97262  0.0  -0.109897  3.5e-05  3.993914  0.0  -0.092174  -0.108334  -3.4e-05  3.958938  0.0
C  C54  1  0.75265705  0.97097677  0.68678072  1  -0.193426  8.3e-05  3.748604  0.0  -0.210868  7.9e-05  3.997289  0.0  -0.216597  0.000121  4.017389  0.0  -0.10609  -0.20685  1e-05  3.984077  0.0
C  C55  1  0.24732899  0.02901348  0.31322176  1  -0.193346  0.000102  3.748573  0.0  -0.210806  8.1e-05  3.997286  0.0  -0.216537  0.00012  4.017386  0.0  -0.106016  -0.206786  1e-05  3.984073  0.0
C  C56  1  0.12453411  0.35415343  0.27558437  1  0.137469  -0.002989  3.692864  -0.003  0.107656  -0.005781  3.943664  -0.005  0.114545  -0.004835  3.962407  -0.004  0.055596  0.102589  -0.007146  3.931493  -0.005
C  C57  1  0.87551551  0.64587320  0.72442017  1  0.137909  -0.003188  3.692928  -0.003  0.108018  -0.00578  3.943735  -0.005  0.114909  -0.004837  3.962476  -0.004  0.055714  0.102947  -0.007147  3.931558  -0.005
C  C58  1  0.07901987  0.36880110  0.38505385  1  -0.143699  0.000695  3.678923  0.0  -0.16254  8e-06  3.925478  0.0  -0.169479  0.000819  3.946623  0.0  -0.075848  -0.157864  -0.000932  3.911405  -0.001
C  C59  1  0.92103941  0.63122095  0.61494915  1  -0.143717  0.000989  3.679103  0.0  -0.162556  3e-06  3.925789  0.0  -0.169505  0.000824  3.946926  0.0  -0.07578  -0.157875  -0.000933  3.911711  -0.001
C  C60  1  0.02558459  0.49036233  0.44190454  1  0.107003  -0.001867  3.719806  -0.002  0.114328  -0.003609  3.955393  -0.003  0.119691  -0.002937  3.972956  -0.002  0.018205  0.110615  -0.005209  3.943849  -0.004
C  C61  1  0.97443583  0.50964396  0.55809151  1  0.107048  -0.002043  3.719599  -0.002  0.114382  -0.003607  3.955203  -0.003  0.119743  -0.002939  3.972766  -0.002  0.018312  0.110663  -0.00521  3.943663  -0.004
C  C62  1  0.02292389  0.59262366  0.38321607  1  -0.134802  0.000598  3.67254  0.0  -0.15276  -0.000145  3.918143  -0.001  -0.15931  0.000592  3.937967  0.0  -0.072894  -0.148659  -0.00098  3.905492  -0.001
C  C63  1  0.97706673  0.40736904  0.61677738  1  -0.134512  0.000777  3.672356  0.0  -0.152528  -0.000148  3.917993  -0.001  -0.159077  0.000595  3.937819  0.0  -0.072812  -0.14843  -0.000979  3.905343  -0.001
C  C64  1  0.06913443  0.56989512  0.27329631  1  0.1189  -0.003145  3.704384  -0.003  0.088113  -0.005852  3.95861  -0.005  0.094739  -0.004766  3.97684  -0.004  0.050471  0.083306  -0.00732  3.946838  -0.006
C  C65  1  0.93085458  0.43010342  0.72669115  1  0.118564  -0.003291  3.704527  -0.003  0.087906  -0.00585  3.958679  -0.005  0.094538  -0.004768  3.976901  -0.004  0.05029  0.083098  -0.00732  3.946905  -0.006
N  N66  1  0.11890544  0.45216557  0.21960674  1  -0.366466  -0.030839  3.301437  -0.016  -0.290651  -0.034413  3.572276  -0.015  -0.312288  -0.030062  3.589446  -0.011  -0.33072  -0.275302  -0.039273  3.56082  -0.019
N  N67  1  0.88110306  0.54784651  0.78038692  1  -0.366627  -0.030687  3.301464  -0.016  -0.29074  -0.034415  3.57215  -0.015  -0.312379  -0.030059  3.589319  -0.011  -0.330689  -0.275382  -0.039273  3.560684  -0.019
O  O68  1  0.22337292  0.20153842  0.02478868  1  -0.632869  -0.03539  2.004624  -0.024  -0.56596  -0.037193  2.265206  -0.022  -0.598982  -0.032303  2.254476  -0.017  -0.314059  -0.540458  -0.042321  2.270893  -0.027
O  O69  1  0.77661969  0.79845043  0.97522699  1  -0.632769  -0.035398  2.004885  -0.024  -0.565817  -0.037195  2.265402  -0.022  -0.598841  -0.03231  2.254668  -0.017  -0.314005  -0.540311  -0.042327  2.271095  -0.027
O  O70  1  0.27527021  0.23870512  0.85613566  1  -0.663137  -0.010799  2.002248  -0.007  -0.600286  -0.018855  2.232895  -0.014  -0.626169  -0.015867  2.220403  -0.012  -0.311786  -0.581493  -0.021536  2.24167  -0.016
O  O71  1  0.72470193  0.76131558  0.14389144  1  -0.663196  -0.010788  2.002086  -0.007  -0.600384  -0.018841  2.232752  -0.014  -0.626264  -0.015857  2.220257  -0.012  -0.311804  -0.581597  -0.02152  2.241533  -0.016
O  O72  1  0.09611125  0.68689828  0.04531650  1  -0.671912  -0.032335  2.020738  -0.016  -0.609387  -0.04495  2.29765  -0.024  -0.639511  -0.039275  2.280898  -0.02  -0.314354  -0.585914  -0.04998  2.308454  -0.028
O  O73  1  0.90388676  0.31310462  0.95468083  1  -0.672007  -0.032336  2.020781  -0.016  -0.609406  -0.044939  2.297664  -0.024  -0.639528  -0.039276  2.280912  -0.02  -0.314355  -0.585929  -0.049972  2.308435  -0.028
O  O74  1  0.29257976  0.57399626  0.97308160  1  -0.622659  -0.039038  2.065653  -0.025  -0.547802  -0.045304  2.332234  -0.027  -0.579758  -0.038806  2.318114  -0.021  -0.303418  -0.524139  -0.051822  2.342397  -0.033
O  O75  1  0.70743345  0.42601899  0.02692552  1  -0.622642  -0.039023  2.065716  -0.025  -0.547704  -0.045296  2.332293  -0.027  -0.579665  -0.038797  2.318187  -0.021  -0.303388  -0.524038  -0.051814  2.342454  -0.033
O  O76  1  0.43914944  0.77173375  0.64428186  1  -0.299652  0.00015  2.357624  0.0  -0.231421  0.000117  2.580204  0.0  -0.249171  0.000155  2.582925  0.0  -0.156181  -0.218704  0.000165  2.577812  0.0
O  O77  1  0.56082249  0.22825564  0.35570810  1  -0.299958  0.000145  2.357713  0.0  -0.231594  0.000117  2.580273  0.0  -0.2494  0.000156  2.583026  0.0  -0.15616  -0.21887  0.000165  2.577877  0.0
O  O78  1  0.48054427  0.53477638  0.18108424  1  -0.803471  -0.027337  1.894526  -0.019  -0.751696  -0.0379  2.10034  -0.027  -0.773599  -0.033215  2.071895  -0.023  -0.55419  -0.734845  -0.042385  2.119729  -0.03
O  O79  1  0.51946401  0.46521734  0.81891286  1  -0.803465  -0.027323  1.894418  -0.019  -0.751749  -0.037893  2.10022  -0.027  -0.773651  -0.033209  2.071776  -0.023  -0.554283  -0.734912  -0.042377  2.119639  -0.03
