# generated using pymatgen
data_LiH16C10N
_symmetry_space_group_name_H-M   'P 1'
_cell_length_a   8.54931242
_cell_length_b   8.78083271
_cell_length_c   12.73736231
_cell_angle_alpha   90.00008031
_cell_angle_beta   89.99996043
_cell_angle_gamma   90.00004314
_symmetry_Int_Tables_number   1
_chemical_formula_structural   LiH16C10N
_chemical_formula_sum   'Li4 H64 C40 N4'
_cell_volume   956.19483600
_cell_formula_units_Z   4
loop_
 _symmetry_equiv_pos_site_id
 _symmetry_equiv_pos_as_xyz
  1  'x, y, z'
loop_
 _atom_site_type_symbol
 _atom_site_label
 _atom_site_symmetry_multiplicity
 _atom_site_fract_x
 _atom_site_fract_y
 _atom_site_fract_z
 _atom_site_occupancy
 _atom_site_pbe_bader_spin_density
 _atom_site_pbe_cm5_charge
 _atom_site_pbe_ddec_charge
 _atom_site_pbe_ddec_spin_density
 _atom_site_pbe_ddec_sum_bond_order
 _atom_site_pbe_magmom
Li  Li0  1  0.45776455  0.64147464  0.00031503  1  0  0.451861  0.721675  0  0.604656  0
Li  Li1  1  0.04223485  0.35852347  0.50031646  1  0  0.451851  0.721676  0  0.604659  0
Li  Li2  1  0.54223521  0.14147590  0.49968503  1  0  0.451849  0.721678  0  0.604655  0
Li  Li3  1  0.95776572  0.85852359  0.99968441  1  0  0.451852  0.721671  0  0.604659  0
H  H4  1  0.15231030  0.72058641  0.92048131  1  0  0.09664  0.091722  0  1.087081  0
H  H5  1  0.34768750  0.27941369  0.42048193  1  0  0.096657  0.09175  0  1.087028  0
H  H6  1  0.84769018  0.22058590  0.57951864  1  0  0.09664  0.091715  0  1.087078  0
H  H7  1  0.65231120  0.77941501  0.07951826  1  0  0.096655  0.091734  0  1.08704  0
H  H8  1  0.19410650  0.43001381  0.97737049  1  0  0.092186  0.103435  0  1.042706  0
H  H9  1  0.30589124  0.56998640  0.47737298  1  0  0.092182  0.103429  0  1.042713  0
H  H10  1  0.80589297  0.93001285  0.52262888  1  0  0.092178  0.103442  0  1.042702  0
H  H11  1  0.69410964  0.06998681  0.02262779  1  0  0.092182  0.103453  0  1.042683  0
H  H12  1  0.34885621  0.42611364  0.16221110  1  0  0.088745  0.102037  0  1.048239  0
H  H13  1  0.15114069  0.57388480  0.66221270  1  0  0.088745  0.102034  0  1.048258  0
H  H14  1  0.65114261  0.92611320  0.33778844  1  0  0.088749  0.102021  0  1.048199  0
H  H15  1  0.84886084  0.07388482  0.83778711  1  0  0.088734  0.102013  0  1.048274  0
H  H16  1  0.39305399  0.71579467  0.22332200  1  0  0.091646  0.112833  0  1.044492  0
H  H17  1  0.10694401  0.28420389  0.72332255  1  0  0.091672  0.112919  0  1.044494  0
H  H18  1  0.60694583  0.21579439  0.27667813  1  0  0.091653  0.112845  0  1.044493  0
H  H19  1  0.89305534  0.78420237  0.77667746  1  0  0.091663  0.112922  0  1.044521  0
H  H20  1  0.35724390  0.14301748  0.16325278  1  0  0.08638  0.116472  0  1.024118  0
H  H21  1  0.14275533  0.85698209  0.66325387  1  0  0.086392  0.116462  0  1.024113  0
H  H22  1  0.64275586  0.64301704  0.33674728  1  0  0.086385  0.116477  0  1.024116  0
H  H23  1  0.85724525  0.35698211  0.83674700  1  0  0.086398  0.116473  0  1.024105  0
H  H24  1  0.49056023  0.99239481  0.13937459  1  0  0.094465  0.137896  0  1.006836  0
H  H25  1  0.00943903  0.00760472  0.63937571  1  0  0.094451  0.137852  0  1.006837  0
H  H26  1  0.50943980  0.49239349  0.36062581  1  0  0.09447  0.137853  0  1.006847  0
H  H27  1  0.99056011  0.50760571  0.86062561  1  0  0.09447  0.137856  0  1.006873  0
H  H28  1  0.34681645  0.97288418  0.23847284  1  0  0.089065  0.12124  0  1.031361  0
H  H29  1  0.15318388  0.02711669  0.73847469  1  0  0.089055  0.121215  0  1.031379  0
H  H30  1  0.65318474  0.47288276  0.26152754  1  0  0.089064  0.121241  0  1.031373  0
H  H31  1  0.84681645  0.52711510  0.76152664  1  0  0.089058  0.121228  0  1.031372  0
H  H32  1  0.21546636  0.97610319  0.90923891  1  0  0.092547  0.105548  0  1.051176  0
H  H33  1  0.28453145  0.02389689  0.40923931  1  0  0.092544  0.105554  0  1.051155  0
H  H34  1  0.78453314  0.47610266  0.59076129  1  0  0.092551  0.105552  0  1.051184  0
H  H35  1  0.71546822  0.52389714  0.09076142  1  0  0.092538  0.105537  0  1.051177  0
H  H36  1  0.41619827  0.97767377  0.94675997  1  0  0.09415  0.131423  0  1.0335  0
H  H37  1  0.08379950  0.02232639  0.44676046  1  0  0.094135  0.131407  0  1.033479  0
H  H38  1  0.58380240  0.47767415  0.55324023  1  0  0.094159  0.131431  0  1.033483  0
H  H39  1  0.91619900  0.52232784  0.05323948  1  0  0.094147  0.131405  0  1.033496  0
H  H40  1  0.29849022  0.14050599  0.96861734  1  0  0.08855  0.122381  0  1.023756  0
H  H41  1  0.20150752  0.85949307  0.46861780  1  0  0.088564  0.122384  0  1.023699  0
H  H42  1  0.70151019  0.64050611  0.53138254  1  0  0.08854  0.122363  0  1.023774  0
H  H43  1  0.79849358  0.35949470  0.03138247  1  0  0.088545  0.122373  0  1.023772  0
H  H44  1  0.92439130  0.16208189  0.11443879  1  0  0.102996  0.104567  0  1.021389  0
H  H45  1  0.57560770  0.83791909  0.61443910  1  0  0.102976  0.104541  0  1.021378  0
H  H46  1  0.07560848  0.66208227  0.38556051  1  0  0.103  0.104578  0  1.021437  0
H  H47  1  0.42439286  0.33791775  0.88556096  1  0  0.103004  0.104568  0  1.021382  0
H  H48  1  0.06362858  0.19176887  0.01391191  1  0  0.100755  0.104265  0  1.017924  0
H  H49  1  0.43637198  0.80823041  0.51391203  1  0  0.10077  0.104289  0  1.017903  0
H  H50  1  0.93637239  0.69176894  0.48608741  1  0  0.100758  0.104268  0  1.017922  0
H  H51  1  0.56362973  0.30823052  0.98608722  1  0  0.100751  0.104259  0  1.017934  0
H  H52  1  0.11665383  0.22088016  0.14817519  1  0  0.09226  0.099798  0  1.009587  0
H  H53  1  0.38334541  0.77912053  0.64817452  1  0  0.092253  0.099809  0  1.009569  0
H  H54  1  0.88334599  0.72087992  0.35182495  1  0  0.092264  0.099829  0  1.009562  0
H  H55  1  0.61665510  0.27912041  0.85182471  1  0  0.092252  0.099798  0  1.009578  0
H  H56  1  0.08580480  0.98768681  0.26977295  1  0  0.093171  0.106564  0  1.010401  0
H  H57  1  0.41419315  0.01231526  0.76977231  1  0  0.093163  0.106557  0  1.010419  0
H  H58  1  0.91419522  0.48768666  0.23022666  1  0  0.093167  0.10654  0  1.01042  0
H  H59  1  0.58580482  0.51231455  0.73022744  1  0  0.093167  0.106571  0  1.010417  0
H  H60  1  0.06630261  0.80590102  0.20834414  1  0  0.104485  0.118879  0  1.020171  0
H  H61  1  0.43369540  0.19409978  0.70834367  1  0  0.104474  0.118859  0  1.020159  0
H  H62  1  0.93369728  0.30590101  0.29165529  1  0  0.104481  0.118861  0  1.020169  0
H  H63  1  0.56630271  0.69409919  0.79165705  1  0  0.104485  0.118882  0  1.020161  0
H  H64  1  0.90733872  0.93849582  0.20765156  1  0  0.100342  0.101955  0  1.024945  0
H  H65  1  0.59266018  0.06150535  0.70765190  1  0  0.100351  0.101978  0  1.024897  0
H  H66  1  0.09266127  0.43849633  0.29234800  1  0  0.100341  0.101942  0  1.024947  0
H  H67  1  0.40733900  0.56150465  0.79234868  1  0  0.100348  0.101965  0  1.024934  0
C  C68  1  0.27042201  0.77800156  0.07406431  1  0  -0.093028  -0.105372  0  4.123339  0
C  C69  1  0.22957614  0.22199784  0.57406553  1  0  -0.09298  -0.105254  0  4.123167  0
C  C70  1  0.72957786  0.27800167  0.42593588  1  0  -0.093018  -0.105357  0  4.1233  0
C  C71  1  0.77042316  0.72199767  0.92593521  1  0  -0.093027  -0.105377  0  4.123381  0
C  C72  1  0.20443958  0.68320508  0.99436471  1  0  -0.190923  -0.3445  0  4.203526  0
C  C73  1  0.29555931  0.31679517  0.49436696  1  0  -0.190937  -0.344574  0  4.203441  0
C  C74  1  0.79556086  0.18320439  0.50563520  1  0  -0.190914  -0.344476  0  4.203505  0
C  C75  1  0.70444059  0.81679637  0.00563405  1  0  -0.190903  -0.344453  0  4.203482  0
C  C76  1  0.22824779  0.52883036  0.02339516  1  0  -0.176545  -0.208678  0  4.190423  0
C  C77  1  0.27175042  0.47117121  0.52339581  1  0  -0.176586  -0.208689  0  4.190452  0
C  C78  1  0.77175188  0.02882947  0.47660479  1  0  -0.17656  -0.208763  0  4.190418  0
C  C79  1  0.72825142  0.97117111  0.97660281  1  0  -0.176585  -0.208763  0  4.190489  0
C  C80  1  0.31017596  0.52683068  0.11977223  1  0  -0.183356  -0.233785  0  4.194476  0
C  C81  1  0.18982331  0.47316881  0.61977136  1  0  -0.183359  -0.233795  0  4.19456  0
C  C82  1  0.68982488  0.02683295  0.38022850  1  0  -0.18332  -0.233662  0  4.194459  0
C  C83  1  0.81017618  0.97316744  0.88022727  1  0  -0.183348  -0.233722  0  4.194624  0
C  C84  1  0.33530785  0.68006448  0.15136047  1  0  -0.181697  -0.283646  0  4.153593  0
C  C85  1  0.16469139  0.31993507  0.65136103  1  0  -0.181718  -0.283762  0  4.153682  0
C  C86  1  0.66469194  0.18006325  0.34863962  1  0  -0.181737  -0.283729  0  4.153741  0
C  C87  1  0.83531383  0.81993365  0.84863980  1  0  -0.181689  -0.283759  0  4.153742  0
C  C88  1  0.25776258  0.95009457  0.07748897  1  0  0.076415  0.291096  0  3.782861  0
C  C89  1  0.24223557  0.04990597  0.57748923  1  0  0.076396  0.291067  0  3.782857  0
C  C90  1  0.74223742  0.45009469  0.42251060  1  0  0.07642  0.29109  0  3.782856  0
C  C91  1  0.75776360  0.54990578  0.92251134  1  0  0.076402  0.291055  0  3.78288  0
C  C92  1  0.36882608  0.01850538  0.15977005  1  0  -0.240521  -0.426144  0  3.870715  0
C  C93  1  0.13117433  0.98149533  0.65977127  1  0  -0.240518  -0.426078  0  3.870702  0
C  C94  1  0.63117476  0.51850493  0.34022910  1  0  -0.240537  -0.426115  0  3.870701  0
C  C95  1  0.86882634  0.48149537  0.84022972  1  0  -0.240539  -0.426103  0  3.87073  0
C  C96  1  0.29858024  0.01555657  0.96916292  1  0  -0.236894  -0.442214  0  3.905708  0
C  C97  1  0.20141867  0.98444363  0.46916350  1  0  -0.236884  -0.442191  0  3.905582  0
C  C98  1  0.70142124  0.51555782  0.53083684  1  0  -0.236897  -0.442205  0  3.905711  0
C  C99  1  0.79858018  0.48444413  0.03083689  1  0  -0.236885  -0.442159  0  3.905723  0
C  C100  1  0.04822728  0.14887665  0.09395122  1  0  -0.145426  -0.25588  0  3.960311  0
C  C101  1  0.45177202  0.85112392  0.59395138  1  0  -0.145407  -0.255877  0  3.960291  0
C  C102  1  0.95177366  0.64887658  0.40604806  1  0  -0.145431  -0.255926  0  3.960339  0
C  C103  1  0.54822738  0.35112386  0.90604870  1  0  -0.145424  -0.255883  0  3.960301  0
C  C104  1  0.03498435  0.92661735  0.20221106  1  0  -0.152629  -0.274392  0  3.948479  0
C  C105  1  0.46501367  0.07338345  0.70221046  1  0  -0.152599  -0.274358  0  3.948472  0
C  C106  1  0.96501563  0.42661737  0.29778848  1  0  -0.152606  -0.274304  0  3.948411  0
C  C107  1  0.53498435  0.57338284  0.79778935  1  0  -0.152642  -0.274421  0  3.948443  0
N  N108  1  0.08750327  0.98656260  0.10039173  1  0  -0.435629  -0.219168  0  3.510083  0
N  N109  1  0.41249485  0.01343798  0.60039188  1  0  -0.43564  -0.219207  0  3.510163  0
N  N110  1  0.91249675  0.48656166  0.39960788  1  0  -0.435651  -0.219184  0  3.510079  0
N  N111  1  0.58750429  0.51343763  0.89960866  1  0  -0.435622  -0.219132  0  3.510009  0
