# generated using pymatgen
data_Zn4H35C56I4N16F7
_symmetry_space_group_name_H-M   'P 1'
_cell_length_a   14.58760114
_cell_length_b   15.44029203
_cell_length_c   15.37646376
_cell_angle_alpha   67.62971544
_cell_angle_beta   67.46320860
_cell_angle_gamma   103.58242733
_symmetry_Int_Tables_number   1
_chemical_formula_structural   Zn4H35C56I4N16F7
_chemical_formula_sum   'Zn4 H35 C56 I4 N16 F7'
_cell_volume   2648.00781574
_cell_formula_units_Z   1
loop_
 _symmetry_equiv_pos_site_id
 _symmetry_equiv_pos_as_xyz
  1  'x, y, z'
loop_
 _atom_site_type_symbol
 _atom_site_label
 _atom_site_symmetry_multiplicity
 _atom_site_fract_x
 _atom_site_fract_y
 _atom_site_fract_z
 _atom_site_occupancy
 _atom_site_pbe_bader_charge
 _atom_site_pbe_bader_spin_density
 _atom_site_pbe_cm5_charge
 _atom_site_pbe_ddec_charge
 _atom_site_pbe_ddec_spin_density
 _atom_site_pbe_ddec_sum_bond_order
 _atom_site_pbe_magmom
Zn  Zn0  1  0.07730028  0.43602770  0.93505707  1  1.187392  0  0.762358  0.642545  0  2.429622  0
Zn  Zn1  1  0.88662970  0.51806748  0.11646561  1  1.199558  0  0.745092  0.639753  0  2.434006  0
Zn  Zn2  1  0.98035898  0.33055766  0.17686539  1  1.178913  0  0.755165  0.625411  0  2.425954  0
Zn  Zn3  1  0.03531490  0.66915461  0.84021801  1  1.205834  0  0.748397  0.64179  0  2.471291  0
H  H4  1  0.17736171  0.28541779  0.87370137  1  0.1157  0  0.115082  0.105638  0  1.010358  0
H  H5  1  0.90248222  0.57988401  0.43609622  1  0.065452  0  0.08436  0.104292  0  1.041941  0
H  H6  1  0.08435562  0.60530173  0.47933853  1  0.111027  0  0.081614  0.097725  0  1.063418  0
H  H7  1  0.94251105  0.31763499  0.69207048  1  0.056027  0  0.087906  0.098146  0  1.009408  0
H  H8  1  0.81282086  0.31481084  0.76345851  1  0.073717  0  0.099259  0.112064  0  0.967052  0
H  H9  1  0.76442746  0.29742997  0.63983004  1  0.013665  0  0.0991  0.107273  0  0.962512  0
H  H10  1  0.87885385  0.27066070  0.59169286  1  0.027555  0  0.096445  0.104018  0  0.980178  0
H  H11  1  0.68061672  0.75983229  0.81604026  1  0.059919  0  0.096532  0.096594  0  1.006288  0
H  H12  1  0.86910787  0.18947555  0.11101138  1  0.136464  0  0.122212  0.11737  0  1.014341  0
H  H13  1  0.50472443  0.72575711  0.82549204  1  0.05846  0  0.098701  0.102649  0  0.998833  0
H  H14  1  0.29305899  0.51151364  0.27027481  1  0.083313  0  0.078785  0.025947  0  1.055429  0
H  H15  1  0.83166722  0.52647213  0.33625799  1  0.085099  0  0.121095  0.114949  0  0.985422  0
H  H16  1  0.47266972  0.53112258  0.26116547  1  0.047482  0  0.089618  0.103657  0  0.992174  0
H  H17  1  0.46929558  0.43261984  0.22572981  1  0.067043  0  0.099289  0.123494  0  0.977368  0
H  H18  1  0.34123899  0.02225993  0.37734629  1  0.083788  0  0.093261  0.102198  0  1.014895  0
H  H19  1  0.50414833  0.18413540  0.22357546  1  0.047783  0  0.094924  0.101174  0  1.010874  0
H  H20  1  0.76230935  0.98416600  0.23012616  1  0.031082  0  0.090049  0.095879  0  0.992481  0
H  H21  1  0.76374530  0.02994888  0.32043453  1  0.024113  0  0.084508  0.084424  0  1.005536  0
H  H22  1  0.59476063  0.81757470  0.39123254  1  0.061687  0  0.090082  0.098993  0  0.992682  0
H  H23  1  0.90351594  0.59735211  0.74764508  1  0.106058  0  0.10016  0.092406  0  1.06332  0
H  H24  1  0.59691331  0.86416503  0.48042088  1  0.046196  0  0.089042  0.095782  0  0.990398  0
H  H25  1  0.11374561  0.97833718  0.18779325  1  0.058482  0  0.100591  0.103407  0  0.996881  0
H  H26  1  0.17381756  0.46160515  0.19059936  1  0.14331  0  0.107288  0.098525  0  1.049429  0
H  H27  1  0.11984967  0.83231058  0.16469415  1  0.055472  0  0.086318  0.086365  0  1.049269  0
H  H28  1  0.25325156  0.07104084  0.73663428  1  0.067649  0  0.105785  0.065005  0  0.947234  0
H  H29  1  0.22036669  0.21346585  0.76511637  1  0.083809  0  0.099204  0.105182  0  0.979959  0
H  H30  1  0.04071871  0.37535457  0.76771565  1  0.101031  0  0.0932  0.074414  0  1.097164  0
H  H31  1  0.85249372  0.74374226  0.80439751  1  0.081699  0  0.118446  0.106064  0  0.999599  0
H  H32  1  0.02185522  0.10101045  0.22948413  1  0.080345  0  0.122955  0.113391  0  0.989751  0
H  H33  1  0.20171680  0.85982059  0.81315173  1  0.104036  0  0.119976  0.111908  0  0.995491  0
H  H34  1  0.00539439  0.67090848  0.17084203  1  0.073771  0  0.100561  0.083861  0  1.069152  0
H  H35  1  0.32244037  0.63613867  0.83458356  1  0.119461  0  0.119346  0.113162  0  1.000433  0
H  H36  1  0.93680121  0.28204677  0.41163226  1  0.112105  0  0.122989  0.11822  0  0.984284  0
H  H37  1  0.77283417  0.47111995  0.54477042  1  0.08717  0  0.109472  0.141441  0  0.948522  0
H  H38  1  0.66247592  0.55159803  0.16185690  1  0.091057  0  0.115377  0.103396  0  1.019208  0
C  C39  1  0.13498483  0.25303956  0.96216983  1  0.367952  0  0.01254  -0.036698  0  3.99622  0
C  C40  1  0.27055827  0.58550603  0.92394269  1  0.405872  0  0.019212  -0.020604  0  3.910111  0
C  C41  1  0.23318645  0.83854333  0.59407023  1  1.025388  0  0.186917  0.326774  0  4.134006  0
C  C42  1  0.72440602  0.59759337  0.07410471  1  0.393112  0  0.005086  -0.052271  0  3.996124  0
C  C43  1  0.90920724  0.33959071  0.37981529  1  0.380323  0  0.006184  -0.053045  0  3.979647  0
C  C44  1  0.33372760  0.84447982  0.52301747  1  0.060235  0  -0.063291  -0.285828  0  4.127827  0
C  C45  1  0.88864510  0.41046540  0.41111192  1  0.023351  0  -0.044893  -0.052545  0  4.032882  0
C  C46  1  0.29493175  0.57310595  0.00714974  1  0.013381  0  -0.035898  -0.038999  0  4.060369  0
C  C47  1  0.12213565  0.80562305  0.99476512  1  -0.063763  0  -0.04094  -0.044584  0  4.081678  0
C  C48  1  0.87613773  0.52034519  0.60155837  1  0.438587  0  0.098019  0.291188  0  3.603264  0
C  C49  1  0.86203096  0.50478430  0.51360568  1  -0.068138  0  -0.173059  -0.308859  0  3.885407  0
C  C50  1  0.71457771  0.65341471  0.98414540  1  0.06919  0  -0.036866  -0.033808  0  4.096727  0
C  C51  1  0.05654881  0.52062986  0.52059902  1  -0.170133  0  -0.116554  -0.144654  0  3.674387  0
C  C52  1  0.88589621  0.35066952  0.68111368  1  -0.054906  0  -0.163002  -0.18727  0  3.846196  0
C  C53  1  0.94733171  0.46974448  0.63433381  1  0.057909  0  -0.011592  0.050063  0  3.805164  0
C  C54  1  0.83493680  0.24343714  0.11800608  1  0.370337  0  0.008472  -0.036027  0  3.937823  0
C  C55  1  0.90865907  0.43101054  0.49167253  1  0.074507  0  -0.013464  0.072851  0  3.853084  0
C  C56  1  0.03489639  0.48218961  0.44825135  1  0.414757  0  0.07907  0.238594  0  3.650515  0
C  C57  1  0.85445695  0.32884340  0.60428258  1  0.026433  0  -0.159327  -0.186521  0  3.865163  0
C  C58  1  0.50954695  0.58409497  0.08818945  1  -0.038311  0  -0.010946  0.052137  0  3.908312  0
C  C59  1  0.61232373  0.65153031  0.98954770  1  0.011492  0  -0.014446  0.033022  0  4.064936  0
C  C60  1  0.60450057  0.70432977  0.89657182  1  -0.057967  0  -0.093811  -0.13304  0  4.005847  0
C  C61  1  0.72455998  0.22684889  0.16119547  1  0.057202  0  -0.03192  -0.122885  0  4.072938  0
C  C62  1  0.50323972  0.68468150  0.90195272  1  -0.06084  0  -0.098725  -0.144344  0  4.002516  0
C  C63  1  0.39995223  0.61077126  0.00100628  1  0.099021  0  -0.008178  0.063444  0  4.053076  0
C  C64  1  0.40877501  0.56548901  0.09393060  1  -0.100542  0  -0.028877  -0.079392  0  3.903777  0
C  C65  1  0.34352110  0.48825112  0.21791894  1  0.481987  0  0.022508  0.197501  0  3.837459  0
C  C66  1  0.94361940  0.54715410  0.76204725  1  0.403537  0  -0.001815  -0.046959  0  3.983268  0
C  C67  1  0.45698762  0.50344788  0.20971744  1  -0.056275  0  -0.160785  -0.279382  0  3.882087  0
C  C68  1  0.53619520  0.94084072  0.37509161  1  -0.018083  0  -0.019661  0.014584  0  3.873535  0
C  C69  1  0.42843834  0.93249205  0.41733074  1  0.047941  0  -0.010073  0.092074  0  4.05998  0
C  C70  1  0.42235948  0.02337143  0.35338422  1  -0.06712  0  -0.102557  -0.148782  0  3.993578  0
C  C71  1  0.51610218  0.11651024  0.26477422  1  -0.06705  0  -0.103555  -0.146835  0  4.028641  0
C  C72  1  0.96519505  0.48388538  0.71901317  1  -0.001995  0  -0.049552  -0.051202  0  3.992756  0
C  C73  1  0.62504961  0.12691026  0.23068608  1  0.024259  0  -0.024182  0.035181  0  4.078646  0
C  C74  1  0.62961054  0.03363011  0.28583911  1  -0.045351  0  -0.02161  0.018426  0  3.908666  0
C  C75  1  0.71017155  0.99074107  0.29898758  1  -0.023704  0  -0.160099  -0.197064  0  3.909248  0
C  C76  1  0.60482720  0.88588799  0.40011442  1  -0.052135  0  -0.15692  -0.189305  0  3.902459  0
C  C77  1  0.14869071  0.07401695  0.93528233  1  -0.083074  0  -0.022403  0.00467  0  3.947229  0
C  C78  1  0.73443945  0.32553143  0.14570599  1  1.031134  0  0.217904  0.353555  0  4.033334  0
C  C79  1  0.13120474  0.07439506  0.03139308  1  0.060863  0  -0.010697  0.046762  0  4.050205  0
C  C80  1  0.12488673  0.98431216  0.11097938  1  -0.032359  0  -0.089765  -0.1253  0  3.974461  0
C  C81  1  0.12901678  0.90036853  0.09739402  1  -0.08703  0  -0.092885  -0.126998  0  3.964234  0
C  C82  1  0.14145494  0.89884250  0.00204485  1  0.037695  0  -0.002705  0.072778  0  4.033716  0
C  C83  1  0.32215983  0.74546778  0.59335073  1  1.060863  0  0.18582  0.327549  0  4.167401  0
C  C84  1  0.15554091  0.99142045  0.92083413  1  -0.002931  0  -0.019356  -0.054265  0  3.914801  0
C  C85  1  0.17093250  0.04373324  0.80732497  1  0.54427  0  0.028721  0.168733  0  3.866691  0
C  C86  1  0.15509139  0.13327714  0.82782375  1  -0.153711  0  -0.095635  -0.108928  0  3.725656  0
C  C87  1  0.01431499  0.43457234  0.77155721  1  0.399796  0  -0.001259  -0.043768  0  3.99717  0
C  C88  1  0.82089231  0.69518500  0.89193884  1  0.384958  0  0.011664  -0.04352  0  3.965433  0
C  C89  1  0.05636768  0.15936539  0.14366410  1  0.422418  0  0.013089  -0.045714  0  3.963256  0
C  C90  1  0.11161289  0.15682766  0.04728661  1  0.064051  0  -0.036099  -0.038882  0  4.093167  0
C  C91  1  0.85689497  0.46482567  0.34068031  1  0.395263  0  0.003972  -0.054433  0  4.000896  0
C  C92  1  0.19361420  0.49688204  0.10592436  1  0.394519  0  0.007311  -0.031189  0  3.978236  0
C  C93  1  0.14861943  0.79887376  0.90008263  1  0.478971  0  0.013608  -0.036372  0  3.941044  0
C  C94  1  0.04874249  0.70191542  0.08260704  1  0.434822  0  0.000687  -0.048388  0  3.986713  0
I  I95  1  0.94526930  0.69367915  0.53212146  1  -0.006012  0  0.033624  -0.113516  0  1.283929  0
I  I96  1  0.13476802  0.61742395  0.27706403  1  0.044374  0  0.0927  -0.061975  0  1.538249  0
I  I97  1  0.20449297  0.51455533  0.51806384  1  0.091903  0  0.069801  -0.015441  0  1.431738  0
I  I98  1  0.00321330  0.14365608  0.84353781  1  0.017193  0  0.02628  -0.08304  0  1.327751  0
N  N99  1  0.09630896  0.30721955  0.00392767  1  -0.82063  0  -0.283063  -0.17603  0  3.583818  0
N  N100  1  0.90288534  0.34230785  0.08457994  1  -0.833045  0  -0.302665  -0.220881  0  3.604559  0
N  N101  1  0.98101503  0.53955849  0.83107631  1  -0.770332  0  -0.278013  -0.180501  0  3.533663  0
N  N102  1  0.83815813  0.39340043  0.10161003  1  -0.801938  0  -0.286533  -0.287598  0  3.554047  0
N  N103  1  0.02532431  0.47066979  0.83553556  1  -0.793768  0  -0.29032  -0.154043  0  3.676053  0
N  N104  1  0.88736193  0.66563234  0.92484582  1  -0.774971  0  -0.271014  -0.17054  0  3.552167  0
N  N105  1  0.04733916  0.24974831  0.11681692  1  -0.789528  0  -0.271195  -0.183269  0  3.547906  0
N  N106  1  0.23039896  0.68877101  0.69166582  1  -0.730607  0  -0.279694  -0.333899  0  3.259861  0
N  N107  1  0.86045864  0.43096524  0.27109926  1  -0.78063  0  -0.270954  -0.179823  0  3.507582  0
N  N108  1  0.11665829  0.46604728  0.08317873  1  -0.828521  0  -0.29952  -0.208361  0  3.657074  0
N  N109  1  0.09398943  0.69940092  0.93002889  1  -0.810934  0  -0.274345  -0.173056  0  3.566002  0
N  N110  1  0.03227919  0.63950814  0.04283483  1  -0.76476  0  -0.28495  -0.180968  0  3.595336  0
N  N111  1  0.16340075  0.52008756  0.97111700  1  -0.803489  0  -0.286051  -0.190035  0  3.624865  0
N  N112  1  0.17311533  0.74919561  0.69202619  1  -0.867756  0  -0.299816  -0.297197  0  3.621495  0
N  N113  1  0.89258223  0.35213026  0.29603640  1  -0.795464  0  -0.27755  -0.172164  0  3.546222  0
N  N114  1  0.82711001  0.60480927  0.03833630  1  -0.805167  0  -0.279064  -0.189036  0  3.576292  0
F  F115  1  0.19536278  0.91169982  0.57431266  1  -0.649001  0  -0.103587  -0.154349  0  1.340507  0
F  F116  1  0.77250019  0.47625482  0.69600861  1  -0.623626  0  -0.114311  -0.158233  0  1.293839  0
F  F117  1  0.07230663  0.40737563  0.44575832  1  -0.627348  0  -0.110495  -0.152809  0  1.385295  0
F  F118  1  0.27406522  0.38429842  0.25593147  1  -0.634064  0  -0.165528  -0.218162  0  1.223563  0
F  F119  1  0.09282972  0.98952580  0.79218025  1  -0.632205  0  -0.146768  -0.190297  0  1.304943  0
F  F120  1  0.65210866  0.35315854  0.17580499  1  -0.639877  0  -0.077252  -0.132766  0  1.366774  0
F  F121  1  0.39470516  0.70500770  0.56816674  1  -0.653502  0  -0.107642  -0.161748  0  1.359257  0
