# generated using pymatgen
data_LaH7C7(NO4)2
_symmetry_space_group_name_H-M   'P 1'
_cell_length_a   7.99605277
_cell_length_b   8.74040490
_cell_length_c   8.74461204
_cell_angle_alpha   115.37737886
_cell_angle_beta   100.17410806
_cell_angle_gamma   96.64484991
_symmetry_Int_Tables_number   1
_chemical_formula_structural   LaH7C7(NO4)2
_chemical_formula_sum   'La2 H14 C14 N4 O16'
_cell_volume   530.75432845
_cell_formula_units_Z   2
loop_
 _symmetry_equiv_pos_site_id
 _symmetry_equiv_pos_as_xyz
  1  'x, y, z'
loop_
 _atom_site_type_symbol
 _atom_site_label
 _atom_site_symmetry_multiplicity
 _atom_site_fract_x
 _atom_site_fract_y
 _atom_site_fract_z
 _atom_site_occupancy
 _atom_site_hle17_bader_spin_density
 _atom_site_hle17_ddec_charge
 _atom_site_hle17_ddec_spin_density
 _atom_site_hle17_ddec_sum_bond_order
 _atom_site_hle17_magmom
 _atom_site_hse06_10hf_bader_spin_density
 _atom_site_hse06_10hf_ddec_charge
 _atom_site_hse06_10hf_ddec_spin_density
 _atom_site_hse06_10hf_ddec_sum_bond_order
 _atom_site_hse06_10hf_magmom
 _atom_site_hse06_bader_spin_density
 _atom_site_hse06_ddec_charge
 _atom_site_hse06_ddec_spin_density
 _atom_site_hse06_ddec_sum_bond_order
 _atom_site_hse06_magmom
 _atom_site_pbe_bader_spin_density
 _atom_site_pbe_cm5_charge
 _atom_site_pbe_ddec_charge
 _atom_site_pbe_ddec_spin_density
 _atom_site_pbe_ddec_sum_bond_order
 _atom_site_pbe_magmom
La  La0  1  0.33946790  0.08165362  0.32225781  1  0  2.049228  0  1.771602  0  0  1.915157  0  2.272048  0  0  2.014316  0  2.180148  0  0  1.361147  1.84105  0  2.336098  0
La  La1  1  0.66053347  0.91834666  0.67774355  1  0  2.049186  0  1.77168  0  0  1.915118  0  2.272124  0  0  2.014283  0  2.180216  0  0  1.361154  1.841008  0  2.336177  0
H  H2  1  0.32693461  0.42680902  0.03994097  1  0  0.104101  0  0.927096  0  0  0.107759  0  0.995463  0  0  0.111835  0  0.992085  0  0  0.125674  0.104691  0  0.998142  0
H  H3  1  0.67306340  0.57318736  0.96005700  1  0  0.104039  0  0.927165  0  0  0.107709  0  0.995494  0  0  0.111784  0  0.992122  0  0  0.125677  0.104639  0  0.998197  0
H  H4  1  0.97610303  0.58853112  0.76026066  1  0  0.097771  0  0.946795  0  0  0.102871  0  1.013246  0  0  0.106454  0  1.009883  0  0  0.123756  0.10016  0  1.015867  0
H  H5  1  0.02389908  0.41146657  0.23973857  1  0  0.097755  0  0.946761  0  0  0.102843  0  1.01324  0  0  0.106421  0  1.009883  0  0  0.123742  0.100133  0  1.015864  0
H  H6  1  0.01022236  0.35377895  0.47633512  1  0  0.092959  0  0.941617  0  0  0.098183  0  1.008126  0  0  0.101058  0  1.006144  0  0  0.128025  0.096059  0  1.009725  0
H  H7  1  0.98977748  0.64622003  0.52366428  1  0  0.092934  0  0.941631  0  0  0.098162  0  1.008135  0  0  0.101037  0  1.006156  0  0  0.128032  0.096042  0  1.009734  0
H  H8  1  0.17802405  0.68564815  0.12260480  1  0  0.384365  0  0.939681  0  0  0.341286  0  1.024692  0  0  0.352725  0  1.008875  0  0  0.285531  0.333191  0  1.035824  0
H  H9  1  0.82197579  0.31435083  0.87739460  1  0  0.384362  0  0.939675  0  0  0.341293  0  1.024675  0  0  0.35273  0  1.00886  0  0  0.285526  0.333199  0  1.035807  0
H  H10  1  0.52376644  0.21266692  0.10594843  1  0  0.432725  0  0.865718  0  0  0.40481  0  0.925813  0  0  0.415745  0  0.909945  0  0  0.302287  0.397004  0  0.937117  0
H  H11  1  0.47623269  0.78733465  0.89405195  1  0  0.432699  0  0.865764  0  0  0.404787  0  0.925854  0  0  0.415723  0  0.909984  0  0  0.30226  0.396982  0  0.937158  0
H  H12  1  0.27703642  0.72528992  0.31493252  1  0  0.42592  0  0.865438  0  0  0.39674  0  0.931168  0  0  0.408399  0  0.914224  0  0  0.3015  0.388345  0  0.943338  0
H  H13  1  0.72296269  0.27471165  0.68506901  1  0  0.425897  0  0.865466  0  0  0.396747  0  0.931159  0  0  0.408406  0  0.914213  0  0  0.301502  0.388352  0  0.943328  0
H  H14  1  0.66173522  0.12766539  0.16193330  1  0  0.433042  0  0.858134  0  0  0.404549  0  0.921075  0  0  0.416751  0  0.903263  0  0  0.300908  0.395724  0  0.933957  0
H  H15  1  0.33826388  0.87233617  0.83806936  1  0  0.433089  0  0.858136  0  0  0.404614  0  0.921001  0  0  0.416815  0  0.903189  0  0  0.300909  0.395788  0  0.933885  0
C  C16  1  0.27358002  0.28370082  0.75763002  1  0  0.06206  0  3.735469  0  0  0.068541  0  3.98315  0  0  0.065874  0  4.001946  0  0  0.129314  0.069681  0  3.970999  0
C  C17  1  0.72642367  0.71629817  0.24236776  1  0  0.062102  0  3.735485  0  0  0.068591  0  3.983088  0  0  0.065922  0  4.00188  0  0  0.12925  0.069729  0  3.970936  0
C  C18  1  0.25641761  0.41274867  0.91422520  1  0  0.089693  0  3.623601  0  0  0.05325  0  3.875514  0  0  0.056973  0  3.890318  0  0  0.069506  0.050702  0  3.866067  0
C  C19  1  0.74358451  0.58724903  0.08577290  1  0  0.089759  0  3.623711  0  0  0.053326  0  3.87561  0  0  0.057052  0  3.890412  0  0  0.069556  0.050768  0  3.866164  0
C  C20  1  0.06477857  0.50250862  0.76024467  1  0  0.10377  0  3.628296  0  0  0.072161  0  3.889096  0  0  0.077095  0  3.900648  0  0  0.071553  0.068813  0  3.881751  0
C  C21  1  0.93521888  0.49748517  0.23975325  1  0  0.103818  0  3.628101  0  0  0.072205  0  3.888938  0  0  0.077143  0  3.90049  0  0  0.071561  0.068855  0  3.881594  0
C  C22  1  0.08261985  0.37312348  0.60330126  1  0  0.109195  0  3.648602  0  0  0.083066  0  3.909605  0  0  0.085883  0  3.925069  0  0  0.07591  0.080819  0  3.899447  0
C  C23  1  0.91737687  0.62687290  0.39669878  1  0  0.109207  0  3.648526  0  0  0.083078  0  3.909545  0  0  0.085895  0  3.925008  0  0  0.075901  0.080827  0  3.899388  0
C  C24  1  0.57162858  0.49355301  0.56962878  1  0  0.566851  0  3.890329  0  0  0.522893  0  4.19088  0  0  0.554559  0  4.183284  0  0  0.222037  0.501155  0  4.195269  0
C  C25  1  0.42837052  0.50644856  0.43037388  1  0  0.56679  0  3.890394  0  0  0.522881  0  4.190884  0  0  0.554545  0  4.183291  0  0  0.222004  0.501145  0  4.195274  0
C  C26  1  0.94379619  0.02759323  0.06739842  1  0  0.546295  0  3.928557  0  0  0.505331  0  4.225865  0  0  0.535645  0  4.220134  0  0  0.218529  0.484533  0  4.228921  0
C  C27  1  0.05620436  0.97241483  0.93260155  1  0  0.546295  0  3.928555  0  0  0.505244  0  4.225995  0  0  0.535555  0  4.220264  0  0  0.21849  0.484446  0  4.229053  0
C  C28  1  0.39112368  0.16132874  0.75299378  1  0  0.637799  0  3.930578  0  0  0.585807  0  4.227572  0  0  0.621279  0  4.220552  0  0  0.223888  0.561605  0  4.231457  0
C  C29  1  0.60888001  0.83867025  0.24700400  1  0  0.637679  0  3.930727  0  0  0.585775  0  4.227577  0  0  0.621249  0  4.220551  0  0  0.223849  0.561574  0  4.231459  0
N  N30  1  0.15432200  0.52416383  0.91518151  1  0  -0.245076  0  3.148114  0  0  -0.188386  0  3.398705  0  0  -0.198134  0  3.412381  0  0  -0.279718  -0.181796  0  3.389641  0
N  N31  1  0.84567546  0.47582996  0.08481527  1  0  -0.245101  0  3.148154  0  0  -0.188432  0  3.398771  0  0  -0.19818  0  3.412445  0  0  -0.279713  -0.181841  0  3.389707  0
N  N32  1  0.18982430  0.26680551  0.60198172  1  0  -0.291295  0  3.152217  0  0  -0.253246  0  3.409902  0  0  -0.265867  0  3.429307  0  0  -0.307556  -0.24387  0  3.396486  0
N  N33  1  0.81017652  0.73319217  0.39801844  1  0  -0.291321  0  3.152185  0  0  -0.253283  0  3.409865  0  0  -0.265905  0  3.429269  0  0  -0.307553  -0.243907  0  3.396448  0
O  O34  1  0.38924386  0.04144492  0.60156545  1  0  -0.706402  0  2.066301  0  0  -0.649459  0  2.315405  0  0  -0.68689  0  2.310275  0  0  -0.39427  -0.622341  0  2.317547  0
O  O35  1  0.61075290  0.95855146  0.39843117  1  0  -0.706393  0  2.066351  0  0  -0.649477  0  2.315412  0  0  -0.686908  0  2.310281  0  0  -0.394264  -0.622359  0  2.317554  0
O  O36  1  0.48984150  0.18076393  0.89171504  1  0  -0.632875  0  2.040065  0  0  -0.583624  0  2.277607  0  0  -0.611781  0  2.269937  0  0  -0.30122  -0.563784  0  2.282279  0
O  O37  1  0.51016418  0.81923247  0.10828197  1  0  -0.632758  0  2.040051  0  0  -0.58357  0  2.277556  0  0  -0.611729  0  2.269888  0  0  -0.301147  -0.56373  0  2.28223  0
O  O38  1  0.55747450  0.34906776  0.57372923  1  0  -0.645367  0  2.083777  0  0  -0.591803  0  2.321573  0  0  -0.623035  0  2.314732  0  0  -0.342989  -0.569439  0  2.325561  0
O  O39  1  0.44252177  0.65093250  0.42627240  1  0  -0.645256  0  2.083905  0  0  -0.591706  0  2.32168  0  0  -0.62294  0  2.314843  0  0  -0.342966  -0.569342  0  2.325664  0
O  O40  1  0.30985166  0.37306849  0.33153176  1  0  -0.629885  0  2.032366  0  0  -0.590678  0  2.283943  0  0  -0.621226  0  2.277481  0  0  -0.355332  -0.56866  0  2.287523  0
O  O41  1  0.69014542  0.62693566  0.66847395  1  0  -0.629826  0  2.032468  0  0  -0.590585  0  2.284031  0  0  -0.621137  0  2.277569  0  0  -0.355289  -0.568566  0  2.287611  0
O  O42  1  0.01541113  0.06823936  0.22396734  1  0  -0.607869  0  2.017043  0  0  -0.570852  0  2.263265  0  0  -0.59954  0  2.255683  0  0  -0.348895  -0.550199  0  2.267665  0
O  O43  1  0.98459057  0.93176222  0.77603120  1  0  -0.607807  0  2.017122  0  0  -0.570779  0  2.263393  0  0  -0.599466  0  2.255809  0  0  -0.348852  -0.55013  0  2.267801  0
O  O44  1  0.21324314  0.97233852  0.99240279  1  0  -0.637906  0  2.069232  0  0  -0.585059  0  2.307438  0  0  -0.615789  0  2.300164  0  0  -0.343328  -0.562975  0  2.311613  0
O  O45  1  0.78675739  0.02766954  0.00759832  1  0  -0.637796  0  2.069228  0  0  -0.584985  0  2.307438  0  0  -0.615719  0  2.300165  0  0  -0.34329  -0.562902  0  2.311609  0
O  O46  1  0.20604705  0.77437835  0.24986838  1  0  -0.86662  0  1.898808  0  0  -0.819559  0  2.103314  0  0  -0.847046  0  2.073033  0  0  -0.635346  -0.799265  0  2.124153  0
O  O47  1  0.79395308  0.22562193  0.75013048  1  0  -0.866589  0  1.898838  0  0  -0.819564  0  2.103267  0  0  -0.847057  0  2.072999  0  0  -0.63535  -0.799268  0  2.124104  0
O  O48  1  0.57682702  0.19810186  0.20872748  1  0  -0.872604  0  1.839135  0  0  -0.829852  0  2.023045  0  0  -0.855384  0  1.991581  0  0  -0.630965  -0.811309  0  2.045054  0
O  O49  1  0.42317110  0.80190101  0.79127443  1  0  -0.872638  0  1.839208  0  0  -0.829879  0  2.023009  0  0  -0.855413  0  1.991545  0  0  -0.630936  -0.811335  0  2.045017  0
