# generated using pymatgen
data_CdH13C18N3O4
_symmetry_space_group_name_H-M   'P 1'
_cell_length_a   11.77744918
_cell_length_b   25.59363100
_cell_length_c   25.59368238
_cell_angle_alpha   120.00005107
_cell_angle_beta   90.00002597
_cell_angle_gamma   90.00000022
_symmetry_Int_Tables_number   1
_chemical_formula_structural   CdH13C18N3O4
_chemical_formula_sum   'Cd6 H78 C108 N18 O24'
_cell_volume   6681.07469158
_cell_formula_units_Z   6
loop_
 _symmetry_equiv_pos_site_id
 _symmetry_equiv_pos_as_xyz
  1  'x, y, z'
loop_
 _atom_site_type_symbol
 _atom_site_label
 _atom_site_symmetry_multiplicity
 _atom_site_fract_x
 _atom_site_fract_y
 _atom_site_fract_z
 _atom_site_occupancy
 _atom_site_pbe_bader_charge
 _atom_site_pbe_bader_spin_density
 _atom_site_pbe_cm5_charge
 _atom_site_pbe_ddec_charge
 _atom_site_pbe_ddec_spin_density
 _atom_site_pbe_ddec_sum_bond_order
 _atom_site_pbe_magmom
Cd  Cd0  1  0.99999951  0.52627220  0.58848153  1  1.289199  0  0.772228  0.882346  0  2.2317  0
Cd  Cd1  1  0.00000023  0.06220862  0.47372767  1  1.287275  0  0.772223  0.882346  0  2.231679  0
Cd  Cd2  1  0.99999629  0.41151905  0.93779049  1  1.288087  0  0.772212  0.882298  0  2.231728  0
Cd  Cd3  1  0.99999942  0.47372766  0.41151849  1  1.28922  0  0.772237  0.882346  0  2.231676  0
Cd  Cd4  1  0.99999693  0.93779162  0.52627176  1  1.287303  0  0.772238  0.882361  0  2.231672  0
Cd  Cd5  1  0.99999755  0.58848149  0.06220885  1  1.288054  0  0.772224  0.882376  0  2.231687  0
H  H6  1  0.20620370  0.61252720  0.61785287  1  0.120568  0  0.127423  0.105727  0  0.979438  0
H  H7  1  0.41626616  0.61667751  0.62036364  1  0.089267  0  0.112738  0.116615  0  1.00286  0
H  H8  1  0.41451872  0.42291244  0.54716445  1  0.07211  0  0.111683  0.115732  0  1.001741  0
H  H9  1  0.20459381  0.42773073  0.54710200  1  0.110077  0  0.124567  0.098362  0  0.983495  0
H  H10  1  0.20620358  0.00532564  0.38747205  1  0.122538  0  0.127424  0.105713  0  0.979472  0
H  H11  1  0.41626605  0.00368555  0.38332169  1  0.08543  0  0.112737  0.116607  0  1.002863  0
H  H12  1  0.41451789  0.12425167  0.57708667  1  0.037669  0  0.111653  0.115632  0  1.001758  0
H  H13  1  0.20459212  0.11937127  0.57226852  1  0.128358  0  0.124579  0.098373  0  0.983458  0
H  H14  1  0.20620303  0.38214705  0.99467289  1  0.11991  0  0.127425  0.105749  0  0.979408  0
H  H15  1  0.41626550  0.37963396  0.99631236  1  0.09679  0  0.11274  0.116623  0  1.00286  0
H  H16  1  0.41451888  0.45283453  0.87574729  1  0.063526  0  0.111652  0.115654  0  1.00172  0
H  H17  1  0.20459227  0.45289822  0.88062852  1  0.119364  0  0.124577  0.098377  0  0.983514  0
H  H18  1  0.20620273  0.38747244  0.38214547  1  0.120533  0  0.127425  0.10572  0  0.979455  0
H  H19  1  0.41626689  0.38332139  0.37963397  1  0.089263  0  0.112737  0.116639  0  1.002827  0
H  H20  1  0.41451867  0.57708639  0.45283400  1  0.072121  0  0.111685  0.115723  0  1.001794  0
H  H21  1  0.20459376  0.57226886  0.45289718  1  0.11005  0  0.124554  0.098342  0  0.983484  0
H  H22  1  0.20620454  0.99467310  0.61252719  1  0.122392  0  0.127432  0.10575  0  0.979463  0
H  H23  1  0.41626616  0.99631109  0.61667818  1  0.095312  0  0.11273  0.116597  0  1.002885  0
H  H24  1  0.41451781  0.87574794  0.42291256  1  0.037946  0  0.111656  0.115658  0  1.001774  0
H  H25  1  0.20459290  0.88062955  0.42773098  1  0.128357  0  0.124574  0.098377  0  0.983493  0
H  H26  1  0.20620255  0.61785332  0.00532707  1  0.119762  0  0.127417  0.10573  0  0.979435  0
H  H27  1  0.41626501  0.62036520  0.00368733  1  0.096804  0  0.11274  0.116613  0  1.002874  0
H  H28  1  0.41451936  0.54716587  0.12425273  1  0.05455  0  0.111672  0.115703  0  1.00179  0
H  H29  1  0.20459360  0.54710192  0.11937167  1  0.119136  0  0.124589  0.098394  0  0.983509  0
H  H30  1  0.79379516  0.38747232  0.38214494  1  0.12057  0  0.127424  0.105757  0  0.979456  0
H  H31  1  0.58373355  0.38332162  0.37963377  1  0.099052  0  0.112729  0.116612  0  1.002897  0
H  H32  1  0.58547929  0.57708758  0.45283520  1  0.063111  0  0.11168  0.115718  0  1.001738  0
H  H33  1  0.79540590  0.57226945  0.45289827  1  0.110037  0  0.124556  0.098341  0  0.983459  0
H  H34  1  0.79379613  0.99467360  0.61252682  1  0.122542  0  0.127433  0.105743  0  0.979442  0
H  H35  1  0.58373366  0.99631256  0.61667831  1  0.08541  0  0.112742  0.116632  0  1.002872  0
H  H36  1  0.58548098  0.87574750  0.42291304  1  0.028808  0  0.11165  0.11566  0  1.00176  0
H  H37  1  0.79540589  0.88062897  0.42773090  1  0.128356  0  0.124515  0.098283  0  0.983437  0
H  H38  1  0.79379668  0.61785336  0.00532715  1  0.119765  0  0.127421  0.105745  0  0.979413  0
H  H39  1  0.58373421  0.62036482  0.00368696  1  0.087011  0  0.112753  0.116623  0  1.002852  0
H  H40  1  0.58548083  0.54716527  0.12425259  1  0.063527  0  0.111673  0.115728  0  1.001757  0
H  H41  1  0.79540659  0.54710158  0.11937136  1  0.11937  0  0.124556  0.098346  0  0.983497  0
H  H42  1  0.79379868  0.61252573  0.61785369  1  0.120563  0  0.127442  0.10576  0  0.979392  0
H  H43  1  0.58373621  0.61667818  0.62036613  1  0.09911  0  0.112749  0.116613  0  1.002851  0
H  H44  1  0.58548019  0.42291195  0.54716577  1  0.06309  0  0.111668  0.115698  0  1.001819  0
H  H45  1  0.79540595  0.42772915  0.54710136  1  0.109994  0  0.1246  0.098439  0  0.983494  0
H  H46  1  0.79379687  0.00532691  0.38747246  1  0.122381  0  0.127442  0.105753  0  0.979423  0
H  H47  1  0.58373440  0.00368702  0.38332182  1  0.095226  0  0.112756  0.11664  0  1.002861  0
H  H48  1  0.58548105  0.12425185  0.57708731  1  0.02912  0  0.111679  0.115721  0  1.001783  0
H  H49  1  0.79540681  0.11937148  0.57226922  1  0.128344  0  0.124546  0.098323  0  0.983463  0
H  H50  1  0.79379547  0.38214703  0.99467382  1  0.119908  0  0.127435  0.105761  0  0.979427  0
H  H51  1  0.58373300  0.37963537  0.99631333  1  0.087043  0  0.11274  0.116623  0  1.002851  0
H  H52  1  0.58547950  0.45283493  0.87574770  1  0.05408  0  0.111686  0.115723  0  1.001821  0
H  H53  1  0.79540611  0.45289781  0.88062905  1  0.119217  0  0.124557  0.098356  0  0.98346  0
H  H54  1  0.99999859  0.61833365  0.44789130  1  0.105401  0  0.096391  0.117864  0  1.053263  0
H  H55  1  0.99999773  0.74638719  0.42118200  1  0.520452  0  0.284237  0.297347  0  1.039183  0
H  H56  1  0.99999177  0.66511721  0.38578852  1  0.443983  0  0.298854  0.295386  0  0.993477  0
H  H57  1  0.00000031  0.82482574  0.62662684  1  0.103672  0  0.102349  0.111558  0  0.998658  0
H  H58  1  0.99999954  0.73407962  0.64079376  1  0.057875  0  0.096484  0.109109  0  1.016319  0
H  H59  1  0.00000019  0.82956028  0.38166746  1  0.093513  0  0.096386  0.117844  0  1.053257  0
H  H60  1  0.99999765  0.67479559  0.25361435  1  0.51132  0  0.28425  0.297359  0  1.0392  0
H  H61  1  0.99999769  0.72067360  0.33488584  1  0.436706  0  0.298854  0.295428  0  0.993357  0
H  H62  1  0.00000009  0.80179962  0.17517416  1  0.090571  0  0.102352  0.111568  0  0.998654  0
H  H63  1  0.00000013  0.90671471  0.26592023  1  0.06121  0  0.096527  0.109195  0  1.016334  0
H  H64  1  0.99999930  0.55210857  0.17044154  1  0.090892  0  0.096411  0.117894  0  1.053178  0
H  H65  1  0.00000440  0.57881735  0.32520473  1  0.521741  0  0.284224  0.297353  0  1.039097  0
H  H66  1  0.00000948  0.61421173  0.27932823  1  0.444893  0  0.298861  0.29539  0  0.993364  0
H  H67  1  0.00000264  0.37337302  0.19819909  1  0.089809  0  0.102351  0.111569  0  0.998662  0
H  H68  1  0.00000089  0.35920535  0.09328656  1  0.06372  0  0.09648  0.109085  0  1.016336  0
H  H69  1  0.00000112  0.38166598  0.55210796  1  0.105426  0  0.096369  0.1178  0  1.053311  0
H  H70  1  0.00000028  0.25361215  0.57881832  1  0.52049  0  0.284213  0.297378  0  1.039042  0
H  H71  1  0.99999952  0.33488372  0.61421121  1  0.443879  0  0.298854  0.295398  0  0.993439  0
H  H72  1  0.00000018  0.17517337  0.37337273  1  0.10385  0  0.102332  0.111549  0  0.998682  0
H  H73  1  0.99999940  0.26591946  0.35920547  1  0.057866  0  0.096447  0.109027  0  1.016288  0
H  H74  1  0.99999868  0.17044215  0.61833369  1  0.0935  0  0.096374  0.117834  0  1.05327  0
H  H75  1  0.99999959  0.32520555  0.74638830  1  0.511187  0  0.284216  0.297354  0  1.039129  0
H  H76  1  0.99999955  0.27932933  0.66511814  1  0.436777  0  0.298823  0.295356  0  0.993475  0
H  H77  1  0.99999878  0.19819950  0.82482639  1  0.090542  0  0.102341  0.111533  0  0.998719  0
H  H78  1  0.99999873  0.09328593  0.73407958  1  0.061095  0  0.096503  0.109121  0  1.016288  0
H  H79  1  0.00000211  0.44789155  0.82955957  1  0.090701  0  0.096422  0.117888  0  1.053214  0
H  H80  1  0.00000288  0.42118248  0.67479646  1  0.521769  0  0.28426  0.297361  0  1.039123  0
H  H81  1  0.00000205  0.38578849  0.72067336  1  0.444889  0  0.298884  0.29546  0  0.993293  0
H  H82  1  0.00000039  0.62662687  0.80180126  1  0.089824  0  0.102366  0.111604  0  0.998631  0
H  H83  1  0.99999882  0.64079506  0.90671348  1  0.063779  0  0.09648  0.10908  0  1.016326  0
C  C84  1  0.25683010  0.57162919  0.60223601  1  0.572787  0  0.056917  0.102423  0  3.937677  0
C  C85  1  0.37471726  0.57321514  0.60350705  1  -0.079576  0  -0.079  -0.171507  0  3.946444  0
C  C86  1  0.43703550  0.51969885  0.58343625  1  0.060389  0  0.012229  0.099671  0  3.979369  0
C  C87  1  0.37368985  0.46643913  0.56310181  1  -0.086078  0  -0.079693  -0.173023  0  3.942555  0
C  C88  1  0.25568552  0.46848003  0.56292386  1  0.545134  0  0.057837  0.10682  0  3.941345  0
C  C89  1  0.25683087  0.03060572  0.42837012  1  0.565456  0  0.056883  0.102389  0  3.93755  0
C  C90  1  0.37471887  0.03029168  0.42678606  1  -0.081292  0  -0.078992  -0.171483  0  3.946333  0
C  C91  1  0.43703715  0.06373679  0.48030081  1  0.059554  0  0.012238  0.099654  0  3.979406  0
C  C92  1  0.37368984  0.09666188  0.53356037  1  -0.045233  0  -0.079673  -0.172872  0  3.942525  0
C  C93  1  0.25568466  0.09444446  0.53151890  1  0.530037  0  0.057825  0.106739  0  3.941373  0
C  C94  1  0.25683028  0.39776426  0.96939322  1  0.563501  0  0.056904  0.102413  0  3.937544  0
C  C95  1  0.37471659  0.39649349  0.96970830  1  -0.077166  0  -0.079025  -0.171571  0  3.94647  0
C  C96  1  0.43703652  0.41656350  0.93626321  1  0.06179  0  0.012221  0.09964  0  3.979275  0
C  C97  1  0.37368917  0.43689840  0.90333699  1  -0.078826  0  -0.079646  -0.172854  0  3.942431  0
C  C98  1  0.25568484  0.43707502  0.90555469  1  0.535134  0  0.05781  0.106706  0  3.941572  0
C  C99  1  0.25683000  0.42836985  0.39776217  1  0.572797  0  0.056878  0.102394  0  3.937597  0
C  C100  1  0.37471886  0.42678593  0.39649228  1  -0.079571  0  -0.078983  -0.171526  0  3.946417  0
C  C101  1  0.43703711  0.48030077  0.41656300  1  0.060477  0  0.012187  0.099573  0  3.979412  0
C  C102  1  0.37368979  0.53356087  0.43689781  1  -0.086073  0  -0.079693  -0.17298  0  3.942563  0
C  C103  1  0.25568546  0.53151918  0.43707494  1  0.5451  0  0.057846  0.106808  0  3.941451  0
C  C104  1  0.25683094  0.96939219  0.57162919  1  0.565881  0  0.056919  0.102422  0  3.9378  0
C  C105  1  0.37471809  0.96970742  0.57321446  1  -0.081629  0  -0.079019  -0.171509  0  3.946472  0
C  C106  1  0.43703801  0.93626254  0.51969950  1  -0.091829  0  0.01222  0.099592  0  3.979396  0
C  C107  1  0.37368981  0.90333750  0.46643908  1  -0.045965  0  -0.079654  -0.172881  0  3.942495  0
C  C108  1  0.25568463  0.90555575  0.46848046  1  0.530026  0  0.057828  0.106781  0  3.941356  0
C  C109  1  0.25682982  0.60223667  0.03060777  1  0.563334  0  0.056911  0.102422  0  3.937698  0
C  C110  1  0.37471698  0.60350746  0.03029271  1  -0.077083  0  -0.079  -0.17151  0  3.946418  0
C  C111  1  0.43703864  0.58343700  0.06373827  1  -0.090161  0  0.012183  0.09959  0  3.979362  0
C  C112  1  0.37369047  0.56310199  0.09666301  1  -0.079031  0  -0.079691  -0.172965  0  3.942559  0
C  C113  1  0.25568529  0.56292457  0.09444451  1  0.535412  0  0.057831  0.106763  0  3.941445  0
C  C114  1  0.74316876  0.42837072  0.39776218  1  0.572828  0  0.056904  0.102376  0  3.937736  0
C  C115  1  0.62528160  0.42678494  0.39649176  1  -0.079588  0  -0.078992  -0.171525  0  3.946485  0
C  C116  1  0.56296251  0.48030101  0.41656279  1  -0.091753  0  0.012232  0.099667  0  3.979419  0
C  C117  1  0.62630816  0.53356066  0.43689807  1  -0.086064  0  -0.07972  -0.173031  0  3.9426  0
C  C118  1  0.74431334  0.53151983  0.43707518  1  0.545206  0  0.057853  0.106858  0  3.941311  0
C  C119  1  0.74316969  0.96939245  0.57162904  1  0.565482  0  0.056896  0.10239  0  3.937702  0
C  C120  1  0.62528169  0.96970705  0.57321410  1  -0.081259  0  -0.079014  -0.171557  0  3.946494  0
C  C121  1  0.56296341  0.93626277  0.51969929  1  0.059693  0  0.012197  0.099602  0  3.979373  0
C  C122  1  0.62631072  0.90333713  0.46643873  1  -0.045386  0  -0.079653  -0.172892  0  3.942482  0
C  C123  1  0.74431420  0.90555578  0.46848053  1  0.530007  0  0.057863  0.106823  0  3.941314  0
C  C124  1  0.74317028  0.60223593  0.03060705  1  0.563638  0  0.056904  0.102395  0  3.937602  0
C  C125  1  0.62528397  0.60350725  0.03029297  1  -0.077147  0  -0.078994  -0.171454  0  3.946472  0
C  C126  1  0.56296234  0.58343707  0.06373745  1  0.062036  0  0.012253  0.099632  0  3.979392  0
C  C127  1  0.62630969  0.56310201  0.09666305  1  -0.078994  0  -0.079729  -0.173063  0  3.942575  0
C  C128  1  0.74431572  0.56292477  0.09444519  1  0.535142  0  0.057861  0.106857  0  3.941453  0
C  C129  1  0.74317056  0.57162793  0.60223659  1  0.572759  0  0.056856  0.102356  0  3.937478  0
C  C130  1  0.62528340  0.57321269  0.60350643  1  -0.079528  0  -0.078956  -0.171421  0  3.94635  0
C  C131  1  0.56296175  0.51969802  0.58343632  1  -0.091843  0  0.01217  0.099512  0  3.979403  0
C  C132  1  0.62630907  0.46643808  0.56310213  1  -0.086065  0  -0.079699  -0.172962  0  3.942599  0
C  C133  1  0.74431510  0.46847916  0.56292483  1  0.545172  0  0.057824  0.106731  0  3.941438  0
C  C134  1  0.74316962  0.03060738  0.42837091  1  0.565855  0  0.056882  0.102354  0  3.937558  0
C  C135  1  0.62528247  0.03029293  0.42678642  1  -0.08169  0  -0.07901  -0.171499  0  3.946393  0
C  C136  1  0.56296170  0.06373758  0.48030161  1  -0.091769  0  0.012169  0.099532  0  3.979434  0
C  C137  1  0.62630991  0.09666252  0.53356057  1  -0.046132  0  -0.079672  -0.17296  0  3.942605  0
C  C138  1  0.74431508  0.09444489  0.53151936  1  0.530027  0  0.057878  0.106852  0  3.941423  0
C  C139  1  0.74316904  0.39776429  0.96939328  1  0.563183  0  0.056925  0.102422  0  3.937687  0
C  C140  1  0.62528273  0.39649311  0.96970795  1  -0.077169  0  -0.079023  -0.171549  0  3.946396  0
C  C141  1  0.56296277  0.41656357  0.93626238  1  -0.090347  0  0.012198  0.099582  0  3.979361  0
C  C142  1  0.62630924  0.43689881  0.90333742  1  -0.078493  0  -0.079676  -0.172939  0  3.942626  0
C  C143  1  0.74431442  0.43707522  0.90555537  1  0.535312  0  0.057831  0.10676  0  3.94132  0
C  C144  1  0.99999440  0.61681407  0.55263085  1  1.51144  0  0.192969  0.558485  0  4.228399  0
C  C145  1  0.99999609  0.67109467  0.54489632  1  -0.002206  0  -0.031671  -0.021876  0  4.06004  0
C  C146  1  0.99999776  0.66369939  0.48716849  1  -0.092388  0  -0.11692  -0.25109  0  3.949461  0
C  C147  1  0.99999946  0.71418453  0.47874704  1  0.430452  0  0.10197  0.309879  0  4.088558  0
C  C148  1  0.00000026  0.77314842  0.53045422  1  0.030451  0  -0.036634  -0.154181  0  3.92587  0
C  C149  1  0.00000029  0.77911284  0.58809612  1  -0.097178  0  -0.09167  -0.077499  0  4.033622  0
C  C150  1  0.99999866  0.72933737  0.59608631  1  0.001977  0  -0.119821  -0.163881  0  4.051645  0
C  C151  1  0.00000026  0.82880982  0.52555008  1  1.465209  0  0.179788  0.561468  0  4.22  0
C  C152  1  0.00000104  0.93581832  0.38318485  1  1.509132  0  0.192887  0.558342  0  4.228275  0
C  C153  1  0.00000101  0.87380338  0.32890525  1  -0.012402  0  -0.031583  -0.021777  0  4.059952  0
C  C154  1  0.00000016  0.82347125  0.33630081  1  -0.084184  0  -0.116939  -0.251142  0  3.949448  0
C  C155  1  0.00000184  0.76456371  0.28581708  1  0.415142  0  0.101913  0.309916  0  4.088553  0
C  C156  1  0.00000181  0.75730682  0.22685293  1  0.042765  0  -0.036628  -0.154165  0  3.925984  0
C  C157  1  0.00000096  0.80898332  0.22088790  1  -0.06467  0  -0.091639  -0.077479  0  4.033641  0
C  C158  1  0.00000013  0.86674968  0.27066313  1  -0.014777  0  -0.119874  -0.163993  0  4.051715  0
C  C159  1  0.00000008  0.69674074  0.17119246  1  1.481618  0  0.179745  0.561369  0  4.219974  0
C  C160  1  0.99999670  0.44736826  0.06418409  1  1.523966  0  0.192976  0.558446  0  4.228379  0
C  C161  1  0.00000176  0.45510297  0.12619764  1  -0.02758  0  -0.031662  -0.021901  0  4.060047  0
C  C162  1  0.00000094  0.51283195  0.17653148  1  -0.075991  0  -0.116958  -0.251141  0  3.949361  0
C  C163  1  0.00000096  0.52125243  0.23543700  1  0.413016  0  0.10199  0.309901  0  4.088515  0
C  C164  1  0.00000436  0.46954537  0.24269383  1  0.027186  0  -0.036656  -0.154216  0  3.925908  0
C  C165  1  0.00000179  0.41190373  0.19101533  1  -0.04126  0  -0.091639  -0.077493  0  4.033614  0
C  C166  1  0.00000176  0.40391476  0.13325055  1  -0.028331  0  -0.119821  -0.163828  0  4.051661  0
C  C167  1  0.00000609  0.47445246  0.30325994  1  1.488056  0  0.179833  0.561481  0  4.219833  0
C  C168  1  0.00000107  0.38318472  0.44736847  1  1.511586  0  0.192938  0.558381  0  4.22848  0
C  C169  1  0.00000107  0.32890512  0.45510356  1  -0.002327  0  -0.031757  -0.021969  0  4.059998  0
C  C170  1  0.00000195  0.33630001  0.51283100  1  -0.092066  0  -0.116839  -0.250944  0  3.949451  0
C  C171  1  0.00000280  0.28581510  0.52125222  1  0.430015  0  0.101974  0.309872  0  4.088567  0
C  C172  1  0.00000363  0.22685131  0.46954552  1  0.030463  0  -0.036618  -0.154158  0  3.925897  0
C  C173  1  0.00000105  0.22088665  0.41190384  1  -0.097403  0  -0.09166  -0.077516  0  4.033633  0
C  C174  1  0.00000020  0.27066243  0.40391357  1  0.001985  0  -0.119779  -0.16377  0  4.051518  0
C  C175  1  0.00000533  0.17119068  0.47445044  1  1.4652  0  0.17979  0.561388  0  4.219896  0
C  C176  1  0.99999783  0.06418293  0.61681513  1  1.509055  0  0.192964  0.558391  0  4.228443  0
C  C177  1  0.99999615  0.12619826  0.67109513  1  -0.012305  0  -0.031696  -0.021916  0  4.059992  0
C  C178  1  0.99999700  0.17653062  0.66369934  1  -0.084313  0  -0.116893  -0.251073  0  3.949375  0
C  C179  1  0.99999702  0.23543764  0.71418436  1  0.415245  0  0.101878  0.309837  0  4.088628  0
C  C180  1  0.99999705  0.24269454  0.77314851  1  0.042623  0  -0.036589  -0.154155  0  3.92587  0
C  C181  1  0.99999621  0.19101686  0.77911236  1  -0.064648  0  -0.09169  -0.07752  0  4.033727  0
C  C182  1  0.99999703  0.13325095  0.72933668  1  -0.014619  0  -0.119817  -0.163829  0  4.051622  0
C  C183  1  0.99999963  0.30326124  0.82880915  1  1.481851  0  0.179683  0.56126  0  4.219883  0
C  C184  1  0.00000301  0.55263164  0.93581724  1  1.52391  0  0.192963  0.558484  0  4.228223  0
C  C185  1  0.00000128  0.54489753  0.87380288  1  -0.027508  0  -0.031561  -0.021816  0  4.059769  0
C  C186  1  0.99999963  0.48716846  0.82346857  1  -0.075773  0  -0.116968  -0.251127  0  3.949317  0
C  C187  1  0.00000207  0.47874807  0.76456352  1  0.412991  0  0.101909  0.309808  0  4.088634  0
C  C188  1  0.00000207  0.53045474  0.75730630  1  0.027142  0  -0.036602  -0.15418  0  3.925989  0
C  C189  1  0.99999962  0.58809640  0.80898578  1  -0.041151  0  -0.091705  -0.07757  0  4.033676  0
C  C190  1  0.99999965  0.59608633  0.86674882  1  -0.028542  0  -0.119803  -0.16379  0  4.051673  0
C  C191  1  0.00000204  0.52554642  0.69673986  1  1.487617  0  0.179793  0.561445  0  4.219844  0
N  N192  1  0.19803808  0.52010491  0.58189235  1  -1.215563  0  -0.316608  -0.21509  0  3.489088  0
N  N193  1  0.19803803  0.06178680  0.47989470  1  -1.213412  0  -0.316587  -0.215039  0  3.489075  0
N  N194  1  0.19803740  0.41810867  0.93821261  1  -1.204972  0  -0.316594  -0.215054  0  3.48908  0
N  N195  1  0.19803799  0.47989451  0.41810621  1  -1.215384  0  -0.31658  -0.215028  0  3.489105  0
N  N196  1  0.19803804  0.93821250  0.52010555  1  -1.21359  0  -0.316611  -0.215119  0  3.489174  0
N  N197  1  0.19803697  0.58189270  0.06178791  1  -1.204676  0  -0.316606  -0.215076  0  3.489143  0
N  N198  1  0.80196164  0.47989455  0.41810629  1  -1.215493  0  -0.316589  -0.215068  0  3.489081  0
N  N199  1  0.80196169  0.93821299  0.52010518  1  -1.213439  0  -0.316566  -0.214996  0  3.489116  0
N  N200  1  0.80196231  0.58189151  0.06178766  1  -1.204879  0  -0.316603  -0.215115  0  3.489156  0
N  N201  1  0.80196342  0.52010305  0.58189278  1  -1.215527  0  -0.316606  -0.215094  0  3.489084  0
N  N202  1  0.80196337  0.06178763  0.47989556  1  -1.213569  0  -0.316605  -0.215068  0  3.489106  0
N  N203  1  0.80196019  0.41810927  0.93821370  1  -1.204677  0  -0.316596  -0.215047  0  3.489113  0
N  N204  1  0.00000360  0.70680875  0.42225137  1  -1.352823  0  -0.611754  -0.642222  0  3.390267  0
N  N205  1  0.00000354  0.71544389  0.29319281  1  -1.330072  0  -0.611752  -0.642287  0  3.390166  0
N  N206  1  0.99999512  0.57774927  0.28455727  1  -1.33883  0  -0.611793  -0.642272  0  3.389969  0
N  N207  1  0.00000113  0.29319137  0.57774876  1  -1.352631  0  -0.611733  -0.642277  0  3.390002  0
N  N208  1  0.99999872  0.28455785  0.70680902  1  -1.330103  0  -0.611649  -0.642148  0  3.390246  0
N  N209  1  0.00000205  0.42225124  0.71544424  1  -1.33882  0  -0.61181  -0.642291  0  3.390022  0
O  O210  1  0.99999442  0.62537635  0.60622222  1  -1.141114  0  -0.330542  -0.54586  0  2.204048  0
O  O211  1  0.99999437  0.56372579  0.50646398  1  -1.20861  0  -0.348825  -0.611603  0  2.351412  0
O  O212  1  0.99999950  0.87989613  0.57385901  1  -1.127361  0  -0.345788  -0.554207  0  2.170452  0
O  O213  1  0.00000193  0.82474591  0.47302190  1  -1.164684  0  -0.34778  -0.592406  0  2.177018  0
O  O214  1  0.00000103  0.98084689  0.37462248  1  -1.144366  0  -0.33051  -0.545825  0  2.204039  0
O  O215  1  0.00000191  0.94274138  0.43627349  1  -1.195176  0  -0.348849  -0.61154  0  2.35122  0
O  O216  1  0.00000091  0.69396285  0.12010549  1  -1.140087  0  -0.345698  -0.554107  0  2.170463  0
O  O217  1  0.99999761  0.64827704  0.17525773  1  -1.171536  0  -0.347821  -0.592425  0  2.176943  0
O  O218  1  0.99999668  0.39377747  0.01915426  1  -1.145356  0  -0.330551  -0.54587  0  2.204075  0
O  O219  1  0.99999755  0.49353377  0.05726126  1  -1.201845  0  -0.348853  -0.611552  0  2.351248  0
O  O220  1  0.00000779  0.42614395  0.30603750  1  -1.138391  0  -0.345794  -0.554163  0  2.170323  0
O  O221  1  0.00000357  0.52698014  0.35172299  1  -1.181055  0  -0.347797  -0.592417  0  2.176985  0
O  O222  1  0.00000104  0.37462345  0.39377766  1  -1.141132  0  -0.330529  -0.54584  0  2.204147  0
O  O223  1  0.99999946  0.43627291  0.49353486  1  -1.208247  0  -0.348805  -0.611508  0  2.351314  0
O  O224  1  0.00000615  0.12010406  0.42614126  1  -1.127329  0  -0.345794  -0.554147  0  2.170413  0
O  O225  1  0.00000450  0.17525459  0.52697862  1  -1.164708  0  -0.34777  -0.592391  0  2.176923  0
O  O226  1  0.99999783  0.01915436  0.62537750  1  -1.144275  0  -0.330557  -0.545851  0  2.204129  0
O  O227  1  0.99999950  0.05726071  0.56372643  1  -1.194814  0  -0.348803  -0.611484  0  2.351268  0
O  O228  1  0.00000043  0.30603827  0.87989519  1  -1.140216  0  -0.345738  -0.554098  0  2.17043  0
O  O229  1  0.00000125  0.35172455  0.82474349  1  -1.171491  0  -0.347711  -0.592279  0  2.176814  0
O  O230  1  0.00000558  0.60622321  0.98084786  1  -1.145388  0  -0.330537  -0.545894  0  2.204024  0
O  O231  1  0.00000216  0.50646457  0.94273852  1  -1.20218  0  -0.348848  -0.611571  0  2.351292  0
O  O232  1  0.99999701  0.57385445  0.69396143  1  -1.138332  0  -0.345874  -0.554269  0  2.170219  0
O  O233  1  0.00000626  0.47301818  0.64827580  1  -1.180658  0  -0.347711  -0.592298  0  2.176926  0
