# generated using pymatgen
data_AgH4C8O2F7
_symmetry_space_group_name_H-M   'P 1'
_cell_length_a   9.68359601
_cell_length_b   9.93500660
_cell_length_c   15.05030115
_cell_angle_alpha   105.11777448
_cell_angle_beta   93.54451913
_cell_angle_gamma   117.57329176
_symmetry_Int_Tables_number   1
_chemical_formula_structural   AgH4C8O2F7
_chemical_formula_sum   'Ag4 H16 C32 O8 F28'
_cell_volume   1210.54165411
_cell_formula_units_Z   4
loop_
 _symmetry_equiv_pos_site_id
 _symmetry_equiv_pos_as_xyz
  1  'x, y, z'
loop_
 _atom_site_type_symbol
 _atom_site_label
 _atom_site_symmetry_multiplicity
 _atom_site_fract_x
 _atom_site_fract_y
 _atom_site_fract_z
 _atom_site_occupancy
 _atom_site_hle17_bader_spin_density
 _atom_site_hle17_ddec_charge
 _atom_site_hle17_ddec_spin_density
 _atom_site_hle17_ddec_sum_bond_order
 _atom_site_hle17_magmom
 _atom_site_hse06_10hf_bader_spin_density
 _atom_site_hse06_10hf_ddec_charge
 _atom_site_hse06_10hf_ddec_spin_density
 _atom_site_hse06_10hf_ddec_sum_bond_order
 _atom_site_hse06_10hf_magmom
 _atom_site_hse06_bader_spin_density
 _atom_site_hse06_ddec_charge
 _atom_site_hse06_ddec_spin_density
 _atom_site_hse06_ddec_sum_bond_order
 _atom_site_hse06_magmom
 _atom_site_pbe_bader_spin_density
 _atom_site_pbe_cm5_charge
 _atom_site_pbe_ddec_charge
 _atom_site_pbe_ddec_spin_density
 _atom_site_pbe_ddec_sum_bond_order
 _atom_site_pbe_magmom
Ag  Ag0  1  0.11369159  0.04006814  0.40663982  1  0  0.579096  0  1.538065  0  0  0.488755  0  1.988303  0  0  0.510525  0  1.937793  0  0  0.46876  0.473394  0  2.023255  0
Ag  Ag1  1  0.88630770  0.95993056  0.59336031  1  0  0.579057  0  1.538378  0  0  0.488775  0  1.988272  0  0  0.510543  0  1.937763  0  0  0.468785  0.473421  0  2.02323  0
Ag  Ag2  1  0.39322203  0.01909126  0.40070422  1  0  0.58962  0  1.473837  0  0  0.486281  0  1.922358  0  0  0.51177  0  1.870749  0  0  0.452394  0.468149  0  1.958165  0
Ag  Ag3  1  0.60677684  0.98090867  0.59929346  1  0  0.589599  0  1.4738  0  0  0.486242  0  1.922374  0  0  0.511731  0  1.870764  0  0  0.452367  0.468107  0  1.958189  0
H  H4  1  0.25965678  0.25681023  0.31953062  1  0  0.123629  0  0.917051  0  0  0.136069  0  0.965267  0  0  0.138976  0  0.964504  0  0  0.113789  0.13386  0  0.966073  0
H  H5  1  0.74034208  0.74318969  0.68046838  1  0  0.123657  0  0.917019  0  0  0.136093  0  0.965255  0  0  0.139001  0  0.964489  0  0  0.113798  0.133887  0  0.966061  0
H  H6  1  0.51688527  0.26409792  0.33630305  1  0  0.122728  0  0.928712  0  0  0.133944  0  0.980055  0  0  0.13697  0  0.979256  0  0  0.108794  0.131693  0  0.980821  0
H  H7  1  0.48311255  0.73590198  0.66369724  1  0  0.122672  0  0.928725  0  0  0.133904  0  0.98008  0  0  0.136931  0  0.979276  0  0  0.108768  0.131658  0  0.980833  0
H  H8  1  0.56811854  0.39913309  0.63799861  1  0  0.112603  0  0.918665  0  0  0.124364  0  0.972846  0  0  0.127711  0  0.971243  0  0  0.107894  0.121838  0  0.974281  0
H  H9  1  0.43187809  0.60086441  0.36200054  1  0  0.112725  0  0.918329  0  0  0.124352  0  0.972844  0  0  0.127699  0  0.97124  0  0  0.107885  0.121829  0  0.974278  0
H  H10  1  0.30825269  0.39044472  0.62159647  1  0  0.114984  0  0.933145  0  0  0.124545  0  0.992313  0  0  0.127996  0  0.990331  0  0  0.105113  0.121958  0  0.993933  0
H  H11  1  0.69174557  0.60955398  0.37840296  1  0  0.11563  0  0.932039  0  0  0.1246  0  0.992238  0  0  0.128051  0  0.990256  0  0  0.105138  0.122032  0  0.993839  0
H  H12  1  0.07284957  0.36509332  0.51005204  1  0  0.091745  0  0.93168  0  0  0.109397  0  0.989634  0  0  0.110569  0  0.990234  0  0  0.093657  0.108435  0  0.989308  0
H  H13  1  0.92714885  0.63490779  0.48994782  1  0  0.09174  0  0.931715  0  0  0.109394  0  0.989644  0  0  0.110566  0  0.990246  0  0  0.093667  0.108437  0  0.989316  0
H  H14  1  0.09125122  0.35568073  0.39260664  1  0  0.084807  0  0.947908  0  0  0.095538  0  1.017101  0  0  0.097726  0  1.015295  0  0  0.086116  0.093813  0  1.018579  0
H  H15  1  0.90874883  0.64432159  0.60739217  1  0  0.084789  0  0.947926  0  0  0.095532  0  1.017118  0  0  0.097722  0  1.01531  0  0  0.086104  0.093805  0  1.018598  0
H  H16  1  0.77152331  0.36044309  0.43509058  1  0  0.086164  0  0.948615  0  0  0.098553  0  1.013988  0  0  0.100247  0  1.013215  0  0  0.086973  0.097198  0  1.0147  0
H  H17  1  0.22847657  0.63955680  0.56491045  1  0  0.086144  0  0.948595  0  0  0.098531  0  1.01398  0  0  0.100224  0  1.013208  0  0  0.086961  0.097173  0  1.014692  0
H  H18  1  0.78446010  0.36868860  0.55461800  1  0  0.098079  0  0.954232  0  0  0.112708  0  1.015714  0  0  0.114418  0  1.015517  0  0  0.093386  0.111343  0  1.016009  0
H  H19  1  0.21553950  0.63131490  0.44538365  1  0  0.098053  0  0.954276  0  0  0.112669  0  1.015751  0  0  0.114377  0  1.015558  0  0  0.093374  0.111304  0  1.016044  0
C  C20  1  0.31584100  0.27104677  0.38914178  1  0  -0.171134  0  3.811578  0  0  -0.178807  0  4.072522  0  0  -0.182036  0  4.091423  0  0  -0.125211  -0.176671  0  4.059797  0
C  C21  1  0.68415844  0.72895433  0.61085879  1  0  -0.171135  0  3.811504  0  0  -0.178806  0  4.072448  0  0  -0.182034  0  4.091348  0  0  -0.125216  -0.176675  0  4.059729  0
C  C22  1  0.46612905  0.27491743  0.39895365  1  0  -0.189932  0  3.840419  0  0  -0.197994  0  4.10157  0  0  -0.203346  0  4.121821  0  0  -0.135293  -0.194447  0  4.087985  0
C  C23  1  0.53386981  0.72508248  0.60104535  1  0  -0.189886  0  3.840454  0  0  -0.197964  0  4.101612  0  0  -0.203318  0  4.121869  0  0  -0.135253  -0.194409  0  4.088027  0
C  C24  1  0.56627564  0.34022898  0.48900537  1  0  0.11226  0  3.695972  0  0  0.134397  0  3.930205  0  0  0.137257  0  3.952787  0  0  -0.013956  0.132351  0  3.914928  0
C  C25  1  0.43372440  0.65977333  0.51099476  1  0  0.112196  0  3.696035  0  0  0.134337  0  3.930233  0  0  0.137195  0  3.952818  0  0  -0.01399  0.13229  0  3.914952  0
C  C26  1  0.49835993  0.36439903  0.56805140  1  0  -0.082016  0  3.664068  0  0  -0.104069  0  3.915265  0  0  -0.106396  0  3.934964  0  0  -0.084711  -0.102663  0  3.902275  0
C  C27  1  0.50163936  0.63559967  0.43194807  1  0  -0.081677  0  3.663466  0  0  -0.103964  0  3.915222  0  0  -0.106289  0  3.93492  0  0  -0.08467  -0.102561  0  3.902237  0
C  C28  1  0.35275758  0.35946940  0.55902132  1  0  -0.081226  0  3.663949  0  0  -0.103245  0  3.916796  0  0  -0.104048  0  3.935882  0  0  -0.085863  -0.102801  0  3.904288  0
C  C29  1  0.64724127  0.64053049  0.44097967  1  0  -0.080949  0  3.662724  0  0  -0.103366  0  3.916832  0  0  -0.10417  0  3.935917  0  0  -0.085862  -0.102931  0  3.904317  0
C  C30  1  0.26618509  0.33004914  0.46995374  1  0  0.070669  0  3.737947  0  0  0.095462  0  3.979786  0  0  0.096544  0  4.001575  0  0  -0.037559  0.094552  0  3.965043  0
C  C31  1  0.73381599  0.66995317  0.53004644  1  0  0.07066  0  3.738025  0  0  0.095451  0  3.979779  0  0  0.096534  0  4.001568  0  0  -0.037607  0.094544  0  3.965039  0
C  C32  1  0.15900099  0.40138584  0.46502552  1  0  -0.140671  0  3.600772  0  0  -0.186356  0  3.856305  0  0  -0.187996  0  3.8688  0  0  -0.15868  -0.184949  0  3.847636  0
C  C33  1  0.84099786  0.59861407  0.53497415  1  0  -0.140656  0  3.600856  0  0  -0.186337  0  3.85635  0  0  -0.187978  0  3.868847  0  0  -0.158681  -0.184934  0  3.847684  0
C  C34  1  0.74383329  0.40764041  0.50167974  1  0  -0.153742  0  3.598102  0  0  -0.19502  0  3.846566  0  0  -0.197299  0  3.859218  0  0  -0.161557  -0.193196  0  3.837834  0
C  C35  1  0.25616512  0.59236069  0.49832144  1  0  -0.153712  0  3.598099  0  0  -0.194959  0  3.846549  0  0  -0.197237  0  3.859199  0  0  -0.161553  -0.193133  0  3.837812  0
C  C36  1  0.07119878  0.70329197  0.31070590  1  0  0.539881  0  4.003922  0  0  0.486021  0  4.300235  0  0  0.517919  0  4.297436  0  0  0.189952  0.464376  0  4.301407  0
C  C37  1  0.92880567  0.29670671  0.68929378  1  0  0.539781  0  4.004129  0  0  0.485974  0  4.300384  0  0  0.517872  0  4.297586  0  0  0.189919  0.464333  0  4.301562  0
C  C38  1  0.96854732  0.52042604  0.25368693  1  0  0.329647  0  3.624758  0  0  0.29281  0  3.917268  0  0  0.305559  0  3.90802  0  0  0.193704  0.283434  0  3.924311  0
C  C39  1  0.03145403  0.47957266  0.74631262  1  0  0.329537  0  3.624838  0  0  0.292732  0  3.917409  0  0  0.305475  0  3.908164  0  0  0.193704  0.283356  0  3.924461  0
C  C40  1  0.89480648  0.49318493  0.15083629  1  0  0.277359  0  3.702347  0  0  0.224826  0  4.009141  0  0  0.238565  0  3.99924  0  0  0.188888  0.214921  0  4.016664  0
C  C41  1  0.10519324  0.50681256  0.84916365  1  0  0.277452  0  3.702257  0  0  0.224928  0  4.009045  0  0  0.238672  0  3.999143  0  0  0.18887  0.215022  0  4.01657  0
C  C42  1  0.84856548  0.32801573  0.07688901  1  0  0.688909  0  3.722193  0  0  0.607796  0  4.075732  0  0  0.637314  0  4.049574  0  0  0.290294  0.586701  0  4.094737  0
C  C43  1  0.15143854  0.67198417  0.92310953  1  0  0.688774  0  3.722515  0  0  0.607707  0  4.076059  0  0  0.637229  0  4.049896  0  0  0.290258  0.586624  0  4.095043  0
C  C44  1  0.25597706  0.99071449  0.59940865  1  0  0.566913  0  3.950805  0  0  0.516106  0  4.238282  0  0  0.546418  0  4.237598  0  0  0.201708  0.495604  0  4.237914  0
C  C45  1  0.74402093  0.00928783  0.40059073  1  0  0.567334  0  3.949733  0  0  0.516116  0  4.238268  0  0  0.546426  0  4.237579  0  0  0.201697  0.495616  0  4.237902  0
C  C46  1  0.27010554  0.99878789  0.70544430  1  0  0.322292  0  3.630092  0  0  0.28377  0  3.925102  0  0  0.297706  0  3.914461  0  0  0.191724  0.273579  0  3.933177  0
C  C47  1  0.72989495  0.00121321  0.29455564  1  0  0.323179  0  3.628238  0  0  0.283827  0  3.925106  0  0  0.297765  0  3.914463  0  0  0.191735  0.273635  0  3.933194  0
C  C48  1  0.37760193  0.17450141  0.77372104  1  0  0.270351  0  3.700632  0  0  0.21871  0  4.005528  0  0  0.232299  0  3.995423  0  0  0.188541  0.208791  0  4.0136  0
C  C49  1  0.62240019  0.82550090  0.22627852  1  0  0.273653  0  3.696815  0  0  0.218757  0  4.005639  0  0  0.232344  0  3.995525  0  0  0.188548  0.208836  0  4.013709  0
C  C50  1  0.38027900  0.20435974  0.88125656  1  0  0.68981  0  3.720934  0  0  0.609966  0  4.070757  0  0  0.639551  0  4.044944  0  0  0.29206  0.588669  0  4.089883  0
C  C51  1  0.61972311  0.79564255  0.11874498  1  0  0.690941  0  3.718505  0  0  0.609927  0  4.070917  0  0  0.639523  0  4.045075  0  0  0.292078  0.58864  0  4.090022  0
O  O52  1  0.99094491  0.77326461  0.32781663  1  0  -0.553222  0  2.088187  0  0  -0.504827  0  2.355338  0  0  -0.532054  0  2.344426  0  0  -0.318355  -0.48571  0  2.362075  0
O  O53  1  0.00904903  0.22673165  0.67218819  1  0  -0.553839  0  2.089375  0  0  -0.504772  0  2.355551  0  0  -0.531993  0  2.344638  0  0  -0.318305  -0.485656  0  2.362293  0
O  O54  1  0.21894369  0.75637415  0.33089540  1  0  -0.550357  0  2.128028  0  0  -0.494892  0  2.393227  0  0  -0.522414  0  2.381963  0  0  -0.313347  -0.47555  0  2.400187  0
O  O55  1  0.78105312  0.24362580  0.66910021  1  0  -0.550373  0  2.127868  0  0  -0.494914  0  2.393109  0  0  -0.52244  0  2.381848  0  0  -0.31338  -0.475579  0  2.400074  0
O  O56  1  0.13175206  0.98028088  0.55955825  1  0  -0.569402  0  2.142092  0  0  -0.514039  0  2.423008  0  0  -0.541343  0  2.411959  0  0  -0.314817  -0.494795  0  2.429855  0
O  O57  1  0.86824875  0.01972503  0.44044254  1  0  -0.569166  0  2.141297  0  0  -0.514044  0  2.422974  0  0  -0.541348  0  2.411924  0  0  -0.314785  -0.49479  0  2.429809  0
O  O58  1  0.37325516  0.99849045  0.56447047  1  0  -0.579952  0  2.149875  0  0  -0.520963  0  2.43369  0  0  -0.549777  0  2.423383  0  0  -0.316681  -0.500552  0  2.439855  0
O  O59  1  0.62674104  0.00150827  0.43552822  1  0  -0.579911  0  2.149716  0  0  -0.520986  0  2.433726  0  0  -0.549819  0  2.423464  0  0  -0.316685  -0.500566  0  2.439879  0
F  F60  1  0.84661132  0.44657133  0.29719554  1  0  -0.205741  0  1.185686  0  0  -0.170808  0  1.354306  0  0  -0.17947  0  1.34127  0  0  -0.104558  -0.16446  0  1.363346  0
F  F61  1  0.15338972  0.55342254  0.70280316  1  0  -0.205734  0  1.185767  0  0  -0.170803  0  1.354374  0  0  -0.179464  0  1.341338  0  0  -0.104565  -0.164453  0  1.363415  0
F  F62  1  0.05790862  0.44547158  0.24999476  1  0  -0.198725  0  1.191673  0  0  -0.164936  0  1.355598  0  0  -0.173465  0  1.342261  0  0  -0.105197  -0.158735  0  1.3649  0
F  F63  1  0.94209541  0.55452832  0.75000378  1  0  -0.198678  0  1.191696  0  0  -0.164897  0  1.355623  0  0  -0.173424  0  1.342287  0  0  -0.105171  -0.158693  0  1.364927  0
F  F64  1  0.76042167  0.50579628  0.15072762  1  0  -0.170692  0  1.215486  0  0  -0.143567  0  1.380572  0  0  -0.150948  0  1.366464  0  0  -0.099803  -0.138213  0  1.390413  0
F  F65  1  0.23957464  0.49419640  0.84927201  1  0  -0.171463  0  1.216103  0  0  -0.143598  0  1.38056  0  0  -0.150981  0  1.366451  0  0  -0.099794  -0.138241  0  1.390402  0
F  F66  1  0.00362284  0.61143502  0.12115105  1  0  -0.172529  0  1.205526  0  0  -0.141681  0  1.369814  0  0  -0.150099  0  1.356164  0  0  -0.097466  -0.135613  0  1.379318  0
F  F67  1  0.99637438  0.38856369  0.87884834  1  0  -0.172557  0  1.20541  0  0  -0.141708  0  1.369724  0  0  -0.150127  0  1.356073  0  0  -0.097452  -0.135633  0  1.379229  0
F  F68  1  0.76676791  0.31137905  0.99491195  1  0  -0.219449  0  1.183419  0  0  -0.190168  0  1.351047  0  0  -0.199504  0  1.332857  0  0  -0.098395  -0.183467  0  1.363796  0
F  F69  1  0.23323182  0.68861845  0.00508733  1  0  -0.219383  0  1.183512  0  0  -0.190112  0  1.35113  0  0  -0.199449  0  1.33294  0  0  -0.098349  -0.183407  0  1.363872  0
F  F70  1  0.75429028  0.20693483  0.10822311  1  0  -0.225217  0  1.184697  0  0  -0.197616  0  1.354844  0  0  -0.206587  0  1.336112  0  0  -0.102082  -0.191175  0  1.367979  0
F  F71  1  0.24571506  0.79306146  0.89177420  1  0  -0.225199  0  1.184871  0  0  -0.197609  0  1.355022  0  0  -0.206581  0  1.336289  0  0  -0.102079  -0.191166  0  1.368152  0
F  F72  1  0.97881358  0.31653250  0.06014183  1  0  -0.219042  0  1.157278  0  0  -0.190939  0  1.315497  0  0  -0.199905  0  1.298569  0  0  -0.099284  -0.184537  0  1.327447  0
F  F73  1  0.02119224  0.68347101  0.93985609  1  0  -0.219001  0  1.157342  0  0  -0.19091  0  1.315543  0  0  -0.199877  0  1.298615  0  0  -0.099267  -0.184509  0  1.32749  0
F  F74  1  0.33435776  0.90703356  0.72132230  1  0  -0.205605  0  1.210751  0  0  -0.174887  0  1.386315  0  0  -0.182855  0  1.37151  0  0  -0.105417  -0.16908  0  1.396666  0
F  F75  1  0.66564272  0.09296755  0.27867698  1  0  -0.205619  0  1.210512  0  0  -0.174907  0  1.386262  0  0  -0.182874  0  1.371457  0  0  -0.105439  -0.169101  0  1.396617  0
F  F76  1  0.12218608  0.93730454  0.72765185  1  0  -0.202274  0  1.201872  0  0  -0.170848  0  1.376147  0  0  -0.178618  0  1.360879  0  0  -0.104734  -0.165222  0  1.386872  0
F  F77  1  0.87781472  0.06270137  0.27234894  1  0  -0.202124  0  1.201346  0  0  -0.170869  0  1.376216  0  0  -0.178639  0  1.360946  0  0  -0.104729  -0.165247  0  1.386945  0
F  F78  1  0.53116420  0.22528259  0.76318607  1  0  -0.165027  0  1.228303  0  0  -0.136529  0  1.402052  0  0  -0.143848  0  1.387821  0  0  -0.09064  -0.131205  0  1.412041  0
F  F79  1  0.46883834  0.77471849  0.23681528  1  0  -0.164047  0  1.226753  0  0  -0.136521  0  1.402009  0  0  -0.143838  0  1.387778  0  0  -0.090621  -0.131197  0  1.411998  0
F  F80  1  0.32786379  0.26958590  0.74749873  1  0  -0.164673  0  1.234155  0  0  -0.132735  0  1.408034  0  0  -0.141488  0  1.395491  0  0  -0.086305  -0.126358  0  1.416762  0
F  F81  1  0.67214261  0.73041879  0.25250274  1  0  -0.175159  0  1.243163  0  0  -0.132746  0  1.408081  0  0  -0.141498  0  1.395536  0  0  -0.086304  -0.126373  0  1.41681  0
F  F82  1  0.42581103  0.11171874  0.91193232  1  0  -0.216224  0  1.184768  0  0  -0.188153  0  1.351764  0  0  -0.197709  0  1.333918  0  0  -0.09714  -0.181257  0  1.364368  0
F  F83  1  0.57418945  0.88828236  0.08806762  1  0  -0.216324  0  1.184438  0  0  -0.188169  0  1.351754  0  0  -0.197728  0  1.333901  0  0  -0.097166  -0.181276  0  1.364354  0
F  F84  1  0.48641556  0.36061411  0.92899024  1  0  -0.21559  0  1.162189  0  0  -0.187481  0  1.323786  0  0  -0.196543  0  1.306002  0  0  -0.097736  -0.180934  0  1.336362  0
F  F85  1  0.51358802  0.63938698  0.07101049  1  0  -0.215326  0  1.161263  0  0  -0.187487  0  1.323771  0  0  -0.196552  0  1.305981  0  0  -0.097745  -0.180945  0  1.336344  0
F  F86  1  0.23573719  0.17285682  0.90003132  1  0  -0.217506  0  1.14527  0  0  -0.189431  0  1.299871  0  0  -0.198259  0  1.283105  0  0  -0.098965  -0.183075  0  1.311788  0
F  F87  1  0.76426552  0.82714668  0.09996913  1  0  -0.217252  0  1.144449  0  0  -0.189425  0  1.299913  0  0  -0.198256  0  1.283141  0  0  -0.098983  -0.183071  0  1.311825  0
