# generated using pymatgen
data_CdH24C28N2O7
_symmetry_space_group_name_H-M   'P 1'
_cell_length_a   10.11013294
_cell_length_b   12.32109386
_cell_length_c   12.83820232
_cell_angle_alpha   93.05604172
_cell_angle_beta   94.27146204
_cell_angle_gamma   94.73646410
_symmetry_Int_Tables_number   1
_chemical_formula_structural   CdH24C28N2O7
_chemical_formula_sum   'Cd2 H48 C56 N4 O14'
_cell_volume   1586.49219921
_cell_formula_units_Z   2
loop_
 _symmetry_equiv_pos_site_id
 _symmetry_equiv_pos_as_xyz
  1  'x, y, z'
loop_
 _atom_site_type_symbol
 _atom_site_label
 _atom_site_symmetry_multiplicity
 _atom_site_fract_x
 _atom_site_fract_y
 _atom_site_fract_z
 _atom_site_occupancy
 _atom_site_pbe_bader_charge
 _atom_site_pbe_bader_spin_density
 _atom_site_pbe_cm5_charge
 _atom_site_pbe_ddec_charge
 _atom_site_pbe_ddec_spin_density
 _atom_site_pbe_ddec_sum_bond_order
 _atom_site_pbe_magmom
Cd  Cd0  1  0.96621851  0.16526007  0.12580059  1  1.269148  0  0.764043  0.871707  0  2.163735  0
Cd  Cd1  1  0.03378644  0.83473973  0.87419869  1  1.269112  0  0.764092  0.871792  0  2.163663  0
H  H2  1  0.15877047  0.98313461  0.50969238  1  0.093701  0  0.103816  0.107017  0  1.00558  0
H  H3  1  0.84122274  0.01686672  0.49031255  1  0.093701  0  0.103834  0.107051  0  1.005694  0
H  H4  1  0.20942733  0.00596130  0.70232687  1  0.095473  0  0.10382  0.111456  0  1.030234  0
H  H5  1  0.79057604  0.99404252  0.29767879  1  0.094998  0  0.103795  0.111412  0  1.030256  0
H  H6  1  0.58267163  0.18624670  0.65657676  1  0.041514  0  0.098374  0.098744  0  1.015055  0
H  H7  1  0.41733084  0.81374822  0.34341976  1  0.041439  0  0.098409  0.098794  0  1.01508  0
H  H8  1  0.52696971  0.16728323  0.46398012  1  0.074829  0  0.101154  0.101836  0  1.019092  0
H  H9  1  0.47303482  0.83271249  0.53601890  1  0.074798  0  0.101139  0.1018  0  1.019235  0
H  H10  1  0.21944359  0.11866962  0.83514663  1  0.113893  0  0.106133  0.110203  0  1.045813  0
H  H11  1  0.78056731  0.88133017  0.16485689  1  0.113726  0  0.106096  0.110107  0  1.045795  0
H  H12  1  0.49035822  0.16095309  0.11198293  1  0.145136  0  0.106084  0.114822  0  1.01596  0
H  H13  1  0.50964540  0.83905317  0.88802289  1  0.145213  0  0.106089  0.114839  0  1.015841  0
H  H14  1  0.64247942  0.10581220  0.81281977  1  0.127364  0  0.102485  0.107729  0  1.035886  0
H  H15  1  0.35752876  0.89419003  0.18718373  1  0.12715  0  0.102512  0.107797  0  1.035926  0
H  H16  1  0.78936671  0.36675893  0.11848405  1  0.119609  0  0.115719  0.090651  0  1.003355  0
H  H17  1  0.21063254  0.63324322  0.88152439  1  0.119714  0  0.115712  0.090634  0  1.003331  0
H  H18  1  0.80662414  0.57042871  0.14913413  1  0.067977  0  0.109892  0.118701  0  0.982554  0
H  H19  1  0.19337321  0.42957420  0.85087970  1  0.067821  0  0.1099  0.118719  0  0.982644  0
H  H20  1  0.23282048  0.56617738  0.14869946  1  0.067232  0  0.1082  0.115236  0  0.990005  0
H  H21  1  0.76717660  0.43382326  0.85129241  1  0.067154  0  0.10821  0.115259  0  0.990015  0
H  H22  1  0.19770875  0.36312622  0.11756777  1  0.133938  0  0.11367  0.087088  0  1.006066  0
H  H23  1  0.80228652  0.63687605  0.88242331  1  0.133794  0  0.11368  0.087087  0  1.006056  0
H  H24  1  0.14244404  0.73751552  0.17333014  1  0.069569  0  0.094863  0.103325  0  0.987666  0
H  H25  1  0.85755388  0.26248343  0.82667025  1  0.06951  0  0.09484  0.103323  0  0.987675  0
H  H26  1  0.97755202  0.74823660  0.12332542  1  0.099922  0  0.100627  0.119247  0  1.019575  0
H  H27  1  0.02245035  0.25176730  0.87667006  1  0.100004  0  0.100619  0.119237  0  1.019575  0
H  H28  1  0.02864919  0.82199760  0.31076570  1  0.093246  0  0.096062  0.103677  0  0.994358  0
H  H29  1  0.97134617  0.17800542  0.68923399  1  0.093189  0  0.096058  0.103694  0  0.994387  0
H  H30  1  0.89029943  0.72392854  0.29344273  1  0.027028  0  0.087664  0.077901  0  0.993408  0
H  H31  1  0.10969493  0.27607449  0.70655535  1  0.027113  0  0.087678  0.077908  0  0.993368  0
H  H32  1  0.17222855  0.66465479  0.36014374  1  0.026483  0  0.092997  0.090512  0  0.982921  0
H  H33  1  0.82776755  0.33534581  0.63985196  1  0.026446  0  0.092992  0.090505  0  0.982926  0
H  H34  1  0.02263782  0.58033835  0.36030875  1  0.03664  0  0.094117  0.095005  0  0.987147  0
H  H35  1  0.97735621  0.41966143  0.63968756  1  0.036515  0  0.094116  0.095032  0  0.987243  0
H  H36  1  0.26470296  0.73869057  0.52187204  1  0.055642  0  0.10618  0.113127  0  1.008792  0
H  H37  1  0.73529661  0.26131493  0.47812570  1  0.055633  0  0.1062  0.113156  0  1.008815  0
H  H38  1  0.23951454  0.80374029  0.70687937  1  0.134984  0  0.119957  0.101332  0  1.010325  0
H  H39  1  0.76048164  0.19626112  0.29311794  1  0.134916  0  0.119981  0.101369  0  1.010389  0
H  H40  1  0.82906426  0.75067088  0.66429986  1  0.117397  0  0.115318  0.085804  0  1.009554  0
H  H41  1  0.17093572  0.24932892  0.33569680  1  0.117412  0  0.115305  0.085803  0  1.0095  0
H  H42  1  0.83641617  0.68354954  0.47854820  1  0.056409  0  0.10925  0.11906  0  0.987291  0
H  H43  1  0.16357869  0.31644862  0.52144651  1  0.056522  0  0.109282  0.119138  0  0.987227  0
H  H44  1  0.08345503  0.98864543  0.21322070  1  0.654655  0  0.295689  0.396408  0  0.932316  0
H  H45  1  0.91654289  0.01135350  0.78678124  1  0.654653  0  0.295673  0.39635  0  0.932389  0
H  H46  1  0.98394237  0.93980794  0.11540157  1  0.656918  0  0.30085  0.403279  0  0.923144  0
H  H47  1  0.01605571  0.06019264  0.88459892  1  0.656736  0  0.300844  0.403253  0  0.923179  0
H  H48  1  0.32996421  0.13631658  0.23176949  1  0.661637  0  0.301475  0.372741  0  0.972913  0
H  H49  1  0.67003719  0.86367748  0.76823159  1  0.661664  0  0.301435  0.372615  0  0.97308  0
C  C50  1  0.30219315  0.06306030  0.36055954  1  1.518329  0  0.228302  0.575624  0  4.145499  0
C  C51  1  0.69779949  0.93692556  0.63944134  1  1.519397  0  0.228334  0.575563  0  4.145786  0
C  C52  1  0.33921853  0.07446404  0.47501513  1  0.014702  0  -0.025909  -0.06464  0  4.019612  0
C  C53  1  0.66078088  0.92553004  0.52498272  1  0.014788  0  -0.025941  -0.064519  0  4.019412  0
C  C54  1  0.25086552  0.02831295  0.54288418  1  -0.054465  0  -0.082374  -0.087167  0  3.989418  0
C  C55  1  0.74913827  0.97168518  0.45711961  1  -0.054554  0  -0.08241  -0.087287  0  3.989466  0
C  C56  1  0.28007426  0.04087728  0.65051896  1  -0.066768  0  -0.087528  -0.130744  0  3.948723  0
C  C57  1  0.71992962  0.95912167  0.34948411  1  -0.066174  0  -0.087465  -0.130684  0  3.948613  0
C  C58  1  0.39987598  0.09784859  0.69358527  1  -0.044881  0  -0.00027  0.086207  0  3.972454  0
C  C59  1  0.60012972  0.90214874  0.30641625  1  -0.044893  0  -0.000266  0.086386  0  3.972298  0
C  C60  1  0.48910355  0.14217126  0.62478533  1  -0.020149  0  -0.095459  -0.143419  0  3.989249  0
C  C61  1  0.51089396  0.85782362  0.37521324  1  -0.02021  0  -0.095507  -0.143572  0  3.989249  0
C  C62  1  0.45841359  0.13202016  0.51706973  1  -0.045463  0  -0.086222  -0.087453  0  3.997497  0
C  C63  1  0.54158359  0.86797145  0.48292940  1  -0.045459  0  -0.086222  -0.087481  0  3.997587  0
C  C64  1  0.42736803  0.11286709  0.80844162  1  0.018714  0  -0.010041  0.0593  0  4.000401  0
C  C65  1  0.57264387  0.88713272  0.19156041  1  0.018638  0  -0.010068  0.059173  0  4.000322  0
C  C66  1  0.32076780  0.12316698  0.87116679  1  -0.030716  0  -0.076645  -0.12363  0  3.902531  0
C  C67  1  0.67924012  0.87683279  0.12883734  1  -0.030707  0  -0.076608  -0.123425  0  3.902348  0
C  C68  1  0.34137000  0.13986299  0.97995201  1  0.00174  0  -0.023754  -0.04131  0  4.011908  0
C  C69  1  0.65863428  0.86014004  0.02005132  1  0.001877  0  -0.023659  -0.041387  0  4.01199  0
C  C70  1  0.47087936  0.14695151  0.02761695  1  -0.109015  0  -0.075323  -0.103294  0  3.927557  0
C  C71  1  0.52912699  0.85305232  0.97238810  1  -0.108944  0  -0.075352  -0.103269  0  3.92768  0
C  C72  1  0.57817461  0.13464313  0.96664011  1  0.014024  0  -0.021058  -0.029103  0  3.995486  0
C  C73  1  0.42182869  0.86535987  0.03336550  1  0.013528  0  -0.021077  -0.029064  0  3.995449  0
C  C74  1  0.55671100  0.11761739  0.85770181  1  -0.123033  0  -0.076074  -0.129315  0  3.902308  0
C  C75  1  0.44329511  0.88238401  0.14230230  1  -0.122332  0  -0.07611  -0.129398  0  3.902103  0
C  C76  1  0.22443633  0.15145274  0.04280641  1  1.561802  0  0.20992  0.580886  0  4.187808  0
C  C77  1  0.77556572  0.84854784  0.95719587  1  1.56173  0  0.209871  0.580759  0  4.188029  0
C  C78  1  0.71626402  0.13926920  0.01888825  1  1.56862  0  0.186743  0.551305  0  4.247365  0
C  C79  1  0.28374126  0.86073384  0.98111435  1  1.568672  0  0.186707  0.551077  0  4.247769  0
C  C80  1  0.88554465  0.41498956  0.12504442  1  0.491044  0  0.040747  0.087193  0  3.983551  0
C  C81  1  0.11444980  0.58501424  0.87495995  1  0.491026  0  0.04082  0.087338  0  3.983467  0
C  C82  1  0.89627658  0.52767640  0.14274738  1  -0.006412  0  -0.086721  -0.189293  0  3.94966  0
C  C83  1  0.10372325  0.47232170  0.85725774  1  -0.006073  0  -0.086753  -0.189422  0  3.94963  0
C  C84  1  0.02236471  0.58580281  0.15318329  1  -0.045647  0  0.016287  0.179304  0  3.944096  0
C  C85  1  0.97763644  0.41419861  0.84681509  1  -0.045712  0  0.016356  0.179505  0  3.943976  0
C  C86  1  0.13237270  0.52527944  0.14239815  1  -0.097647  0  -0.087862  -0.196044  0  3.9659  0
C  C87  1  0.86762282  0.47472524  0.85759854  1  -0.097622  0  -0.08787  -0.196087  0  3.965849  0
C  C88  1  0.11366986  0.41257935  0.12430319  1  0.496935  0  0.04189  0.092264  0  3.986601  0
C  C89  1  0.88632714  0.58742044  0.87569174  1  0.497054  0  0.041857  0.092209  0  3.986689  0
C  C90  1  0.03863096  0.70619945  0.18018514  1  -0.061239  0  -0.163146  -0.217581  0  3.922326  0
C  C91  1  0.96136637  0.29380359  0.81981311  1  -0.061226  0  -0.163103  -0.217605  0  3.922494  0
C  C92  1  0.99925461  0.73501514  0.29133359  1  -0.050192  0  -0.159017  -0.131572  0  3.904379  0
C  C93  1  0.00073950  0.26498543  0.70866589  1  -0.050142  0  -0.159007  -0.13156  0  3.904342  0
C  C94  1  0.06571995  0.66565093  0.37281762  1  -0.003981  0  -0.158907  -0.20217  0  3.96365  0
C  C95  1  0.93427441  0.33435212  0.62717813  1  -0.003809  0  -0.158976  -0.202251  0  3.96355  0
C  C96  1  0.05281640  0.70501505  0.48386510  1  0.05108  0  0.013956  0.170681  0  3.955929  0
C  C97  1  0.94718168  0.29498557  0.51612994  1  0.051345  0  0.014074  0.17081  0  3.95553  0
C  C98  1  0.16588565  0.73995413  0.55043081  1  -0.043289  0  -0.086769  -0.191018  0  3.96031  0
C  C99  1  0.83410953  0.26004729  0.44956489  1  -0.043392  0  -0.086881  -0.191164  0  3.96021  0
C  C100  1  0.15294884  0.77686884  0.65311944  1  0.470568  0  0.045642  0.092632  0  3.962967  0
C  C101  1  0.84704841  0.22313340  0.34687564  1  0.471238  0  0.045656  0.092673  0  3.962987  0
C  C102  1  0.92386937  0.74735089  0.62937672  1  0.467654  0  0.042208  0.091715  0  3.975661  0
C  C103  1  0.07612565  0.25264887  0.37062121  1  0.467593  0  0.042317  0.091849  0  3.975855  0
C  C104  1  0.92893946  0.70928107  0.52590404  1  -0.074321  0  -0.086569  -0.188305  0  3.942738  0
C  C105  1  0.07105821  0.29071547  0.47409073  1  -0.074568  0  -0.086714  -0.188545  0  3.943041  0
N  N106  1  0.03364716  0.78127931  0.69226312  1  -1.240196  0  -0.328134  -0.246755  0  3.491013  0
N  N107  1  0.96635084  0.21872050  0.30773187  1  -1.240904  0  -0.328138  -0.246756  0  3.491016  0
N  N108  1  0.99249596  0.35783809  0.11633984  1  -1.250774  0  -0.333724  -0.25733  0  3.522242  0
N  N109  1  0.00750221  0.64216331  0.88365993  1  -1.250959  0  -0.333785  -0.25742  0  3.522393  0
O  O110  1  0.99291332  0.99015445  0.17841369  1  -1.26262  0  -0.58077  -0.748399  0  2.097328  0
O  O111  1  0.00708460  0.00984448  0.82158903  1  -1.26241  0  -0.580783  -0.748376  0  2.097444  0
O  O112  1  0.20924836  0.99797617  0.32143299  1  -1.169868  0  -0.292803  -0.517244  0  2.172451  0
O  O113  1  0.79074122  0.00201866  0.67856746  1  -1.171015  0  -0.292868  -0.517314  0  2.172472  0
O  O114  1  0.37529837  0.13076930  0.30577008  1  -1.178562  0  -0.339639  -0.498887  0  2.289139  0
O  O115  1  0.62470023  0.86921663  0.69422491  1  -1.178471  0  -0.339551  -0.498688  0  2.289421  0
O  O116  1  0.10856290  0.14428609  0.99448960  1  -1.167185  0  -0.313426  -0.548069  0  2.330682  0
O  O117  1  0.89144138  0.85571700  0.00550673  1  -1.167158  0  -0.313459  -0.54807  0  2.330807  0
O  O118  1  0.24023412  0.17232624  0.14161286  1  -1.212363  0  -0.323244  -0.581935  0  2.262939  0
O  O119  1  0.75975976  0.82767184  0.85839114  1  -1.212287  0  -0.323187  -0.581753  0  2.262992  0
O  O120  1  0.81098100  0.11347913  0.96584646  1  -1.175766  0  -0.330297  -0.55254  0  2.182181  0
O  O121  1  0.18902411  0.88652226  0.03415760  1  -1.175635  0  -0.330273  -0.55246  0  2.182241  0
O  O122  1  0.73289365  0.17091967  0.11635109  1  -1.180975  0  -0.342453  -0.576528  0  2.20818  0
O  O123  1  0.26711659  0.82908338  0.88365258  1  -1.181191  0  -0.342441  -0.576426  0  2.208431  0
