# generated using pymatgen
data_CuH6C5N2Cl
_symmetry_space_group_name_H-M   'P 1'
_cell_length_a   7.55490930
_cell_length_b   8.07449494
_cell_length_c   11.07233983
_cell_angle_alpha   89.99940776
_cell_angle_beta   90.00050952
_cell_angle_gamma   109.75917858
_symmetry_Int_Tables_number   1
_chemical_formula_structural   CuH6C5N2Cl
_chemical_formula_sum   'Cu4 H24 C20 N8 Cl4'
_cell_volume   635.66733406
_cell_formula_units_Z   4
loop_
 _symmetry_equiv_pos_site_id
 _symmetry_equiv_pos_as_xyz
  1  'x, y, z'
loop_
 _atom_site_type_symbol
 _atom_site_label
 _atom_site_symmetry_multiplicity
 _atom_site_fract_x
 _atom_site_fract_y
 _atom_site_fract_z
 _atom_site_occupancy
 _atom_site_hle17_bader_spin_density
 _atom_site_hle17_ddec_charge
 _atom_site_hle17_ddec_spin_density
 _atom_site_hle17_ddec_sum_bond_order
 _atom_site_hle17_magmom
 _atom_site_hse06_10hf_bader_spin_density
 _atom_site_hse06_10hf_ddec_charge
 _atom_site_hse06_10hf_ddec_spin_density
 _atom_site_hse06_10hf_ddec_sum_bond_order
 _atom_site_hse06_10hf_magmom
 _atom_site_hse06_bader_spin_density
 _atom_site_hse06_ddec_charge
 _atom_site_hse06_ddec_spin_density
 _atom_site_hse06_ddec_sum_bond_order
 _atom_site_hse06_magmom
 _atom_site_pbe_bader_spin_density
 _atom_site_pbe_cm5_charge
 _atom_site_pbe_ddec_charge
 _atom_site_pbe_ddec_spin_density
 _atom_site_pbe_ddec_sum_bond_order
 _atom_site_pbe_magmom
Cu  Cu0  1  0.17618181  0.99553692  0.03195749  1  0  0.431714  0  1.890242  0  0  0.322568  0  2.356087  0  0  0.322181  0  2.314568  0  0  0.448097  0.32657  0  2.380821  0
Cu  Cu1  1  0.67618246  0.99554328  0.46804030  1  0  0.431625  0  1.890032  0  0  0.322506  0  2.355863  0  0  0.322115  0  2.314313  0  0  0.448036  0.326474  0  2.380669  0
Cu  Cu2  1  0.82382570  0.00445783  0.96804091  1  0  0.431695  0  1.889989  0  0  0.322554  0  2.355821  0  0  0.322153  0  2.314267  0  0  0.448065  0.326531  0  2.38064  0
Cu  Cu3  1  0.32382382  0.00446211  0.53195539  1  0  0.431737  0  1.890343  0  0  0.322589  0  2.356194  0  0  0.322184  0  2.314666  0  0  0.448122  0.32659  0  2.380923  0
H  H4  1  0.83774968  0.54618786  0.53788592  1  0  0.127326  0  0.957922  0  0  0.148684  0  1.014252  0  0  0.14988  0  1.015175  0  0  0.091908  0.147694  0  1.013852  0
H  H5  1  0.33776399  0.54618170  0.96211901  1  0  0.127291  0  0.957932  0  0  0.148686  0  1.014201  0  0  0.149872  0  1.015135  0  0  0.091929  0.147695  0  1.013799  0
H  H6  1  0.16224072  0.45382448  0.46212152  1  0  0.127368  0  0.958065  0  0  0.148752  0  1.014308  0  0  0.149945  0  1.015235  0  0  0.092001  0.147759  0  1.013906  0
H  H7  1  0.66224371  0.45381702  0.03787759  1  0  0.127328  0  0.95789  0  0  0.148741  0  1.014144  0  0  0.149929  0  1.015075  0  0  0.091942  0.14775  0  1.013744  0
H  H8  1  0.84577136  0.76419798  0.56877290  1  0  0.128615  0  0.959096  0  0  0.141705  0  1.037976  0  0  0.145982  0  1.033855  0  0  0.091514  0.138613  0  1.040226  0
H  H9  1  0.34577451  0.76418444  0.93121688  1  0  0.128618  0  0.959131  0  0  0.141657  0  1.038056  0  0  0.145932  0  1.033935  0  0  0.091478  0.138562  0  1.040303  0
H  H10  1  0.15422317  0.23581825  0.43122009  1  0  0.128548  0  0.959077  0  0  0.141557  0  1.038051  0  0  0.145835  0  1.033928  0  0  0.091454  0.13846  0  1.0403  0
H  H11  1  0.65421735  0.23580400  0.06878424  1  0  0.128587  0  0.959085  0  0  0.141667  0  1.037977  0  0  0.145944  0  1.033854  0  0  0.091487  0.138572  0  1.040227  0
H  H12  1  0.04547020  0.70313606  0.60234532  1  0  0.12656  0  0.972292  0  0  0.140974  0  1.04404  0  0  0.144636  0  1.041324  0  0  0.086789  0.138296  0  1.045537  0
H  H13  1  0.54548179  0.70312840  0.89765300  1  0  0.126532  0  0.972314  0  0  0.140917  0  1.044077  0  0  0.144579  0  1.041361  0  0  0.086758  0.138239  0  1.045578  0
H  H14  1  0.95451764  0.29688694  0.39765489  1  0  0.126527  0  0.972277  0  0  0.140959  0  1.043989  0  0  0.144619  0  1.041271  0  0  0.086764  0.138279  0  1.045493  0
H  H15  1  0.45451529  0.29687717  0.10234359  1  0  0.126468  0  0.972334  0  0  0.140882  0  1.044081  0  0  0.144542  0  1.041364  0  0  0.086747  0.138204  0  1.04558  0
H  H16  1  0.31442768  0.07614478  0.27898146  1  0  0.069914  0  0.979278  0  0  0.075722  0  1.049509  0  0  0.07934  0  1.044492  0  0  0.110645  0.07307  0  1.052853  0
H  H17  1  0.81441944  0.07613286  0.22101693  1  0  0.069709  0  0.979505  0  0  0.075601  0  1.049665  0  0  0.079218  0  1.044652  0  0  0.110652  0.072952  0  1.053009  0
H  H18  1  0.68558608  0.92385249  0.72101514  1  0  0.069773  0  0.97941  0  0  0.075642  0  1.049584  0  0  0.079256  0  1.044569  0  0  0.110651  0.072996  0  1.052918  0
H  H19  1  0.18559192  0.92385119  0.77897786  1  0  0.069881  0  0.979299  0  0  0.075722  0  1.049498  0  0  0.079341  0  1.044478  0  0  0.110667  0.073067  0  1.052843  0
H  H20  1  0.80678352  0.51693600  0.32188552  1  0  0.129324  0  0.975706  0  0  0.139677  0  1.032095  0  0  0.14312  0  1.032692  0  0  0.099921  0.136996  0  1.032172  0
H  H21  1  0.30677704  0.51694405  0.17811942  1  0  0.129377  0  0.975619  0  0  0.139775  0  1.031986  0  0  0.143192  0  1.03261  0  0  0.099926  0.137083  0  1.032083  0
H  H22  1  0.19322093  0.48306809  0.67812463  1  0  0.129337  0  0.975675  0  0  0.139758  0  1.032024  0  0  0.143149  0  1.032678  0  0  0.099924  0.137064  0  1.032119  0
H  H23  1  0.69321629  0.48306558  0.82188350  1  0  0.12937  0  0.975645  0  0  0.139691  0  1.03207  0  0  0.143117  0  1.032688  0  0  0.099916  0.137005  0  1.03215  0
H  H24  1  0.93057998  0.63847921  0.11508994  1  0  0.084731  0  0.969022  0  0  0.092713  0  1.034242  0  0  0.096197  0  1.029788  0  0  0.106971  0.090033  0  1.03768  0
H  H25  1  0.43055935  0.63848126  0.38492116  1  0  0.084751  0  0.968896  0  0  0.092725  0  1.034157  0  0  0.096219  0  1.029682  0  0  0.10696  0.090046  0  1.037593  0
H  H26  1  0.06942745  0.36150493  0.88491930  1  0  0.084725  0  0.968845  0  0  0.09266  0  1.034143  0  0  0.096149  0  1.029675  0  0  0.106937  0.08998  0  1.037574  0
H  H27  1  0.56943672  0.36152168  0.61508898  1  0  0.084689  0  0.968967  0  0  0.092719  0  1.034152  0  0  0.09621  0  1.029678  0  0  0.106967  0.090038  0  1.037591  0
C  C28  1  0.00167036  0.74026841  0.41422311  1  0  0.358752  0  3.662825  0  0  0.358309  0  3.909669  0  0  0.375684  0  3.921808  0  0  0.132857  0.345719  0  3.90233  0
C  C29  1  0.50167737  0.74028022  0.08577736  1  0  0.358554  0  3.662832  0  0  0.358195  0  3.90965  0  0  0.375564  0  3.921783  0  0  0.13283  0.345614  0  3.902302  0
C  C30  1  0.99831057  0.25972954  0.58577711  1  0  0.358576  0  3.662688  0  0  0.358094  0  3.909653  0  0  0.375463  0  3.921782  0  0  0.132818  0.345508  0  3.902308  0
C  C31  1  0.49831960  0.25973198  0.91422195  1  0  0.358614  0  3.663035  0  0  0.358196  0  3.909848  0  0  0.375571  0  3.921981  0  0  0.132792  0.345607  0  3.902505  0
C  C32  1  0.92976839  0.68409309  0.53799044  1  0  -0.389502  0  3.682062  0  0  -0.471027  0  3.920434  0  0  -0.47538  0  3.921755  0  0  -0.246769  -0.467341  0  3.91924  0
C  C33  1  0.42977996  0.68409361  0.96200407  1  0  -0.389418  0  3.681968  0  0  -0.470857  0  3.920305  0  0  -0.475199  0  3.92164  0  0  -0.246709  -0.467168  0  3.919106  0
C  C34  1  0.07021837  0.31591667  0.46200886  1  0  -0.389476  0  3.682055  0  0  -0.470888  0  3.920406  0  0  -0.475235  0  3.921732  0  0  -0.24681  -0.467194  0  3.91921  0
C  C35  1  0.57021824  0.31590796  0.03799163  1  0  -0.389383  0  3.681906  0  0  -0.470919  0  3.920305  0  0  -0.475261  0  3.921631  0  0  -0.246728  -0.467228  0  3.91911  0
C  C36  1  0.19944536  0.95107819  0.28725246  1  0  0.284898  0  3.668761  0  0  0.230514  0  3.930531  0  0  0.246578  0  3.93974  0  0  0.161838  0.220136  0  3.925127  0
C  C37  1  0.69945147  0.95108331  0.21274852  1  0  0.285371  0  3.669318  0  0  0.230939  0  3.931024  0  0  0.246992  0  3.940227  0  0  0.162146  0.220573  0  3.925621  0
C  C38  1  0.80054244  0.04891696  0.71274504  1  0  0.285296  0  3.669193  0  0  0.230864  0  3.930901  0  0  0.246922  0  3.940096  0  0  0.162079  0.220508  0  3.925505  0
C  C39  1  0.30055237  0.04892610  0.78724627  1  0  0.285048  0  3.668654  0  0  0.230673  0  3.930353  0  0  0.246738  0  3.939549  0  0  0.161888  0.220297  0  3.924947  0
C  C40  1  0.92101849  0.64241593  0.31184235  1  0  -0.214837  0  3.666912  0  0  -0.225359  0  3.904325  0  0  -0.239742  0  3.924634  0  0  -0.08475  -0.216601  0  3.89248  0
C  C41  1  0.42101303  0.64241588  0.18815241  1  0  -0.214767  0  3.666713  0  0  -0.225376  0  3.904186  0  0  -0.239736  0  3.924518  0  0  -0.084679  -0.216616  0  3.892337  0
C  C42  1  0.07899415  0.35758534  0.68815425  1  0  -0.214698  0  3.666657  0  0  -0.225289  0  3.904119  0  0  -0.239632  0  3.92447  0  0  -0.084669  -0.216527  0  3.892264  0
C  C43  1  0.57899135  0.35757760  0.81184238  1  0  -0.214847  0  3.666829  0  0  -0.225355  0  3.904265  0  0  -0.239729  0  3.924592  0  0  -0.084743  -0.216594  0  3.892417  0
C  C44  1  0.98682003  0.70736302  0.19872078  1  0  0.174881  0  3.653464  0  0  0.135793  0  3.906804  0  0  0.150429  0  3.91761  0  0  0.048263  0.125239  0  3.900664  0
C  C45  1  0.48681158  0.70737901  0.30127660  1  0  0.174809  0  3.653249  0  0  0.1357  0  3.90667  0  0  0.150333  0  3.91748  0  0  0.048294  0.125154  0  3.90052  0
C  C46  1  0.01317557  0.29262137  0.80127582  1  0  0.174793  0  3.653124  0  0  0.135719  0  3.906492  0  0  0.150355  0  3.917293  0  0  0.048257  0.125185  0  3.900345  0
C  C47  1  0.51317781  0.29263070  0.69872000  1  0  0.174938  0  3.653335  0  0  0.135819  0  3.906655  0  0  0.150453  0  3.917463  0  0  0.048276  0.125263  0  3.900512  0
N  N48  1  0.12337385  0.86643896  0.18558840  1  0  -0.338766  0  3.376406  0  0  -0.262287  0  3.678772  0  0  -0.277077  0  3.683886  0  0  -0.371762  -0.253324  0  3.675526  0
N  N49  1  0.62338305  0.86645216  0.31440012  1  0  -0.338907  0  3.376422  0  0  -0.262382  0  3.678788  0  0  -0.277174  0  3.683906  0  0  -0.37187  -0.253425  0  3.675547  0
N  N50  1  0.87662137  0.13353748  0.81440458  1  0  -0.338834  0  3.376339  0  0  -0.262244  0  3.678609  0  0  -0.27703  0  3.683712  0  0  -0.371734  -0.253329  0  3.675412  0
N  N51  1  0.37663880  0.13354892  0.68558655  1  0  -0.338793  0  3.376444  0  0  -0.262315  0  3.678808  0  0  -0.277101  0  3.683913  0  0  -0.3717  -0.253348  0  3.675556  0
N  N52  1  0.14895822  0.89366685  0.40043456  1  0  -0.38313  0  3.299194  0  0  -0.306779  0  3.590773  0  0  -0.3222  0  3.594262  0  0  -0.363883  -0.297656  0  3.58888  0
N  N53  1  0.64895670  0.89366278  0.09958822  1  0  -0.383031  0  3.29946  0  0  -0.306799  0  3.591142  0  0  -0.322202  0  3.594611  0  0  -0.364016  -0.297683  0  3.589256  0
N  N54  1  0.85104352  0.10632669  0.59958371  1  0  -0.383111  0  3.299423  0  0  -0.306846  0  3.591181  0  0  -0.322243  0  3.594641  0  0  -0.364031  -0.297726  0  3.589296  0
N  N55  1  0.35105699  0.10632389  0.90042734  1  0  -0.383124  0  3.299109  0  0  -0.306818  0  3.590711  0  0  -0.322237  0  3.5942  0  0  -0.363863  -0.297694  0  3.588818  0
Cl  Cl56  1  0.07270730  0.23720868  0.09228786  1  0  -0.590502  0  1.062476  0  0  -0.521277  0  1.354762  0  0  -0.539693  0  1.33082  0  0  -0.311716  -0.507498  0  1.368854  0
Cl  Cl57  1  0.57269734  0.23720664  0.40771324  1  0  -0.590479  0  1.062578  0  0  -0.521228  0  1.354855  0  0  -0.539649  0  1.33092  0  0  -0.311698  -0.507451  0  1.368948  0
Cl  Cl58  1  0.92730535  0.76279259  0.90771416  1  0  -0.590523  0  1.062565  0  0  -0.52128  0  1.354845  0  0  -0.539694  0  1.330902  0  0  -0.311712  -0.507502  0  1.368937  0
Cl  Cl59  1  0.42729986  0.76279229  0.59228968  1  0  -0.590522  0  1.062502  0  0  -0.521292  0  1.354782  0  0  -0.539706  0  1.330839  0  0  -0.311724  -0.507513  0  1.36887  0
