# generated using pymatgen
data_MgH5C10SNO5
_symmetry_space_group_name_H-M   'P 1'
_cell_length_a   6.78906581
_cell_length_b   33.95254605
_cell_length_c   33.97824671
_cell_angle_alpha   119.57344906
_cell_angle_beta   93.82674975
_cell_angle_gamma   93.80522691
_symmetry_Int_Tables_number   1
_chemical_formula_structural   MgH5C10SNO5
_chemical_formula_sum   'Mg6 H30 C60 S6 N6 O30'
_cell_volume   6752.00796106
_cell_formula_units_Z   6
loop_
 _symmetry_equiv_pos_site_id
 _symmetry_equiv_pos_as_xyz
  1  'x, y, z'
loop_
 _atom_site_type_symbol
 _atom_site_label
 _atom_site_symmetry_multiplicity
 _atom_site_fract_x
 _atom_site_fract_y
 _atom_site_fract_z
 _atom_site_occupancy
 _atom_site_pbe_bader_charge
 _atom_site_pbe_bader_spin_density
 _atom_site_pbe_cm5_charge
 _atom_site_pbe_ddec_charge
 _atom_site_pbe_ddec_spin_density
 _atom_site_pbe_ddec_sum_bond_order
 _atom_site_pbe_magmom
Mg  Mg0  1  0.78057045  0.32337150  0.69174269  1  1.683254  0  0.91322  1.412311  0  1.324409  0
Mg  Mg1  1  0.77424597  0.66828418  0.36551058  1  1.683277  0  0.916779  1.414343  0  1.325359  0
Mg  Mg2  1  0.45694143  0.36837783  0.67654392  1  1.682792  0  0.913155  1.411803  0  1.325222  0
Mg  Mg3  1  0.10589999  0.69729788  0.33178708  1  1.6841  0  0.916974  1.413196  0  1.327271  0
Mg  Mg4  1  0.08881440  0.30818070  0.63156812  1  1.683077  0  0.912845  1.410906  0  1.326545  0
Mg  Mg5  1  0.40851393  0.63455713  0.30282426  1  1.681836  0  0.917116  1.413672  0  1.326497  0
H  H6  1  0.93291833  0.98193522  0.54510344  1  0.166108  0  0.119411  0.147157  0  1.012155  0
H  H7  1  0.21094538  0.04342943  0.56896734  1  0.110903  0  0.12138  0.129894  0  0.962149  0
H  H8  1  0.31647221  0.18282819  0.54522830  1  0.117772  0  0.115644  0.125132  0  0.99691  0
H  H9  1  0.02987271  0.19301857  0.59662669  1  0.094289  0  0.110556  0.128516  0  0.994576  0
H  H10  1  0.85311453  0.11893732  0.53407348  1  0.112809  0  0.113871  0.119599  0  0.987245  0
H  H11  1  0.11811438  0.03632437  0.43734972  1  0.135706  0  0.121718  0.142544  0  0.98825  0
H  H12  1  0.84095237  0.97475615  0.41348557  1  0.166251  0  0.126329  0.136316  0  0.951909  0
H  H13  1  0.44880999  0.82435236  0.41191928  1  0.158865  0  0.115004  0.124594  0  1.009878  0
H  H14  1  0.15661423  0.80422410  0.43582423  1  0.100622  0  0.11257  0.130224  0  0.995079  0
H  H15  1  0.04555813  0.88085361  0.47825114  1  0.115651  0  0.117861  0.129171  0  0.975492  0
H  H16  1  0.95115914  0.56312400  0.01811948  1  0.166334  0  0.119112  0.146764  0  1.011597  0
H  H17  1  0.16666954  0.52547128  0.95643701  1  0.102515  0  0.121445  0.130436  0  0.961615  0
H  H18  1  0.13354837  0.36224046  0.81701268  1  0.137556  0  0.115794  0.125384  0  0.997084  0
H  H19  1  0.83628640  0.40379815  0.80682040  1  0.100974  0  0.110706  0.128482  0  0.99546  0
H  H20  1  0.73375678  0.41528331  0.88083685  1  0.112654  0  0.113397  0.118861  0  0.987226  0
H  H21  1  0.08114487  0.40074382  0.96335138  1  0.130347  0  0.121878  0.142403  0  0.989128  0
H  H22  1  0.86710102  0.43850420  0.02515448  1  0.123542  0  0.126449  0.135752  0  0.952578  0
H  H23  1  0.62363918  0.58774406  0.17590663  1  0.151108  0  0.115301  0.124459  0  1.010107  0
H  H24  1  0.35176992  0.63163842  0.19590266  1  0.079584  0  0.11247  0.130479  0  0.995014  0
H  H25  1  0.16409455  0.59729547  0.11932910  1  0.12161  0  0.117898  0.12871  0  0.975565  0
H  H26  1  0.38787940  0.45485373  0.43681660  1  0.176833  0  0.11899  0.146493  0  1.012193  0
H  H27  1  0.64140209  0.43094515  0.47455067  1  0.11734  0  0.121771  0.13105  0  0.961815  0
H  H28  1  0.77039289  0.45476763  0.63764131  1  0.122124  0  0.115253  0.125012  0  0.997569  0
H  H29  1  0.43285096  0.40347442  0.59655155  1  0.104328  0  0.11046  0.128337  0  0.99447  0
H  H30  1  0.31823913  0.46605497  0.58509522  1  0.112111  0  0.113538  0.119439  0  0.986895  0
H  H31  1  0.67927293  0.56267848  0.59904662  1  0.170528  0  0.121852  0.142079  0  0.989598  0
H  H32  1  0.42717501  0.58661702  0.56125922  1  0.129806  0  0.126346  0.135925  0  0.951883  0
H  H33  1  0.03641899  0.58821467  0.41237921  1  0.143807  0  0.114965  0.124555  0  1.009671  0
H  H34  1  0.72045160  0.56425148  0.36839860  1  0.083076  0  0.112382  0.12995  0  0.995209  0
H  H35  1  0.56714758  0.52187883  0.40258832  1  0.11349  0  0.117858  0.128859  0  0.97626  0
C  C36  1  0.87082299  0.97239709  0.47640383  1  0.598327  0  0.158813  0.323701  0  3.979041  0
C  C37  1  0.97630427  0.99397398  0.52229879  1  -0.043071  0  -0.071624  -0.152932  0  3.893655  0
C  C38  1  0.12717743  0.02743842  0.53523760  1  -0.03081  0  -0.05901  -0.108267  0  3.891762  0
C  C39  1  0.19017759  0.04346575  0.50483961  1  0.628584  0  0.154266  0.317801  0  4.005255  0
C  C40  1  0.57387896  0.14662394  0.53637893  1  -0.142534  0  -0.027345  -0.109612  0  4.011437  0
C  C41  1  0.47197919  0.18456512  0.55688239  1  -0.054674  0  -0.068233  -0.062901  0  3.960812  0
C  C42  1  0.56759081  0.22624241  0.59255369  1  -0.004364  0  -0.035795  -0.200668  0  3.941702  0
C  C43  1  0.77435059  0.22960264  0.60717969  1  0.638158  0  0.104187  0.376711  0  4.062283  0
C  C44  1  0.87275130  0.19007648  0.58540163  1  0.012909  0  -0.099182  -0.207585  0  3.943156  0
C  C45  1  0.77509645  0.14908163  0.55076282  1  -0.063274  0  -0.064719  -0.033019  0  3.968742  0
C  C46  1  0.44771408  0.26482680  0.61240136  1  1.531833  0  0.240733  0.680302  0  4.122302  0
C  C47  1  0.07861623  0.02351576  0.45982293  1  0.00116  0  -0.06707  -0.143563  0  3.877484  0
C  C48  1  0.92737065  0.99009191  0.44681913  1  -0.093732  0  -0.049283  -0.086692  0  3.853159  0
C  C49  1  0.73676844  0.85688149  0.44832281  1  -0.138761  0  -0.025735  -0.109911  0  4.00602  0
C  C50  1  0.60352215  0.81987248  0.41754296  1  -0.062055  0  -0.067696  -0.06367  0  3.968978  0
C  C51  1  0.66384397  0.77603814  0.39431747  1  0.011124  0  -0.036954  -0.202962  0  3.949106  0
C  C52  1  0.86705539  0.76979621  0.40164652  1  0.621247  0  0.106898  0.380762  0  4.060952  0
C  C53  1  0.00135069  0.80892105  0.43118848  1  0.01715  0  -0.094233  -0.199613  0  3.922703  0
C  C54  1  0.93842189  0.85174731  0.45479367  1  -0.062218  0  -0.061215  -0.028216  0  3.939861  0
C  C55  1  0.50942389  0.73829875  0.36427453  1  1.49381  0  0.239787  0.679921  0  4.125362  0
C  C56  1  0.89940806  0.50391633  0.02768068  1  0.596615  0  0.15922  0.323164  0  3.978427  0
C  C57  1  0.98257657  0.52826030  0.00604977  1  0.06105  0  -0.071231  -0.151831  0  3.89188  0
C  C58  1  0.09932873  0.50770225  0.97244913  1  -0.152998  0  -0.059389  -0.109082  0  3.891051  0
C  C59  1  0.14645572  0.46122887  0.95636155  1  0.67054  0  0.154788  0.317429  0  4.00584  0
C  C60  1  0.42704556  0.38972297  0.85316689  1  -0.152465  0  -0.027099  -0.110513  0  4.011672  0
C  C61  1  0.28718529  0.37220575  0.81526050  1  -0.011573  0  -0.068244  -0.062292  0  3.961103  0
C  C62  1  0.34098666  0.36624628  0.77360883  1  -0.024629  0  -0.035906  -0.201563  0  3.941915  0
C  C63  1  0.54423869  0.37758655  0.77024082  1  0.588389  0  0.103347  0.376525  0  4.060583  0
C  C64  1  0.68223858  0.39543979  0.80974556  1  0.017187  0  -0.098363  -0.206124  0  3.941935  0
C  C65  1  0.62567039  0.40173283  0.85069670  1  -0.043532  0  -0.064818  -0.032716  0  3.96851  0
C  C66  1  0.18266550  0.34753102  0.73505672  1  1.501808  0  0.240833  0.680544  0  4.120924  0
C  C67  1  0.05497443  0.43609886  0.97627168  1  -0.039079  0  -0.067655  -0.14373  0  3.880087  0
C  C68  1  0.93798536  0.45656385  0.00984680  1  0.004783  0  -0.049154  -0.085188  0  3.853115  0
C  C69  1  0.87930502  0.59136309  0.14329355  1  -0.204572  0  -0.02565  -0.110605  0  4.005777  0
C  C70  1  0.78286810  0.59772556  0.18029557  1  0.012001  0  -0.068543  -0.063718  0  3.967538  0
C  C71  1  0.88720846  0.61833965  0.22408880  1  -0.028512  0  -0.037086  -0.203556  0  3.950188  0
C  C72  1  0.09670617  0.63182032  0.23032088  1  0.628326  0  0.106914  0.381639  0  4.060527  0
C  C73  1  0.19186316  0.62225663  0.19121453  1  -0.039707  0  -0.094493  -0.200706  0  3.922947  0
C  C74  1  0.08610779  0.60298293  0.14843559  1  0.033703  0  -0.060728  -0.026986  0  3.939277  0
C  C75  1  0.77077251  0.62600796  0.26181149  1  1.510568  0  0.241122  0.681427  0  4.12438  0
C  C76  1  0.39423936  0.52363298  0.49594430  1  0.664708  0  0.159152  0.322591  0  3.979036  0
C  C77  1  0.45373954  0.47767458  0.47167958  1  -0.064551  0  -0.070819  -0.151032  0  3.891736  0
C  C78  1  0.59122738  0.46468683  0.49227074  1  -0.044449  0  -0.059832  -0.110425  0  3.890882  0
C  C79  1  0.68435531  0.49512630  0.53872811  1  0.612945  0  0.154548  0.31876  0  4.003762  0
C  C80  1  0.03674255  0.46368352  0.61040244  1  -0.197009  0  -0.027098  -0.110736  0  4.013281  0
C  C81  1  0.91433555  0.44313374  0.62775604  1  -0.008287  0  -0.067761  -0.062119  0  3.96128  0
C  C82  1  0.97446351  0.40743302  0.63370243  1  -0.022515  0  -0.036192  -0.201624  0  3.941407  0
C  C83  1  0.16663255  0.39281735  0.62244723  1  0.643631  0  0.103662  0.376448  0  4.061854  0
C  C84  1  0.28680505  0.41464833  0.60477571  1  -0.078713  0  -0.098308  -0.206717  0  3.940723  0
C  C85  1  0.22365377  0.44934110  0.59851817  1  0.023072  0  -0.064602  -0.032417  0  3.968067  0
C  C86  1  0.83493693  0.38755487  0.65241705  1  1.516505  0  0.241164  0.680515  0  4.118919  0
C  C87  1  0.61762961  0.54017835  0.56374322  1  0.004348  0  -0.067996  -0.144004  0  3.880044  0
C  C88  1  0.47995286  0.55321348  0.54325591  1  -0.119763  0  -0.049447  -0.085855  0  3.854092  0
C  C89  1  0.28812456  0.55179356  0.40856050  1  -0.187152  0  -0.025929  -0.109098  0  4.004608  0
C  C90  1  0.18558554  0.58257213  0.40233412  1  -0.0014  0  -0.067787  -0.064339  0  3.967924  0
C  C91  1  0.26922865  0.60580870  0.38176403  1  0.005494  0  -0.037241  -0.202981  0  3.950308  0
C  C92  1  0.46505920  0.59849644  0.36819733  1  0.558987  0  0.106088  0.379879  0  4.063415  0
C  C93  1  0.56987844  0.56895459  0.37778351  1  0.032695  0  -0.093818  -0.198423  0  3.922025  0
C  C94  1  0.48331089  0.54533406  0.39695418  1  -0.001535  0  -0.06082  -0.028451  0  3.940948  0
C  C95  1  0.14502030  0.63590862  0.37413855  1  1.502677  0  0.241253  0.681347  0  4.124258  0
S  S96  1  0.64249917  0.90932257  0.48226901  1  2.79955  0  0.547257  1.078412  0  5.94491  0
S  S97  1  0.44701544  0.09527940  0.49104775  1  2.827913  0  0.548246  1.078614  0  5.93809  0
S  S98  1  0.73365628  0.57279082  0.09077328  1  2.821538  0  0.546944  1.079167  0  5.944097  0
S  S99  1  0.35184644  0.39567211  0.90447607  1  2.839139  0  0.548207  1.08055  0  5.93484  0
S  S100  1  0.16046439  0.51774964  0.42697462  1  2.821321  0  0.547653  1.079223  0  5.942795  0
S  S101  1  0.95504546  0.50901348  0.60437222  1  2.849321  0  0.548191  1.081436  0  5.933597  0
N  N102  1  0.73056333  0.93785719  0.45757797  1  -1.142431  0  -0.300482  -0.426897  0  3.082652  0
N  N103  1  0.34480599  0.07455411  0.52149559  1  -1.166012  0  -0.310796  -0.44269  0  3.082176  0
N  N104  1  0.79422074  0.51961103  0.06230007  1  -1.156661  0  -0.300852  -0.426974  0  3.082052  0
N  N105  1  0.26985506  0.44684508  0.92525438  1  -1.209072  0  -0.310777  -0.443373  0  3.081759  0
N  N106  1  0.27321869  0.54250483  0.48019697  1  -1.146751  0  -0.300598  -0.42662  0  3.08297  0
N  N107  1  0.82225706  0.47849012  0.55321420  1  -1.180952  0  -0.310716  -0.443955  0  3.081036  0
O  O108  1  0.26784489  0.26071456  0.59654976  1  -1.237592  0  -0.350967  -0.635929  0  2.152111  0
O  O109  1  0.52883318  0.30306283  0.64687634  1  -1.311159  0  -0.402744  -0.773256  0  2.414384  0
O  O110  1  0.87930077  0.26825307  0.63987586  1  -1.31362  0  -0.444298  -0.773766  0  2.306397  0
O  O111  1  0.33648649  0.74606489  0.35521252  1  -1.233749  0  -0.354323  -0.637117  0  2.145831  0
O  O112  1  0.55289691  0.69694219  0.34814844  1  -1.298722  0  -0.403209  -0.771617  0  2.422696  0
O  O113  1  0.93388948  0.72889173  0.38218118  1  -1.313313  0  -0.441123  -0.772729  0  2.313012  0
O  O114  1  0.42905186  0.90334189  0.47135577  1  -1.265176  0  -0.320314  -0.531162  0  2.120719  0
O  O115  1  0.72332959  0.92656131  0.52918399  1  -1.288209  0  -0.321161  -0.536675  0  2.123667  0
O  O116  1  0.59186803  0.06526490  0.46678525  1  -1.279348  0  -0.312196  -0.519072  0  2.097108  0
O  O117  1  0.29992127  0.10721474  0.46699704  1  -1.285756  0  -0.314938  -0.524134  0  2.089714  0
O  O118  1  0.00680537  0.33584793  0.73918849  1  -1.234648  0  -0.350994  -0.636168  0  2.151431  0
O  O119  1  0.22567071  0.34377239  0.69685272  1  -1.297271  0  -0.40331  -0.773886  0  2.413881  0
O  O120  1  0.61060815  0.37164275  0.73163066  1  -1.304361  0  -0.443931  -0.77391  0  2.306229  0
O  O121  1  0.59002453  0.60922223  0.25407294  1  -1.238122  0  -0.355101  -0.637487  0  2.145827  0
O  O122  1  0.85589369  0.65123163  0.30311756  1  -1.304659  0  -0.403332  -0.772092  0  2.420631  0
O  O123  1  0.20462810  0.65325144  0.27117710  1  -1.306401  0  -0.441103  -0.773406  0  2.312207  0
O  O124  1  0.52602481  0.56772144  0.09653120  1  -1.285117  0  -0.320165  -0.531454  0  2.120539  0
O  O125  1  0.79747250  0.60256997  0.07364693  1  -1.285707  0  -0.320956  -0.53661  0  2.121648  0
O  O126  1  0.52700605  0.40147419  0.93441810  1  -1.274749  0  -0.31203  -0.519542  0  2.095776  0
O  O127  1  0.19313624  0.35961017  0.89254267  1  -1.284108  0  -0.314897  -0.524256  0  2.088802  0
O  O128  1  0.67093142  0.40342630  0.66419863  1  -1.236467  0  -0.35157  -0.636497  0  2.15166  0
O  O129  1  0.88179891  0.35308069  0.65616374  1  -1.294944  0  -0.40278  -0.773111  0  2.41303  0
O  O130  1  0.23901973  0.36008867  0.62833751  1  -1.306125  0  -0.443949  -0.773385  0  2.305582  0
O  O131  1  0.98104263  0.64493161  0.39092426  1  -1.238139  0  -0.35529  -0.638358  0  2.146874  0
O  O132  1  0.20466703  0.65200093  0.34890417  1  -1.293349  0  -0.403513  -0.771381  0  2.420177  0
O  O133  1  0.55135604  0.61790665  0.34674266  1  -1.306686  0  -0.440658  -0.773118  0  2.313509  0
O  O134  1  0.95774815  0.52855734  0.43187287  1  -1.28893  0  -0.320028  -0.531226  0  2.120335  0
O  O135  1  0.19488174  0.47084075  0.39727316  1  -1.294151  0  -0.321191  -0.536735  0  2.121398  0
O  O136  1  0.12405681  0.53323666  0.59855848  1  -1.27705  0  -0.312128  -0.519862  0  2.094673  0
O  O137  1  0.83222627  0.53315184  0.64038479  1  -1.282655  0  -0.315047  -0.524777  0  2.08927  0
