# generated using pymatgen
data_CdH4C3SN4O3
_symmetry_space_group_name_H-M   'P 1'
_cell_length_a   7.04785635
_cell_length_b   7.46970851
_cell_length_c   8.17776618
_cell_angle_alpha   108.23898082
_cell_angle_beta   115.50513588
_cell_angle_gamma   90.00384207
_symmetry_Int_Tables_number   1
_chemical_formula_structural   CdH4C3SN4O3
_chemical_formula_sum   'Cd2 H8 C6 S2 N8 O6'
_cell_volume   364.45038176
_cell_formula_units_Z   2
loop_
 _symmetry_equiv_pos_site_id
 _symmetry_equiv_pos_as_xyz
  1  'x, y, z'
loop_
 _atom_site_type_symbol
 _atom_site_label
 _atom_site_symmetry_multiplicity
 _atom_site_fract_x
 _atom_site_fract_y
 _atom_site_fract_z
 _atom_site_occupancy
 _atom_site_pbe_bader_spin_density
 _atom_site_pbe_cm5_charge
 _atom_site_pbe_ddec_charge
 _atom_site_pbe_ddec_spin_density
 _atom_site_pbe_ddec_sum_bond_order
 _atom_site_pbe_magmom
Cd  Cd0  1  0.95706186  0.17277685  0.18281360  1  0  0.681155  0.813117  0  2.310781  0
Cd  Cd1  1  0.22581938  0.67274261  0.18284576  1  0  0.680964  0.813004  0  2.311933  0
H  H2  1  0.76187767  0.46200527  0.29729756  1  0  0.281606  0.345238  0  1.014957  0
H  H3  1  0.53541581  0.96206165  0.29724454  1  0  0.281481  0.345671  0  1.014234  0
H  H4  1  0.99781602  0.53241648  0.45618262  1  0  0.293694  0.381654  0  0.941654  0
H  H5  1  0.45818675  0.03239596  0.45612264  1  0  0.293874  0.382652  0  0.94159  0
H  H6  1  0.08319253  0.18635306  0.62899693  1  0  0.12465  0.143167  0  0.974738  0
H  H7  1  0.54594900  0.68613298  0.62903108  1  0  0.124486  0.143035  0  0.97507  0
H  H8  1  0.92713790  0.01719635  0.65157898  1  0  0.117116  0.137918  0  1.001912  0
H  H9  1  0.72433159  0.51679564  0.65129479  1  0  0.117358  0.137874  0  1.002503  0
C  C10  1  0.04638582  0.89733797  0.44536366  1  0  0.209482  0.628513  0  4.148972  0
C  C11  1  0.39882692  0.39726609  0.44544101  1  0  0.209292  0.627355  0  4.150719  0
C  C12  1  0.07065264  0.04254148  0.63529771  1  0  -0.051561  -0.244106  0  3.842047  0
C  C13  1  0.56466568  0.54230808  0.63523921  1  0  -0.052214  -0.244177  0  3.843225  0
C  C14  1  0.25892211  0.97888265  0.95051685  1  0  0.223034  0.223833  0  4.105109  0
C  C15  1  0.69175567  0.47882861  0.95053916  1  0  0.222963  0.224426  0  4.102879  0
S  S16  1  0.04201028  0.88133825  0.95529510  1  0  -0.167071  -0.388013  0  2.634615  0
S  S17  1  0.91340165  0.38134821  0.95524706  1  0  -0.16711  -0.388748  0  2.63489  0
N  N18  1  0.25317415  0.03411350  0.80466141  1  0  -0.113789  0.1477  0  3.688463  0
N  N19  1  0.55160198  0.53395850  0.80471134  1  0  -0.113664  0.147121  0  3.687492  0
N  N20  1  0.45320879  0.08766223  0.83924814  1  0  -0.069918  -0.096317  0  3.114588  0
N  N21  1  0.38624137  0.58754772  0.83945762  1  0  -0.069926  -0.096393  0  3.114365  0
N  N22  1  0.57630212  0.06872146  0.00369937  1  0  -0.08447  -0.02202  0  3.452884  0
N  N23  1  0.42765958  0.56864069  0.00395549  1  0  -0.084627  -0.021949  0  3.454777  0
N  N24  1  0.46492021  0.00466693  0.07790331  1  0  -0.20326  -0.245036  0  3.298881  0
N  N25  1  0.61320675  0.50460907  0.07804142  1  0  -0.202947  -0.244478  0  3.297588  0
O  O26  1  0.92042962  0.92538063  0.29341781  1  0  -0.334001  -0.551553  0  2.29502  0
O  O27  1  0.37267299  0.42528874  0.29338049  1  0  -0.333887  -0.551379  0  2.295396  0
O  O28  1  0.15162220  0.75840920  0.45121204  1  0  -0.32678  -0.565608  0  2.258367  0
O  O29  1  0.29946751  0.25848135  0.45147888  1  0  -0.326202  -0.564691  0  2.259953  0
O  O30  1  0.88174101  0.42451837  0.39744360  1  0  -0.579963  -0.708225  0  2.088723  0
O  O31  1  0.51546399  0.92449678  0.39727693  1  0  -0.579763  -0.709585  0  2.088783  0
