# generated using pymatgen
data_ZnH9C13NO5
_symmetry_space_group_name_H-M   'P 1'
_cell_length_a   6.39768932
_cell_length_b   13.20151342
_cell_length_c   15.33137675
_cell_angle_alpha   111.09345363
_cell_angle_beta   90.00132305
_cell_angle_gamma   89.99906728
_symmetry_Int_Tables_number   1
_chemical_formula_structural   ZnH9C13NO5
_chemical_formula_sum   'Zn4 H36 C52 N4 O20'
_cell_volume   1208.11195389
_cell_formula_units_Z   4
loop_
 _symmetry_equiv_pos_site_id
 _symmetry_equiv_pos_as_xyz
  1  'x, y, z'
loop_
 _atom_site_type_symbol
 _atom_site_label
 _atom_site_symmetry_multiplicity
 _atom_site_fract_x
 _atom_site_fract_y
 _atom_site_fract_z
 _atom_site_occupancy
 _atom_site_hle17_bader_spin_density
 _atom_site_hle17_ddec_charge
 _atom_site_hle17_ddec_spin_density
 _atom_site_hle17_ddec_sum_bond_order
 _atom_site_hle17_magmom
 _atom_site_hse06_10hf_bader_spin_density
 _atom_site_hse06_10hf_ddec_charge
 _atom_site_hse06_10hf_ddec_spin_density
 _atom_site_hse06_10hf_ddec_sum_bond_order
 _atom_site_hse06_10hf_magmom
 _atom_site_hse06_bader_spin_density
 _atom_site_hse06_ddec_charge
 _atom_site_hse06_ddec_spin_density
 _atom_site_hse06_ddec_sum_bond_order
 _atom_site_hse06_magmom
 _atom_site_pbe_bader_spin_density
 _atom_site_pbe_cm5_charge
 _atom_site_pbe_ddec_charge
 _atom_site_pbe_ddec_spin_density
 _atom_site_pbe_ddec_sum_bond_order
 _atom_site_pbe_magmom
Zn  Zn0  1  0.86338488  0.27818790  0.39489067  1  0  1.111453  0  1.74034  0  0  0.927542  0  2.213602  0  0  0.975365  0  2.153266  0  0  0.703994  0.894046  0  2.255306  0
Zn  Zn1  1  0.86337487  0.22181927  0.10511114  1  0  1.111486  0  1.740311  0  0  0.92759  0  2.213531  0  0  0.975412  0  2.153196  0  0  0.703983  0.894096  0  2.255229  0
Zn  Zn2  1  0.13662691  0.72181145  0.60510551  1  0  1.111521  0  1.74038  0  0  0.927631  0  2.213629  0  0  0.975459  0  2.153288  0  0  0.704055  0.894143  0  2.255329  0
Zn  Zn3  1  0.13660097  0.77818336  0.89488929  1  0  1.111512  0  1.740269  0  0  0.92765  0  2.213508  0  0  0.97547  0  2.153171  0  0  0.704031  0.894159  0  2.255203  0
H  H4  1  0.63071826  0.69957180  0.49282656  1  0  0.096092  0  0.969378  0  0  0.103446  0  1.038244  0  0  0.107287  0  1.034837  0  0  0.10585  0.100661  0  1.040665  0
H  H5  1  0.63072685  0.80044295  0.00716937  1  0  0.09603  0  0.969451  0  0  0.103396  0  1.038295  0  0  0.107235  0  1.034885  0  0  0.105838  0.100613  0  1.040708  0
H  H6  1  0.36929978  0.30044223  0.50718059  1  0  0.09612  0  0.969379  0  0  0.103456  0  1.038254  0  0  0.107304  0  1.034825  0  0  0.105853  0.100674  0  1.040662  0
H  H7  1  0.36924742  0.19955809  0.99283384  1  0  0.096101  0  0.969439  0  0  0.103504  0  1.038232  0  0  0.107339  0  1.034837  0  0  0.105874  0.100722  0  1.040646  0
H  H8  1  0.60679125  0.83082157  0.41574164  1  0  0.083707  0  0.963856  0  0  0.097613  0  1.020397  0  0  0.100546  0  1.019021  0  0  0.09658  0.095554  0  1.021437  0
H  H9  1  0.60680221  0.66918594  0.08424860  1  0  0.083706  0  0.963819  0  0  0.097635  0  1.020356  0  0  0.100566  0  1.018983  0  0  0.096543  0.095571  0  1.021397  0
H  H10  1  0.39323304  0.16918510  0.58425872  1  0  0.083775  0  0.963866  0  0  0.097702  0  1.020391  0  0  0.100637  0  1.019009  0  0  0.096598  0.095636  0  1.02143  0
H  H11  1  0.39320645  0.33081511  0.91575592  1  0  0.083698  0  0.963836  0  0  0.097641  0  1.020358  0  0  0.100553  0  1.019004  0  0  0.096538  0.095576  0  1.021397  0
H  H12  1  0.57962085  0.56778213  0.14836120  1  0  0.086591  0  0.964869  0  0  0.099051  0  1.025894  0  0  0.102327  0  1.024013  0  0  0.097425  0.096746  0  1.027275  0
H  H13  1  0.57961080  0.93221827  0.35163313  1  0  0.086576  0  0.964936  0  0  0.099072  0  1.025924  0  0  0.102332  0  1.02406  0  0  0.097437  0.096767  0  1.027312  0
H  H14  1  0.42037843  0.43221896  0.85164594  1  0  0.086603  0  0.964891  0  0  0.099121  0  1.025851  0  0  0.10235  0  1.024025  0  0  0.09746  0.096817  0  1.027238  0
H  H15  1  0.42040568  0.06778521  0.64837082  1  0  0.086651  0  0.964845  0  0  0.09912  0  1.025859  0  0  0.102388  0  1.023986  0  0  0.097467  0.096811  0  1.027244  0
H  H16  1  0.87500028  0.10481492  0.46945350  1  0  0.079396  0  0.946492  0  0  0.089089  0  1.00669  0  0  0.091761  0  1.004606  0  0  0.115768  0.087091  0  1.00823  0
H  H17  1  0.87496785  0.39519466  0.03055177  1  0  0.079285  0  0.946657  0  0  0.088956  0  1.006887  0  0  0.091622  0  1.004798  0  0  0.115716  0.08696  0  1.008426  0
H  H18  1  0.12504277  0.89517631  0.53054088  1  0  0.079246  0  0.946674  0  0  0.088993  0  1.006815  0  0  0.091672  0  1.004723  0  0  0.115714  0.086985  0  1.00837  0
H  H19  1  0.12502206  0.60480548  0.96944269  1  0  0.079402  0  0.946576  0  0  0.089043  0  1.006835  0  0  0.091711  0  1.004747  0  0  0.115756  0.08705  0  1.008372  0
H  H20  1  0.89252835  0.08092117  0.62311711  1  0  0.108277  0  0.94924  0  0  0.120544  0  1.005804  0  0  0.123775  0  1.004665  0  0  0.111364  0.118206  0  1.006819  0
H  H21  1  0.89249667  0.41909784  0.87689052  1  0  0.108265  0  0.949155  0  0  0.120461  0  1.005844  0  0  0.1237  0  1.004692  0  0  0.111291  0.118126  0  1.006859  0
H  H22  1  0.10751313  0.91907740  0.37688210  1  0  0.108259  0  0.949171  0  0  0.120545  0  1.005743  0  0  0.123775  0  1.004602  0  0  0.11138  0.118214  0  1.006751  0
H  H23  1  0.10749636  0.58089986  0.12310386  1  0  0.108187  0  0.949251  0  0  0.120433  0  1.005871  0  0  0.123669  0  1.004724  0  0  0.111309  0.1181  0  1.006883  0
H  H24  1  0.89518467  0.43259615  0.75253875  1  0  0.119648  0  0.93775  0  0  0.129502  0  0.996122  0  0  0.133361  0  0.99385  0  0  0.115154  0.126672  0  0.998012  0
H  H25  1  0.89518134  0.06742356  0.74745999  1  0  0.119606  0  0.937743  0  0  0.129321  0  0.996294  0  0  0.133231  0  0.993959  0  0  0.115116  0.126497  0  0.99818  0
H  H26  1  0.10479742  0.56740075  0.24745539  1  0  0.119815  0  0.937762  0  0  0.12959  0  0.996186  0  0  0.133445  0  0.993924  0  0  0.115248  0.126769  0  0.998077  0
H  H27  1  0.10480231  0.93257662  0.25253840  1  0  0.11954  0  0.93774  0  0  0.129341  0  0.996211  0  0  0.133239  0  0.993891  0  0  0.115137  0.126511  0  0.998095  0
H  H28  1  0.86844718  0.43921216  0.59426413  1  0  0.103481  0  0.947356  0  0  0.110302  0  1.008595  0  0  0.113587  0  1.0057  0  0  0.124865  0.107862  0  1.010748  0
H  H29  1  0.86843077  0.06079467  0.90573044  1  0  0.103521  0  0.947139  0  0  0.110248  0  1.008504  0  0  0.113532  0  1.005603  0  0  0.12488  0.107807  0  1.010673  0
H  H30  1  0.13155991  0.56077904  0.40572697  1  0  0.103503  0  0.947179  0  0  0.11031  0  1.008445  0  0  0.113591  0  1.005553  0  0  0.124904  0.107866  0  1.010616  0
H  H31  1  0.13154351  0.93920468  0.09426640  1  0  0.103588  0  0.947059  0  0  0.110354  0  1.008371  0  0  0.113639  0  1.00547  0  0  0.124907  0.107912  0  1.010541  0
H  H32  1  0.22082069  0.36820823  0.41621480  1  0  0.43255  0  0.873173  0  0  0.398624  0  0.941905  0  0  0.410011  0  0.925419  0  0  0.291636  0.390622  0  0.953457  0
H  H33  1  0.22080319  0.13178627  0.08377948  1  0  0.432559  0  0.873165  0  0  0.398589  0  0.941976  0  0  0.409974  0  0.925493  0  0  0.291609  0.390587  0  0.953528  0
H  H34  1  0.77919110  0.63179196  0.58378425  1  0  0.432468  0  0.87327  0  0  0.398537  0  0.942013  0  0  0.409924  0  0.925528  0  0  0.291615  0.390535  0  0.953565  0
H  H35  1  0.77916483  0.86821143  0.91621424  1  0  0.432511  0  0.873241  0  0  0.398603  0  0.941949  0  0  0.409992  0  0.925462  0  0  0.291616  0.390599  0  0.953504  0
H  H36  1  0.26386605  0.24524331  0.34430862  1  0  0.459045  0  0.82206  0  0  0.430147  0  0.880452  0  0  0.440433  0  0.865424  0  0  0.30598  0.422797  0  0.891195  0
H  H37  1  0.26386391  0.25474862  0.15568987  1  0  0.459077  0  0.822021  0  0  0.430114  0  0.880486  0  0  0.440403  0  0.865451  0  0  0.305991  0.422769  0  0.891217  0
H  H38  1  0.73614417  0.75475770  0.65569133  1  0  0.459024  0  0.822105  0  0  0.430082  0  0.880543  0  0  0.440368  0  0.865517  0  0  0.305963  0.422735  0  0.891279  0
H  H39  1  0.73611661  0.74524272  0.84431432  1  0  0.459059  0  0.822049  0  0  0.430083  0  0.880542  0  0  0.440369  0  0.865514  0  0  0.305925  0.422735  0  0.89128  0
C  C40  1  0.69030228  0.48192253  0.41438952  1  0  0.665958  0  3.893608  0  0  0.609179  0  4.19402  0  0  0.644257  0  4.186593  0  0  0.214984  0.585425  0  4.198254  0
C  C41  1  0.69029968  0.01808536  0.08561017  1  0  0.665832  0  3.893577  0  0  0.609083  0  4.194028  0  0  0.64416  0  4.186604  0  0  0.214977  0.585322  0  4.198269  0
C  C42  1  0.30970170  0.51808588  0.58562180  1  0  0.665732  0  3.893453  0  0  0.608978  0  4.193932  0  0  0.644068  0  4.186512  0  0  0.2149  0.585217  0  4.198177  0
C  C43  1  0.30967616  0.98191153  0.91438397  1  0  0.665962  0  3.893425  0  0  0.609168  0  4.193822  0  0  0.644245  0  4.186396  0  0  0.21496  0.585414  0  4.198063  0
C  C44  1  0.63394025  0.55834554  0.36571904  1  0  -0.085344  0  3.712351  0  0  -0.069386  0  3.945557  0  0  -0.07718  0  3.967007  0  0  -0.012918  -0.0645  0  3.931327  0
C  C45  1  0.63393687  0.94166438  0.13428002  1  0  -0.085027  0  3.711904  0  0  -0.069228  0  3.945292  0  0  -0.077025  0  3.966742  0  0  -0.012795  -0.064337  0  3.931059  0
C  C46  1  0.36606841  0.44166040  0.63428762  1  0  -0.084826  0  3.711817  0  0  -0.069061  0  3.945239  0  0  -0.076907  0  3.966755  0  0  -0.012839  -0.064181  0  3.931017  0
C  C47  1  0.36604522  0.05833502  0.86572139  1  0  -0.085321  0  3.712219  0  0  -0.069293  0  3.945321  0  0  -0.077088  0  3.966769  0  0  -0.012895  -0.064412  0  3.931101  0
C  C48  1  0.62227459  0.67033259  0.41686440  1  0  -0.058311  0  3.754646  0  0  -0.082804  0  4.008642  0  0  -0.081744  0  4.028612  0  0  -0.084005  -0.083185  0  3.995214  0
C  C49  1  0.62227224  0.82967653  0.08313105  1  0  -0.05836  0  3.754587  0  0  -0.082802  0  4.00865  0  0  -0.081736  0  4.028618  0  0  -0.084014  -0.083185  0  3.995218  0
C  C50  1  0.37774032  0.32967495  0.58314144  1  0  -0.058505  0  3.754343  0  0  -0.082935  0  4.008447  0  0  -0.081852  0  4.028428  0  0  -0.084048  -0.08332  0  3.995015  0
C  C51  1  0.37771142  0.17032288  0.91687102  1  0  -0.058348  0  3.754642  0  0  -0.082907  0  4.008672  0  0  -0.081845  0  4.028634  0  0  -0.08401  -0.08329  0  3.995239  0
C  C52  1  0.60675403  0.74490965  0.37262749  1  0  -0.121729  0  3.757966  0  0  -0.144146  0  4.011603  0  0  -0.148398  0  4.033882  0  0  -0.097208  -0.141318  0  3.996703  0
C  C53  1  0.60675347  0.75509624  0.12736226  1  0  -0.121749  0  3.757901  0  0  -0.144194  0  4.011575  0  0  -0.148447  0  4.033856  0  0  -0.097245  -0.141366  0  3.996669  0
C  C54  1  0.39326401  0.25509790  0.62737900  1  0  -0.121756  0  3.757957  0  0  -0.144296  0  4.011528  0  0  -0.148555  0  4.033817  0  0  -0.09722  -0.141461  0  3.996611  0
C  C55  1  0.39324425  0.24490234  0.87263826  1  0  -0.121748  0  3.75797  0  0  -0.144201  0  4.011661  0  0  -0.148432  0  4.033939  0  0  -0.097214  -0.14137  0  3.99675  0
C  C56  1  0.59664361  0.71090169  0.27439600  1  0  0.052685  0  3.795211  0  0  0.068265  0  4.027646  0  0  0.070198  0  4.050143  0  0  -0.009914  0.067073  0  4.012545  0
C  C57  1  0.59663784  0.78910265  0.22559644  1  0  0.052741  0  3.795138  0  0  0.068276  0  4.027636  0  0  0.0702  0  4.050153  0  0  -0.009838  0.067097  0  4.012518  0
C  C58  1  0.40336505  0.28910180  0.72560992  1  0  0.052582  0  3.795558  0  0  0.068477  0  4.027569  0  0  0.070408  0  4.05007  0  0  -0.009778  0.06729  0  4.012461  0
C  C59  1  0.40336614  0.21089917  0.77440440  1  0  0.052858  0  3.79532  0  0  0.068299  0  4.027757  0  0  0.070229  0  4.050253  0  0  -0.009858  0.06711  0  4.012646  0
C  C60  1  0.59325230  0.59867227  0.22426254  1  0  -0.144232  0  3.724551  0  0  -0.174406  0  3.978336  0  0  -0.17883  0  3.998876  0  0  -0.092949  -0.171399  0  3.964536  0
C  C61  1  0.59324388  0.90132886  0.27573150  1  0  -0.144143  0  3.724736  0  0  -0.174352  0  3.978524  0  0  -0.178763  0  3.999073  0  0  -0.092968  -0.17135  0  3.964732  0
C  C62  1  0.40675167  0.40132961  0.77574419  1  0  -0.144124  0  3.724689  0  0  -0.174466  0  3.978367  0  0  -0.178847  0  3.998919  0  0  -0.092999  -0.171464  0  3.964574  0
C  C63  1  0.40675853  0.09867378  0.72427090  1  0  -0.144209  0  3.724637  0  0  -0.174424  0  3.978458  0  0  -0.178844  0  3.999007  0  0  -0.093012  -0.171412  0  3.964651  0
C  C64  1  0.61374185  0.52282988  0.26792374  1  0  -0.024113  0  3.701655  0  0  -0.011543  0  3.93608  0  0  -0.01267  0  3.954455  0  0  -0.001234  -0.010874  0  3.923768  0
C  C65  1  0.61373944  0.97717280  0.23207097  1  0  -0.02434  0  3.701717  0  0  -0.011734  0  3.936141  0  0  -0.012856  0  3.954512  0  0  -0.001352  -0.01107  0  3.923832  0
C  C66  1  0.38626212  0.47717529  0.73208725  1  0  -0.024443  0  3.701927  0  0  -0.011824  0  3.93634  0  0  -0.012927  0  3.954725  0  0  -0.001327  -0.011152  0  3.924025  0
C  C67  1  0.38625672  0.02282496  0.76792799  1  0  -0.024334  0  3.701777  0  0  -0.011717  0  3.936115  0  0  -0.012845  0  3.954489  0  0  -0.001296  -0.011043  0  3.923796  0
C  C68  1  0.62854116  0.40622213  0.20278050  1  0  0.68335  0  3.919044  0  0  0.627844  0  4.225689  0  0  0.662911  0  4.214824  0  0  0.209141  0.603866  0  4.23236  0
C  C69  1  0.62852557  0.09378365  0.29722381  1  0  0.683079  0  3.919522  0  0  0.627712  0  4.225945  0  0  0.662773  0  4.215094  0  0  0.209186  0.603747  0  4.232597  0
C  C70  1  0.37145969  0.59377815  0.79722705  1  0  0.683101  0  3.919613  0  0  0.627784  0  4.225936  0  0  0.662824  0  4.21511  0  0  0.209147  0.603813  0  4.232599  0
C  C71  1  0.37147372  0.90622058  0.70277581  1  0  0.683394  0  3.919222  0  0  0.627885  0  4.225841  0  0  0.662957  0  4.214974  0  0  0.209276  0.603909  0  4.23251  0
C  C72  1  0.88040595  0.17450116  0.53497003  1  0  0.124448  0  3.728666  0  0  0.095311  0  3.976406  0  0  0.101837  0  3.995652  0  0  0.04597  0.091118  0  3.963298  0
C  C73  1  0.88037126  0.32550898  0.96503544  1  0  0.124695  0  3.728835  0  0  0.09558  0  3.976567  0  0  0.102124  0  3.995803  0  0  0.046122  0.091386  0  3.963459  0
C  C74  1  0.11962772  0.82549334  0.46502729  1  0  0.12475  0  3.728714  0  0  0.095589  0  3.976398  0  0  0.102118  0  3.995649  0  0  0.046122  0.091396  0  3.963311  0
C  C75  1  0.11961396  0.67449038  0.03496140  1  0  0.124461  0  3.728661  0  0  0.095382  0  3.976423  0  0  0.101921  0  3.995665  0  0  0.046004  0.091181  0  3.963317  0
C  C76  1  0.89074346  0.16246001  0.62101645  1  0  -0.155827  0  3.707452  0  0  -0.177249  0  3.961398  0  0  -0.185263  0  3.983218  0  0  -0.079588  -0.172122  0  3.946869  0
C  C77  1  0.89071778  0.33755573  0.87898756  1  0  -0.15569  0  3.707246  0  0  -0.17712  0  3.961239  0  0  -0.185136  0  3.983053  0  0  -0.079438  -0.171991  0  3.946707  0
C  C78  1  0.10928083  0.83753366  0.37897867  1  0  -0.155944  0  3.707431  0  0  -0.177458  0  3.961472  0  0  -0.185472  0  3.98329  0  0  -0.079711  -0.172324  0  3.946937  0
C  C79  1  0.10927057  0.66244362  0.12100927  1  0  -0.155445  0  3.707269  0  0  -0.176952  0  3.961184  0  0  -0.184964  0  3.982995  0  0  -0.079389  -0.171824  0  3.946659  0
C  C80  1  0.89525513  0.25493393  0.70347785  1  0  0.098099  0  3.734725  0  0  0.109641  0  3.964282  0  0  0.11394  0  3.985094  0  0  0.019221  0.106899  0  3.950457  0
C  C81  1  0.89524218  0.24508746  0.79652596  1  0  0.097654  0  3.734815  0  0  0.10925  0  3.964322  0  0  0.113545  0  3.985156  0  0  0.019111  0.106508  0  3.950503  0
C  C82  1  0.10475197  0.74506542  0.29651833  1  0  0.098285  0  3.734682  0  0  0.109828  0  3.964145  0  0  0.114128  0  3.984956  0  0  0.019309  0.107092  0  3.950319  0
C  C83  1  0.10474772  0.75490946  0.20347014  1  0  0.097328  0  3.735013  0  0  0.109098  0  3.964333  0  0  0.113394  0  3.98516  0  0  0.01904  0.106358  0  3.950506  0
C  C84  1  0.89086249  0.35629118  0.69324967  1  0  -0.126965  0  3.657451  0  0  -0.147831  0  3.908858  0  0  -0.155632  0  3.930768  0  0  -0.065947  -0.142848  0  3.894669  0
C  C85  1  0.89085197  0.14372452  0.80675041  1  0  -0.1267  0  3.657346  0  0  -0.147423  0  3.908649  0  0  -0.155267  0  3.930545  0  0  -0.065794  -0.142447  0  3.894471  0
C  C86  1  0.10913680  0.64370328  0.30674372  1  0  -0.127163  0  3.657502  0  0  -0.147982  0  3.908963  0  0  -0.155781  0  3.930866  0  0  -0.06599  -0.143017  0  3.894796  0
C  C87  1  0.10913325  0.85627323  0.19324724  1  0  -0.126506  0  3.657112  0  0  -0.147374  0  3.908414  0  0  -0.155205  0  3.930314  0  0  -0.065821  -0.142388  0  3.894221  0
C  C88  1  0.87846333  0.36199953  0.60473044  1  0  0.149331  0  3.667094  0  0  0.115291  0  3.924045  0  0  0.122684  0  3.941367  0  0  0.060526  0.110428  0  3.912591  0
C  C89  1  0.87844373  0.13801457  0.89526709  1  0  0.149414  0  3.666983  0  0  0.115409  0  3.923954  0  0  0.122816  0  3.941277  0  0  0.060518  0.110538  0  3.912505  0
C  C90  1  0.12154689  0.63799410  0.39526075  1  0  0.149407  0  3.666776  0  0  0.115353  0  3.923762  0  0  0.122756  0  3.941074  0  0  0.060435  0.110489  0  3.91231  0
C  C91  1  0.12153523  0.86198397  0.10473016  1  0  0.149244  0  3.666919  0  0  0.115204  0  3.923968  0  0  0.122607  0  3.941296  0  0  0.060467  0.110334  0  3.912503  0
N  N92  1  0.87314206  0.27258192  0.52654759  1  0  -0.348945  0  3.325408  0  0  -0.266033  0  3.609986  0  0  -0.285445  0  3.623585  0  0  -0.328216  -0.253014  0  3.600885  0
N  N93  1  0.87311741  0.22743389  0.97345561  1  0  -0.349252  0  3.325836  0  0  -0.266317  0  3.610405  0  0  -0.28574  0  3.624006  0  0  -0.32836  -0.253293  0  3.60131  0
N  N94  1  0.12687754  0.72741419  0.47344826  1  0  -0.349166  0  3.325404  0  0  -0.266246  0  3.61004  0  0  -0.285668  0  3.623646  0  0  -0.328261  -0.253218  0  3.600938  0
N  N95  1  0.12686468  0.77256871  0.02654155  1  0  -0.349115  0  3.325868  0  0  -0.266188  0  3.610405  0  0  -0.285614  0  3.624017  0  0  -0.328295  -0.253157  0  3.601297  0
O  O96  1  0.68962892  0.38038159  0.36271268  1  0  -0.630219  0  2.07837  0  0  -0.548509  0  2.351276  0  0  -0.57809  0  2.335038  0  0  -0.311973  -0.527944  0  2.361787  0
O  O97  1  0.68962567  0.11962713  0.13728790  1  0  -0.630238  0  2.078252  0  0  -0.548514  0  2.35114  0  0  -0.578098  0  2.334905  0  0  -0.311976  -0.527941  0  2.361646  0
O  O98  1  0.31037974  0.61962351  0.63729177  1  0  -0.630144  0  2.078502  0  0  -0.548436  0  2.351408  0  0  -0.578014  0  2.335167  0  0  -0.31195  -0.52787  0  2.36192  0
O  O99  1  0.31036267  0.88037143  0.86271000  1  0  -0.630188  0  2.078336  0  0  -0.548527  0  2.351298  0  0  -0.57811  0  2.335062  0  0  -0.311944  -0.527962  0  2.361813  0
O  O100  1  0.74524724  0.51753707  0.49896840  1  0  -0.628251  0  2.010581  0  0  -0.573382  0  2.245457  0  0  -0.598779  0  2.235623  0  0  -0.306556  -0.555707  0  2.251729  0
O  O101  1  0.74524933  0.98247160  0.00103529  1  0  -0.628122  0  2.010628  0  0  -0.573252  0  2.245492  0  0  -0.59865  0  2.235657  0  0  -0.306521  -0.555577  0  2.251771  0
O  O102  1  0.25474423  0.48246318  0.50103719  1  0  -0.628224  0  2.010324  0  0  -0.573355  0  2.24519  0  0  -0.598751  0  2.235352  0  0  -0.306505  -0.555672  0  2.251461  0
O  O103  1  0.25470932  0.01752697  0.99896457  1  0  -0.628286  0  2.010331  0  0  -0.573394  0  2.245217  0  0  -0.598793  0  2.235384  0  0  -0.306562  -0.555714  0  2.251488  0
O  O104  1  0.81958351  0.37502431  0.18083568  1  0  -0.663584  0  2.027362  0  0  -0.591323  0  2.299191  0  0  -0.621068  0  2.282342  0  0  -0.336064  -0.570323  0  2.310095  0
O  O105  1  0.81957742  0.12498788  0.31916397  1  0  -0.663423  0  2.027258  0  0  -0.591201  0  2.299004  0  0  -0.620945  0  2.282164  0  0  -0.336019  -0.570207  0  2.30991  0
O  O106  1  0.18041734  0.62498237  0.81916468  1  0  -0.663497  0  2.027351  0  0  -0.591297  0  2.299062  0  0  -0.62103  0  2.282227  0  0  -0.336086  -0.570304  0  2.309973  0
O  O107  1  0.18043124  0.87501306  0.68083009  1  0  -0.663538  0  2.027255  0  0  -0.591287  0  2.29908  0  0  -0.621035  0  2.282236  0  0  -0.336073  -0.57029  0  2.309992  0
O  O108  1  0.46720003  0.35411034  0.16784201  1  0  -0.629423  0  1.911603  0  0  -0.581619  0  2.127526  0  0  -0.605203  0  2.115533  0  0  -0.321127  -0.564753  0  2.135231  0
O  O109  1  0.46719082  0.14587921  0.33216819  1  0  -0.629262  0  1.912103  0  0  -0.581532  0  2.127973  0  0  -0.605111  0  2.115988  0  0  -0.321178  -0.56467  0  2.13568  0
O  O110  1  0.53280394  0.64588762  0.83217658  1  0  -0.629325  0  1.91198  0  0  -0.581586  0  2.127805  0  0  -0.605165  0  2.115831  0  0  -0.32115  -0.564721  0  2.135513  0
O  O111  1  0.53282097  0.85412586  0.66783364  1  0  -0.629407  0  1.911849  0  0  -0.581598  0  2.127742  0  0  -0.60518  0  2.115748  0  0  -0.321215  -0.56473  0  2.135452  0
O  O112  1  0.15961701  0.30462008  0.36406260  1  0  -0.837174  0  1.875795  0  0  -0.763107  0  2.083771  0  0  -0.785938  0  2.045806  0  0  -0.570813  -0.747037  0  2.110129  0
O  O113  1  0.15960956  0.19537713  0.13593320  1  0  -0.837173  0  1.875708  0  0  -0.763052  0  2.083907  0  0  -0.785869  0  2.045937  0  0  -0.570823  -0.746987  0  2.110262  0
O  O114  1  0.84039791  0.69538253  0.63593587  1  0  -0.837043  0  1.875842  0  0  -0.762947  0  2.083938  0  0  -0.785779  0  2.045974  0  0  -0.570775  -0.746873  0  2.110292  0
O  O115  1  0.84036628  0.80461817  0.86406306  1  0  -0.837127  0  1.875744  0  0  -0.76306  0  2.083923  0  0  -0.785867  0  2.045904  0  0  -0.570729  -0.746988  0  2.110278  0
