# generated using pymatgen
data_NaH5C4N8O
_symmetry_space_group_name_H-M   'P 1'
_cell_length_a   3.65578272
_cell_length_b   6.19278193
_cell_length_c   18.35446446
_cell_angle_alpha   89.73751315
_cell_angle_beta   89.59523955
_cell_angle_gamma   72.54729059
_symmetry_Int_Tables_number   1
_chemical_formula_structural   NaH5C4N8O
_chemical_formula_sum   'Na2 H10 C8 N16 O2'
_cell_volume   396.39480725
_cell_formula_units_Z   2
loop_
 _symmetry_equiv_pos_site_id
 _symmetry_equiv_pos_as_xyz
  1  'x, y, z'
loop_
 _atom_site_type_symbol
 _atom_site_label
 _atom_site_symmetry_multiplicity
 _atom_site_fract_x
 _atom_site_fract_y
 _atom_site_fract_z
 _atom_site_occupancy
 _atom_site_hle17_bader_spin_density
 _atom_site_hle17_ddec_charge
 _atom_site_hle17_ddec_spin_density
 _atom_site_hle17_ddec_sum_bond_order
 _atom_site_hle17_magmom
 _atom_site_hse06_10hf_bader_spin_density
 _atom_site_hse06_10hf_ddec_charge
 _atom_site_hse06_10hf_ddec_spin_density
 _atom_site_hse06_10hf_ddec_sum_bond_order
 _atom_site_hse06_10hf_magmom
 _atom_site_hse06_bader_spin_density
 _atom_site_hse06_ddec_charge
 _atom_site_hse06_ddec_spin_density
 _atom_site_hse06_ddec_sum_bond_order
 _atom_site_hse06_magmom
 _atom_site_pbe_bader_spin_density
 _atom_site_pbe_cm5_charge
 _atom_site_pbe_ddec_charge
 _atom_site_pbe_ddec_spin_density
 _atom_site_pbe_ddec_sum_bond_order
 _atom_site_pbe_magmom
Na  Na0  1  0.48263093  0.30863350  0.30700775  1  0  0.868874  0  0.400311  0  0  0.795137  0  0.584389  0  0  0.807262  0  0.56148  0  0  0.691923  0.786362  0  0.60062  0
Na  Na1  1  0.79916838  0.69027745  0.80664710  1  0  0.867985  0  0.401933  0  0  0.793927  0  0.586436  0  0  0.806049  0  0.563515  0  0  0.693354  0.785147  0  0.602726  0
H  H2  1  0.20824931  0.95840191  0.25541779  1  0  0.399084  0  0.912482  0  0  0.360455  0  0.989166  0  0  0.371441  0  0.973103  0  0  0.283474  0.352741  0  1.000427  0
H  H3  1  0.16562342  0.04166216  0.75452382  1  0  0.398691  0  0.913124  0  0  0.360005  0  0.989942  0  0  0.370986  0  0.973902  0  0  0.283517  0.352331  0  1.001107  0
H  H4  1  0.42465965  0.87477017  0.60293894  1  0  0.115274  0  0.982932  0  0  0.115678  0  1.058747  0  0  0.119905  0  1.055795  0  0  0.111852  0.112659  0  1.060871  0
H  H5  1  0.31086145  0.12785588  0.10380121  1  0  0.114987  0  0.984136  0  0  0.11578  0  1.059478  0  0  0.120003  0  1.056494  0  0  0.112004  0.112734  0  1.061753  0
H  H6  1  0.70512091  0.14319858  0.48203210  1  0  0.10734  0  0.97856  0  0  0.109488  0  1.053561  0  0  0.113588  0  1.049985  0  0  0.113092  0.106656  0  1.055929  0
H  H7  1  0.84397208  0.85506709  0.98152392  1  0  0.108981  0  0.978305  0  0  0.110606  0  1.053609  0  0  0.114629  0  1.050142  0  0  0.113466  0.107622  0  1.056283  0
H  H8  1  0.07009203  0.95634617  0.33713651  1  0  0.391474  0  0.927482  0  0  0.35048  0  1.008333  0  0  0.36174  0  0.992045  0  0  0.280311  0.342607  0  1.019674  0
H  H9  1  0.02758810  0.04259950  0.83632073  1  0  0.390663  0  0.927904  0  0  0.350017  0  1.008588  0  0  0.361287  0  0.992266  0  0  0.279865  0.342086  0  1.020048  0
H  H10  1  0.51572072  0.49149151  0.55145448  1  0  0.27741  0  0.966731  0  0  0.242409  0  1.047723  0  0  0.2531  0  1.040284  0  0  0.308227  0.234989  0  1.052833  0
H  H11  1  0.00702234  0.50812294  0.05154302  1  0  0.276682  0  0.967897  0  0  0.242397  0  1.047838  0  0  0.253065  0  1.040351  0  0  0.307646  0.235019  0  1.052957  0
C  C12  1  0.75262547  0.79419989  0.46636578  1  0  0.298215  0  3.805708  0  0  0.27707  0  4.078008  0  0  0.285434  0  4.095281  0  0  0.212034  0.271553  0  4.066242  0
C  C13  1  0.54638458  0.20625092  0.96615447  1  0  0.296309  0  3.804287  0  0  0.276179  0  4.075441  0  0  0.284484  0  4.092818  0  0  0.210954  0.270716  0  4.063515  0
C  C14  1  0.64541625  0.99930175  0.50878035  1  0  -0.095196  0  3.692382  0  0  -0.120718  0  3.953011  0  0  -0.12004  0  3.968429  0  0  -0.067584  -0.121166  0  3.94265  0
C  C15  1  0.64516427  0.00052061  0.00872115  1  0  -0.094244  0  3.69227  0  0  -0.119287  0  3.952104  0  0  -0.118489  0  3.967576  0  0  -0.066491  -0.119777  0  3.941836  0
C  C16  1  0.48391572  0.01784241  0.57582159  1  0  -0.153856  0  3.72278  0  0  -0.172658  0  3.985646  0  0  -0.177919  0  4.002797  0  0  -0.083184  -0.169108  0  3.974108  0
C  C17  1  0.50796456  0.98317195  0.07632792  1  0  -0.154751  0  3.727391  0  0  -0.174604  0  3.989844  0  0  -0.179942  0  4.007096  0  0  -0.084816  -0.171059  0  3.978361  0
C  C18  1  0.37022967  0.22346469  0.61768621  1  0  0.338153  0  3.767177  0  0  0.304823  0  4.037967  0  0  0.318531  0  4.052741  0  0  0.233175  0.29584  0  4.02782  0
C  C19  1  0.59753901  0.77695976  0.11820083  1  0  0.338363  0  3.767904  0  0  0.307015  0  4.036518  0  0  0.320734  0  4.05117  0  0  0.23381  0.298  0  4.026457  0
N  N20  1  0.92099040  0.77816909  0.40001920  1  0  -0.282928  0  3.030611  0  0  -0.23739  0  3.292645  0  0  -0.249298  0  3.306987  0  0  -0.194561  -0.229328  0  3.282902  0
N  N21  1  0.69830934  0.22136761  0.89968836  1  0  -0.282999  0  3.02588  0  0  -0.238529  0  3.288721  0  0  -0.250399  0  3.303049  0  0  -0.19408  -0.230373  0  3.278939  0
N  N22  1  0.25078699  0.57571757  0.65308156  1  0  -0.054494  0  2.931492  0  0  -0.052882  0  3.221798  0  0  -0.051351  0  3.232945  0  0  -0.073417  -0.053624  0  3.214106  0
N  N23  1  0.82543537  0.42323845  0.15332096  1  0  -0.056452  0  2.933269  0  0  -0.05469  0  3.223853  0  0  -0.053257  0  3.234932  0  0  -0.074307  -0.055355  0  3.216433  0
N  N24  1  0.39589297  0.43003656  0.59892748  1  0  -0.228375  0  3.383045  0  0  -0.167452  0  3.633974  0  0  -0.183295  0  3.649554  0  0  -0.239038  -0.157036  0  3.623446  0
N  N25  1  0.82689409  0.56927551  0.09922657  1  0  -0.227314  0  3.381819  0  0  -0.167551  0  3.632266  0  0  -0.183231  0  3.647694  0  0  -0.238751  -0.157346  0  3.622036  0
N  N26  1  0.13712071  0.46156504  0.70400968  1  0  -0.144738  0  3.048777  0  0  -0.135078  0  3.365779  0  0  -0.13464  0  3.374413  0  0  -0.14678  -0.135235  0  3.360016  0
N  N27  1  0.59927170  0.53830631  0.20436619  1  0  -0.144824  0  3.048421  0  0  -0.135045  0  3.365052  0  0  -0.134602  0  3.373762  0  0  -0.144505  -0.135133  0  3.359166  0
N  N28  1  0.70264990  0.59287336  0.48471622  1  0  -0.290807  0  3.077826  0  0  -0.251697  0  3.351463  0  0  -0.264227  0  3.367893  0  0  -0.210971  -0.243196  0  3.340218  0
N  N29  1  0.29387712  0.40834992  0.98417773  1  0  -0.290355  0  3.076537  0  0  -0.251631  0  3.349434  0  0  -0.26414  0  3.365904  0  0  -0.210795  -0.24313  0  3.338172  0
N  N30  1  0.97301068  0.56518405  0.37821612  1  0  -0.195477  0  3.094255  0  0  -0.17923  0  3.403642  0  0  -0.181494  0  3.415639  0  0  -0.187913  -0.177525  0  3.395521  0
N  N31  1  0.53629482  0.43457028  0.87748437  1  0  -0.193987  0  3.093174  0  0  -0.177615  0  3.402185  0  0  -0.179861  0  3.414259  0  0  -0.185915  -0.175867  0  3.393948  0
N  N32  1  0.20604962  0.24340860  0.68417109  1  0  -0.286848  0  2.965577  0  0  -0.244839  0  3.234575  0  0  -0.257605  0  3.246107  0  0  -0.188835  -0.236346  0  3.226734  0
N  N33  1  0.45314794  0.75748061  0.18471375  1  0  -0.286832  0  2.964674  0  0  -0.245745  0  3.233382  0  0  -0.25853  0  3.24487  0  0  -0.188442  -0.237107  0  3.225538  0
N  N34  1  0.84171329  0.45348930  0.42901390  1  0  -0.12804  0  3.029728  0  0  -0.11553  0  3.330377  0  0  -0.116774  0  3.343573  0  0  -0.122781  -0.114364  0  3.321121  0
N  N35  1  0.29260830  0.54724463  0.92812303  1  0  -0.130464  0  3.03333  0  0  -0.117602  0  3.333483  0  0  -0.118882  0  3.346663  0  0  -0.124949  -0.116375  0  3.324459  0
O  O36  1  0.10831955  0.05969191  0.29762007  1  0  -0.934054  0  1.834578  0  0  -0.877082  0  2.037162  0  0  -0.89338  0  2.000127  0  0  -0.721132  -0.865541  0  2.062894  0
O  O37  1  0.17068175  0.93989413  0.79687757  1  0  -0.93145  0  1.835239  0  0  -0.874608  0  2.035774  0  0  -0.890883  0  1.998772  0  0  -0.719455  -0.863071  0  2.061535  0
