# generated using pymatgen
data_BaH10C4(N4O3)2
_symmetry_space_group_name_H-M   'P 1'
_cell_length_a   7.66804817
_cell_length_b   7.79323188
_cell_length_c   11.78317950
_cell_angle_alpha   71.15449001
_cell_angle_beta   85.64053358
_cell_angle_gamma   63.83631758
_symmetry_Int_Tables_number   1
_chemical_formula_structural   BaH10C4(N4O3)2
_chemical_formula_sum   'Ba2 H20 C8 N16 O12'
_cell_volume   596.29016776
_cell_formula_units_Z   2
loop_
 _symmetry_equiv_pos_site_id
 _symmetry_equiv_pos_as_xyz
  1  'x, y, z'
loop_
 _atom_site_type_symbol
 _atom_site_label
 _atom_site_symmetry_multiplicity
 _atom_site_fract_x
 _atom_site_fract_y
 _atom_site_fract_z
 _atom_site_occupancy
 _atom_site_hle17_bader_spin_density
 _atom_site_hle17_ddec_charge
 _atom_site_hle17_ddec_spin_density
 _atom_site_hle17_ddec_sum_bond_order
 _atom_site_hle17_magmom
 _atom_site_hse06_10hf_bader_spin_density
 _atom_site_hse06_10hf_ddec_charge
 _atom_site_hse06_10hf_ddec_spin_density
 _atom_site_hse06_10hf_ddec_sum_bond_order
 _atom_site_hse06_10hf_magmom
 _atom_site_hse06_bader_spin_density
 _atom_site_hse06_ddec_charge
 _atom_site_hse06_ddec_spin_density
 _atom_site_hse06_ddec_sum_bond_order
 _atom_site_hse06_magmom
 _atom_site_pbe_bader_spin_density
 _atom_site_pbe_cm5_charge
 _atom_site_pbe_ddec_charge
 _atom_site_pbe_ddec_spin_density
 _atom_site_pbe_ddec_sum_bond_order
 _atom_site_pbe_magmom
Ba  Ba0  1  0.31050217  0.79176026  0.03013344  1  0  1.638781  0  1.13652  0  0  1.499202  0  1.528947  0  0  1.536405  0  1.486389  0  0  0.930601  1.471817  0  1.559149  0
Ba  Ba1  1  0.68949777  0.20824021  0.96986660  1  0  1.638777  0  1.136529  0  0  1.499202  0  1.528949  0  0  1.536401  0  1.486402  0  0  0.930595  1.471817  0  1.55915  0
H  H2  1  0.53840985  0.71625600  0.45604947  1  0  0.110267  0  0.949094  0  0  0.112371  0  1.02508  0  0  0.116027  0  1.020755  0  0  0.136459  0.109702  0  1.028174  0
H  H3  1  0.46159009  0.28374448  0.54395057  1  0  0.110245  0  0.949111  0  0  0.112351  0  1.025097  0  0  0.116006  0  1.020771  0  0  0.136452  0.109681  0  1.028192  0
H  H4  1  0.89518525  0.37464672  0.49797739  1  0  0.10785  0  0.953016  0  0  0.110625  0  1.028536  0  0  0.113818  0  1.024675  0  0  0.136869  0.108239  0  1.031393  0
H  H5  1  0.10481342  0.62535679  0.50202290  1  0  0.107848  0  0.952993  0  0  0.1106  0  1.028547  0  0  0.113792  0  1.024687  0  0  0.136844  0.108214  0  1.031404  0
H  H6  1  0.25989200  0.37907209  0.06099210  1  0  0.417946  0  0.895129  0  0  0.385825  0  0.961027  0  0  0.396635  0  0.945331  0  0  0.303259  0.3782  0  0.972086  0
H  H7  1  0.74010858  0.62092687  0.93900739  1  0  0.417946  0  0.895131  0  0  0.385825  0  0.961031  0  0  0.396636  0  0.945334  0  0  0.303251  0.3782  0  0.97209  0
H  H8  1  0.23366010  0.47176512  0.91815235  1  0  0.400618  0  0.910876  0  0  0.363741  0  0.988273  0  0  0.373907  0  0.973645  0  0  0.30184  0.356539  0  0.998632  0
H  H9  1  0.76634048  0.52823384  0.08184713  1  0  0.400598  0  0.910877  0  0  0.363742  0  0.988265  0  0  0.373907  0  0.973637  0  0  0.301847  0.356539  0  0.998624  0
H  H10  1  0.09210758  0.21727671  0.05627412  1  0  0.419229  0  0.889173  0  0  0.389888  0  0.949507  0  0  0.400379  0  0.934336  0  0  0.305867  0.382487  0  0.960196  0
H  H11  1  0.90789365  0.78272076  0.94372736  1  0  0.419242  0  0.889156  0  0  0.389881  0  0.949527  0  0  0.400374  0  0.934355  0  0  0.305868  0.382478  0  0.960221  0
H  H12  1  0.07691711  0.29312948  0.91283075  1  0  0.400387  0  0.916515  0  0  0.361074  0  0.994569  0  0  0.371833  0  0.979114  0  0  0.299232  0.353503  0  1.005434  0
H  H13  1  0.92308348  0.70686949  0.08716959  1  0  0.4004  0  0.916495  0  0  0.361087  0  0.994547  0  0  0.371847  0  0.979092  0  0  0.299235  0.353516  0  1.005412  0
H  H14  1  0.61321268  0.80812452  0.22203475  1  0  0.406889  0  0.89674  0  0  0.368658  0  0.973668  0  0  0.379625  0  0.957305  0  0  0.298283  0.360891  0  0.985234  0
H  H15  1  0.38678726  0.19187596  0.77796529  1  0  0.406839  0  0.896804  0  0  0.368626  0  0.973709  0  0  0.379592  0  0.957346  0  0  0.298274  0.360858  0  0.985275  0
H  H16  1  0.41580989  0.01046367  0.19036684  1  0  0.421947  0  0.877318  0  0  0.387666  0  0.947063  0  0  0.398549  0  0.930883  0  0  0.301504  0.379954  0  0.958515  0
H  H17  1  0.58418874  0.98953680  0.80963242  1  0  0.421932  0  0.877345  0  0  0.387655  0  0.947084  0  0  0.398536  0  0.930905  0  0  0.301489  0.379943  0  0.958535  0
H  H18  1  0.97662704  0.93786641  0.25060594  1  0  0.423628  0  0.872817  0  0  0.387246  0  0.946456  0  0  0.398234  0  0.930173  0  0  0.293777  0.379437  0  0.95801  0
H  H19  1  0.02337616  0.06213254  0.74939256  1  0  0.423644  0  0.8728  0  0  0.387264  0  0.946443  0  0  0.398253  0  0.930158  0  0  0.293802  0.379455  0  0.957997  0
H  H20  1  0.16941404  0.72359675  0.29815140  1  0  0.388027  0  0.929325  0  0  0.347126  0  1.011744  0  0  0.358074  0  0.995469  0  0  0.283368  0.339404  0  1.023194  0
H  H21  1  0.83058786  0.27640221  0.70184802  1  0  0.388019  0  0.929335  0  0  0.347119  0  1.011746  0  0  0.358068  0  0.99547  0  0  0.28337  0.339398  0  1.023195  0
C  C22  1  0.06867493  0.32829736  0.24035018  1  0  0.599369  0  3.865212  0  0  0.522444  0  4.176043  0  0  0.552319  0  4.177292  0  0  0.329081  0.502377  0  4.174637  0
C  C23  1  0.93132501  0.67170311  0.75964986  1  0  0.599348  0  3.865376  0  0  0.522443  0  4.176176  0  0  0.552321  0  4.177425  0  0  0.3291  0.502376  0  4.174771  0
C  C24  1  0.51464563  0.69441861  0.55051725  1  0  0.091366  0  3.716936  0  0  0.023184  0  4.009916  0  0  0.033909  0  4.024856  0  0  0.123235  0.016478  0  3.999423  0
C  C25  1  0.48535367  0.30558339  0.44948334  1  0  0.09141  0  3.717005  0  0  0.023205  0  4.009973  0  0  0.033929  0  4.024914  0  0  0.123219  0.016496  0  3.999481  0
C  C26  1  0.38186735  0.74400397  0.72202448  1  0  0.587476  0  3.900729  0  0  0.52542  0  4.207957  0  0  0.554864  0  4.211503  0  0  0.315208  0.505623  0  4.204774  0
C  C27  1  0.61813323  0.25599500  0.27797586  1  0  0.587549  0  3.900702  0  0  0.525471  0  4.207934  0  0  0.554915  0  4.211481  0  0  0.315226  0.505673  0  4.20475  0
C  C28  1  0.92539506  0.39185773  0.40457874  1  0  0.115552  0  3.678087  0  0  0.046624  0  3.972397  0  0  0.057735  0  3.98677  0  0  0.138727  0.039475  0  3.962491  0
C  C29  1  0.07460294  0.60814427  0.59542192  1  0  0.115532  0  3.677977  0  0  0.046622  0  3.972279  0  0  0.057732  0  3.986654  0  0  0.138745  0.039475  0  3.962372  0
N  N30  1  0.21541518  0.01366878  0.53724605  1  0  -0.028233  0  2.973706  0  0  -0.034633  0  3.276122  0  0  -0.024365  0  3.277974  0  0  -0.038162  -0.041936  0  3.275519  0
N  N31  1  0.78458477  0.98633171  0.46275484  1  0  -0.028128  0  2.973683  0  0  -0.034565  0  3.276093  0  0  -0.024292  0  3.27794  0  0  -0.038111  -0.041867  0  3.275488  0
N  N32  1  0.22701888  0.06535266  0.42473219  1  0  -0.027435  0  2.958688  0  0  -0.035526  0  3.264472  0  0  -0.025593  0  3.26583  0  0  -0.039856  -0.042571  0  3.26424  0
N  N33  1  0.77297912  0.93464935  0.57526931  1  0  -0.027514  0  2.958679  0  0  -0.035583  0  3.26446  0  0  -0.025645  0  3.265812  0  0  -0.039872  -0.042629  0  3.264228  0
N  N34  1  0.07979216  0.24903392  0.36628437  1  0  -0.117893  0  3.539466  0  0  -0.037212  0  3.787051  0  0  -0.058072  0  3.809546  0  0  -0.121079  -0.023331  0  3.771675  0
N  N35  1  0.92020648  0.75096657  0.63371658  1  0  -0.117806  0  3.539411  0  0  -0.037145  0  3.786988  0  0  -0.058009  0  3.809486  0  0  -0.121104  -0.023264  0  3.771613  0
N  N36  1  0.36263684  0.83068559  0.59388731  1  0  -0.123668  0  3.542349  0  0  -0.043246  0  3.786458  0  0  -0.06454  0  3.808994  0  0  -0.125434  -0.029079  0  3.770991  0
N  N37  1  0.63736311  0.16931489  0.40611273  1  0  -0.123755  0  3.542441  0  0  -0.043262  0  3.78649  0  0  -0.06456  0  3.80903  0  0  -0.125426  -0.029095  0  3.771024  0
N  N38  1  0.91157854  0.50863942  0.20760427  1  0  -0.438916  0  3.032351  0  0  -0.373635  0  3.288477  0  0  -0.391178  0  3.296711  0  0  -0.243175  -0.361841  0  3.282983  0
N  N39  1  0.08841878  0.49136105  0.79239506  1  0  -0.438888  0  3.032382  0  0  -0.373604  0  3.288487  0  0  -0.391147  0  3.296721  0  0  -0.243131  -0.361814  0  3.283004  0
N  N40  1  0.82485064  0.54631760  0.31077956  1  0  -0.212979  0  3.031182  0  0  -0.183464  0  3.311149  0  0  -0.191539  0  3.325117  0  0  -0.217018  -0.17796  0  3.301694  0
N  N41  1  0.17514931  0.45368289  0.68922132  1  0  -0.213004  0  3.031179  0  0  -0.183489  0  3.311144  0  0  -0.191564  0  3.325112  0  0  -0.217041  -0.177987  0  3.301689  0
N  N42  1  0.54129109  0.56414039  0.74879142  1  0  -0.468534  0  2.920968  0  0  -0.430518  0  3.209788  0  0  -0.449169  0  3.223161  0  0  -0.300501  -0.41771  0  3.20046  0
N  N43  1  0.45870819  0.43585857  0.25120814  1  0  -0.468528  0  2.920929  0  0  -0.430507  0  3.209739  0  0  -0.449158  0  3.223112  0  0  -0.300478  -0.4177  0  3.20041  0
N  N44  1  0.62007550  0.53758883  0.64179566  1  0  -0.224581  0  3.113108  0  0  -0.185081  0  3.400739  0  0  -0.19482  0  3.418395  0  0  -0.21956  -0.178375  0  3.388452  0
N  N45  1  0.37992444  0.46241164  0.35820354  1  0  -0.224591  0  3.113151  0  0  -0.185089  0  3.400791  0  0  -0.194827  0  3.418447  0  0  -0.219564  -0.178383  0  3.388503  0
O  O46  1  0.18822997  0.23999078  0.17405012  1  0  -0.644175  0  2.118285  0  0  -0.572159  0  2.345483  0  0  -0.598054  0  2.336087  0  0  -0.284043  -0.553901  0  2.35144  0
O  O47  1  0.81177062  0.76000819  0.82595021  1  0  -0.64421  0  2.118358  0  0  -0.572197  0  2.345551  0  0  -0.598094  0  2.336156  0  0  -0.284069  -0.553935  0  2.351509  0
O  O48  1  0.26565299  0.82940519  0.78961069  1  0  -0.664027  0  2.005163  0  0  -0.602442  0  2.243983  0  0  -0.62995  0  2.23743  0  0  -0.345201  -0.582756  0  2.247701  0
O  O49  1  0.73434628  0.17059377  0.21038887  1  0  -0.66408  0  2.005163  0  0  -0.602494  0  2.243994  0  0  -0.63  0  2.237441  0  0  -0.345227  -0.582808  0  2.247711  0
O  O50  1  0.31037527  0.45016705  0.99008371  1  0  -0.914198  0  1.912498  0  0  -0.853008  0  2.119232  0  0  -0.874467  0  2.089044  0  0  -0.663448  -0.837735  0  2.14034  0
O  O51  1  0.68962401  0.54983191  0.00991584  1  0  -0.914176  0  1.912518  0  0  -0.853011  0  2.119239  0  0  -0.874471  0  2.08905  0  0  -0.663446  -0.837739  0  2.140347  0
O  O52  1  0.06140622  0.19072500  0.98510362  1  0  -0.912769  0  1.901383  0  0  -0.844466  0  2.101494  0  0  -0.866926  0  2.071368  0  0  -0.669179  -0.828463  0  2.122415  0
O  O53  1  0.93859504  0.80927547  0.01489635  1  0  -0.91278  0  1.901338  0  0  -0.844468  0  2.101453  0  0  -0.866928  0  2.071326  0  0  -0.669175  -0.828473  0  2.122393  0
O  O54  1  0.52191405  0.91935414  0.15465143  1  0  -0.877204  0  1.802396  0  0  -0.818104  0  1.979735  0  0  -0.837314  0  1.948964  0  0  -0.60184  -0.804396  0  2.001263  0
O  O55  1  0.47808653  0.08064482  0.84534806  1  0  -0.877127  0  1.802467  0  0  -0.818061  0  1.979793  0  0  -0.837271  0  1.949024  0  0  -0.601809  -0.804352  0  2.001322  0
O  O56  1  0.10469261  0.84980991  0.23021947  1  0  -0.874732  0  1.833099  0  0  -0.817612  0  2.020673  0  0  -0.836338  0  1.989159  0  0  -0.628829  -0.804076  0  2.042678  0
O  O57  1  0.89531257  0.15019057  0.76978114  1  0  -0.874725  0  1.833071  0  0  -0.817604  0  2.020632  0  0  -0.836331  0  1.989118  0  0  -0.628846  -0.804068  0  2.042635  0
