# generated using pymatgen
data_UH5C7NO7
_symmetry_space_group_name_H-M   'P 1'
_cell_length_a   6.26822936
_cell_length_b   8.12639098
_cell_length_c   11.80720093
_cell_angle_alpha   106.90692846
_cell_angle_beta   96.95695926
_cell_angle_gamma   114.65140858
_symmetry_Int_Tables_number   1
_chemical_formula_structural   UH5C7NO7
_chemical_formula_sum   'U2 H10 C14 N2 O14'
_cell_volume   502.26228780
_cell_formula_units_Z   2
loop_
 _symmetry_equiv_pos_site_id
 _symmetry_equiv_pos_as_xyz
  1  'x, y, z'
loop_
 _atom_site_type_symbol
 _atom_site_label
 _atom_site_symmetry_multiplicity
 _atom_site_fract_x
 _atom_site_fract_y
 _atom_site_fract_z
 _atom_site_occupancy
 _atom_site_hle17_bader_spin_density
 _atom_site_hle17_ddec_charge
 _atom_site_hle17_ddec_spin_density
 _atom_site_hle17_ddec_sum_bond_order
 _atom_site_hle17_magmom
 _atom_site_hse06_10hf_bader_spin_density
 _atom_site_hse06_10hf_ddec_charge
 _atom_site_hse06_10hf_ddec_spin_density
 _atom_site_hse06_10hf_ddec_sum_bond_order
 _atom_site_hse06_10hf_magmom
 _atom_site_hse06_bader_spin_density
 _atom_site_hse06_ddec_charge
 _atom_site_hse06_ddec_spin_density
 _atom_site_hse06_ddec_sum_bond_order
 _atom_site_hse06_magmom
 _atom_site_pbe_bader_spin_density
 _atom_site_pbe_cm5_charge
 _atom_site_pbe_ddec_charge
 _atom_site_pbe_ddec_spin_density
 _atom_site_pbe_ddec_sum_bond_order
 _atom_site_pbe_magmom
U  U0  1  0.75430477  0.91756468  0.84657735  1  0  2.427762  0  4.151955  0  0  2.472609  0  4.81807  0  0  2.578468  0  4.783066  0  0  2.165709  2.398354  0  4.842423  0
U  U1  1  0.24570604  0.08244594  0.15341359  1  0  2.42772  0  4.151716  0  0  2.47282  0  4.817678  0  0  2.578575  0  4.782833  0  0  2.165577  2.398553  0  4.842048  0
H  H2  1  0.95051500  0.31199703  0.14228315  1  0  0.433446  0  0.833966  0  0  0.407655  0  0.900838  0  0  0.42179  0  0.885911  0  0  0.325746  0.397746  0  0.911158  0
H  H3  1  0.04949070  0.68800655  0.85771967  1  0  0.433461  0  0.833914  0  0  0.407655  0  0.900799  0  0  0.421787  0  0.885877  0  0  0.32574  0.397748  0  0.911119  0
H  H4  1  0.75052022  0.02839415  0.09217648  1  0  0.420174  0  0.884991  0  0  0.395927  0  0.943757  0  0  0.408053  0  0.92655  0  0  0.304117  0.387302  0  0.955944  0
H  H5  1  0.24948049  0.97160616  0.90781947  1  0  0.420112  0  0.885064  0  0  0.395821  0  0.943894  0  0  0.407948  0  0.926686  0  0  0.304071  0.3872  0  0.956074  0
H  H6  1  0.18965343  0.06074401  0.53601879  1  0  0.116056  0  0.952555  0  0  0.124907  0  1.013777  0  0  0.128024  0  1.013356  0  0  0.117079  0.122704  0  1.014207  0
H  H7  1  0.81033629  0.93924737  0.46398323  1  0  0.11606  0  0.952497  0  0  0.124959  0  1.013682  0  0  0.128077  0  1.013261  0  0  0.117083  0.122754  0  1.014113  0
H  H8  1  0.02945523  0.76060633  0.33801325  1  0  0.142228  0  0.934473  0  0  0.151857  0  0.991464  0  0  0.155974  0  0.987249  0  0  0.12927  0.148895  0  0.994573  0
H  H9  1  0.97055223  0.23939151  0.66198094  1  0  0.142481  0  0.934348  0  0  0.151976  0  0.991454  0  0  0.156131  0  0.987195  0  0  0.129306  0.148938  0  0.99466  0
H  H10  1  0.39947712  0.54455427  0.54073180  1  0  0.091196  0  0.956802  0  0  0.097979  0  1.020549  0  0  0.101518  0  1.0162  0  0  0.127003  0.095389  0  1.023718  0
H  H11  1  0.60052038  0.45544894  0.45927552  1  0  0.091114  0  0.956694  0  0  0.097909  0  1.020405  0  0  0.101451  0  1.016055  0  0  0.12694  0.095318  0  1.023577  0
C  C12  1  0.36299540  0.95041988  0.63735639  1  0  0.116569  0  3.742894  0  0  0.119778  0  3.993293  0  0  0.125524  0  4.010146  0  0  0.127248  0.115844  0  3.981972  0
C  C13  1  0.63699754  0.04957158  0.36264160  1  0  0.116219  0  3.743485  0  0  0.119621  0  3.99366  0  0  0.125337  0  4.010537  0  0  0.127106  0.115689  0  3.982332  0
C  C14  1  0.22365931  0.93850793  0.53122879  1  0  -0.110315  0  3.689756  0  0  -0.130754  0  3.939776  0  0  -0.138237  0  3.959986  0  0  -0.067053  -0.126026  0  3.926318  0
C  C15  1  0.77632276  0.06147837  0.46875653  1  0  -0.110226  0  3.689775  0  0  -0.130788  0  3.93974  0  0  -0.138267  0  3.959976  0  0  -0.066995  -0.126054  0  3.926256  0
C  C16  1  0.13901421  0.77502964  0.42311465  1  0  0.006823  0  3.614822  0  0  -0.024965  0  3.865361  0  0  -0.018029  0  3.879772  0  0  -0.043747  -0.029149  0  3.8554  0
C  C17  1  0.86101253  0.22497398  0.57689709  1  0  0.006744  0  3.61447  0  0  -0.024964  0  3.864925  0  0  -0.018061  0  3.879314  0  0  -0.04378  -0.029092  0  3.855004  0
C  C18  1  0.20581002  0.63106405  0.42482587  1  0  -0.118065  0  3.727938  0  0  -0.096351  0  3.966996  0  0  -0.110246  0  3.989911  0  0  -0.003352  -0.087567  0  3.951859  0
C  C19  1  0.79419359  0.36893238  0.57517713  1  0  -0.118354  0  3.728449  0  0  -0.096478  0  3.967247  0  0  -0.110367  0  3.990182  0  0  -0.003387  -0.087695  0  3.952103  0
C  C20  1  0.34708375  0.65431000  0.53524365  1  0  0.150619  0  3.666486  0  0  0.113492  0  3.928481  0  0  0.12416  0  3.942947  0  0  0.069247  0.106594  0  3.918548  0
C  C21  1  0.65293617  0.34569899  0.46477380  1  0  0.150601  0  3.666305  0  0  0.113523  0  3.928095  0  0  0.124182  0  3.942562  0  0  0.069256  0.106625  0  3.918164  0
C  C22  1  0.45906540  0.12243734  0.75839647  1  0  0.614794  0  3.894888  0  0  0.571564  0  4.205083  0  0  0.604906  0  4.196867  0  0  0.228891  0.54867  0  4.209393  0
C  C23  1  0.54093217  0.87755999  0.24160040  1  0  0.61488  0  3.895057  0  0  0.571622  0  4.205172  0  0  0.604974  0  4.196956  0  0  0.228925  0.548726  0  4.209479  0
C  C24  1  0.13859742  0.45849684  0.31178378  1  0  0.698517  0  3.783687  0  0  0.647408  0  4.084579  0  0  0.68598  0  4.072849  0  0  0.260548  0.621052  0  4.091995  0
C  C25  1  0.86140404  0.54150790  0.68821900  1  0  0.698876  0  3.783179  0  0  0.647602  0  4.084176  0  0  0.686162  0  4.072454  0  0  0.260603  0.621251  0  4.091598  0
N  N26  1  0.42384617  0.81000153  0.63944746  1  0  -0.391963  0  3.245714  0  0  -0.365757  0  3.535798  0  0  -0.38679  0  3.557788  0  0  -0.349017  -0.351097  0  3.520268  0
N  N27  1  0.57614828  0.18998988  0.36054468  1  0  -0.391797  0  3.245332  0  0  -0.365743  0  3.535372  0  0  -0.386753  0  3.557372  0  0  -0.348892  -0.351079  0  3.519837  0
O  O28  1  0.96362009  0.09482016  0.79623670  1  0  -0.688492  0  1.568201  0  0  -0.691669  0  1.848365  0  0  -0.714715  0  1.836517  0  0  -0.755361  -0.67791  0  1.857175  0
O  O29  1  0.03637708  0.90518567  0.20376348  1  0  -0.688391  0  1.567856  0  0  -0.691714  0  1.848013  0  0  -0.714734  0  1.836182  0  0  -0.755243  -0.677965  0  1.856834  0
O  O30  1  0.54059008  0.72775138  0.88513830  1  0  -0.633166  0  1.54228  0  0  -0.641739  0  1.817317  0  0  -0.660871  0  1.803358  0  0  -0.744736  -0.630852  0  1.827694  0
O  O31  1  0.45939221  0.27225728  0.11484033  1  0  -0.633263  0  1.542341  0  0  -0.641837  0  1.817304  0  0  -0.66094  0  1.803362  0  0  -0.744708  -0.63095  0  1.827686  0
O  O32  1  0.51942885  0.07738775  0.85208714  1  0  -0.672745  0  2.026442  0  0  -0.65761  0  2.295853  0  0  -0.693732  0  2.288334  0  0  -0.380742  -0.630656  0  2.29928  0
O  O33  1  0.48056306  0.92261088  0.14791896  1  0  -0.672692  0  2.026594  0  0  -0.657624  0  2.296026  0  0  -0.693727  0  2.288506  0  0  -0.380754  -0.630668  0  2.299455  0
O  O34  1  0.47599913  0.27983378  0.76223206  1  0  -0.476452  0  1.899825  0  0  -0.450082  0  2.10854  0  0  -0.471996  0  2.101674  0  0  -0.25815  -0.433499  0  2.112124  0
O  O35  1  0.52399827  0.72016932  0.23777099  1  0  -0.476475  0  1.899796  0  0  -0.45011  0  2.108514  0  0  -0.47203  0  2.101647  0  0  -0.258202  -0.433529  0  2.112102  0
O  O36  1  0.99679107  0.44206939  0.21464908  1  0  -0.481057  0  2.083012  0  0  -0.422683  0  2.280219  0  0  -0.446341  0  2.264871  0  0  -0.264685  -0.40632  0  2.290552  0
O  O37  1  0.00321660  0.55792868  0.78535364  1  0  -0.481252  0  2.082706  0  0  -0.42276  0  2.279901  0  0  -0.446406  0  2.264548  0  0  -0.264679  -0.406393  0  2.290229  0
O  O38  1  0.21577798  0.33895318  0.31462868  1  0  -0.650268  0  2.056016  0  0  -0.625256  0  2.321033  0  0  -0.656356  0  2.314744  0  0  -0.331934  -0.6031  0  2.324547  0
O  O39  1  0.78421470  0.66103141  0.68537644  1  0  -0.65033  0  2.056072  0  0  -0.625288  0  2.321163  0  0  -0.656398  0  2.31487  0  0  -0.331976  -0.603136  0  2.324683  0
O  O40  1  0.89041704  0.10228690  0.06387173  1  0  -0.99563  0  1.822437  0  0  -0.996326  0  2.067789  0  0  -1.037082  0  2.047098  0  0  -0.656057  -0.966377  0  2.081145  0
O  O41  1  0.10957619  0.89771445  0.93612735  1  0  -0.99552  0  1.822468  0  0  -0.996185  0  2.0679  0  0  -1.036942  0  2.047213  0  0  -0.656018  -0.966238  0  2.081253  0
