# generated using pymatgen
data_ZnH14C10(NO3)2
_symmetry_space_group_name_H-M   'P 1'
_cell_length_a   9.30286009
_cell_length_b   9.30285562
_cell_length_c   14.77970000
_cell_angle_alpha   90.00000000
_cell_angle_beta   90.00000000
_cell_angle_gamma   90.00000000
_symmetry_Int_Tables_number   1
_chemical_formula_structural   ZnH14C10(NO3)2
_chemical_formula_sum   'Zn4 H56 C40 N8 O24'
_cell_volume   1279.08200428
_cell_formula_units_Z   4
loop_
 _symmetry_equiv_pos_site_id
 _symmetry_equiv_pos_as_xyz
  1  'x, y, z'
loop_
 _atom_site_type_symbol
 _atom_site_label
 _atom_site_symmetry_multiplicity
 _atom_site_fract_x
 _atom_site_fract_y
 _atom_site_fract_z
 _atom_site_occupancy
 _atom_site_hle17_bader_spin_density
 _atom_site_hle17_ddec_charge
 _atom_site_hle17_ddec_spin_density
 _atom_site_hle17_ddec_sum_bond_order
 _atom_site_hle17_magmom
 _atom_site_hse06_10hf_bader_spin_density
 _atom_site_hse06_10hf_ddec_charge
 _atom_site_hse06_10hf_ddec_spin_density
 _atom_site_hse06_10hf_ddec_sum_bond_order
 _atom_site_hse06_10hf_magmom
 _atom_site_hse06_bader_spin_density
 _atom_site_hse06_ddec_charge
 _atom_site_hse06_ddec_spin_density
 _atom_site_hse06_ddec_sum_bond_order
 _atom_site_hse06_magmom
 _atom_site_pbe_bader_charge
 _atom_site_pbe_bader_spin_density
 _atom_site_pbe_cm5_charge
 _atom_site_pbe_ddec_charge
 _atom_site_pbe_ddec_spin_density
 _atom_site_pbe_ddec_sum_bond_order
 _atom_site_pbe_magmom
Zn  Zn0  1  0.60450657  0.07548327  0.00664087  1  0  1.055303  0  1.758693  0  0  0.887651  0  2.187633  0  0  0.931507  0  2.13949  0  1.298414  0  0.68462  0.857714  0  2.219502  0
Zn  Zn1  1  0.39549450  0.92451612  0.50664087  1  0  1.055286  0  1.758736  0  0  0.887645  0  2.187637  0  0  0.931504  0  2.139502  0  1.298321  0  0.684624  0.857708  0  2.219507  0
Zn  Zn2  1  0.92451675  0.60450686  0.75664120  1  0  1.055318  0  1.758679  0  0  0.887675  0  2.187601  0  0  0.931532  0  2.139462  0  1.298412  0  0.684636  0.857738  0  2.219471  0
Zn  Zn3  1  0.07548216  0.39549362  0.25664188  1  0  1.055333  0  1.758693  0  0  0.887667  0  2.187625  0  0  0.931534  0  2.139484  0  1.298413  0  0.684619  0.857728  0  2.219494  0
H  H4  1  0.60827530  0.77510609  0.07399338  1  0  0.432827  0  0.807153  0  0  0.419524  0  0.85386  0  0  0.427309  0  0.845277  0  0.60368  0  0.329914  0.413674  0  0.860731  0
H  H5  1  0.39172577  0.22489116  0.57399271  1  0  0.432865  0  0.807143  0  0  0.419542  0  0.853883  0  0  0.427326  0  0.845298  0  0.603715  0  0.329941  0.413692  0  0.860755  0
H  H6  1  0.22489320  0.60827452  0.82399372  1  0  0.43283  0  0.807211  0  0  0.419507  0  0.853945  0  0  0.427291  0  0.845362  0  0.60369  0  0.329914  0.413655  0  0.860822  0
H  H7  1  0.77511216  0.39172166  0.32399575  1  0  0.432848  0  0.80716  0  0  0.419519  0  0.853909  0  0  0.427299  0  0.845332  0  0.603733  0  0.329946  0.413669  0  0.860778  0
H  H8  1  0.57332046  0.88417905  0.15504104  1  0  0.429202  0  0.873706  0  0  0.394241  0  0.944651  0  0  0.40563  0  0.927781  0  0.683987  0  0.29262  0.386056  0  0.956819  0
H  H9  1  0.42668168  0.11581928  0.65504104  1  0  0.4291  0  0.873845  0  0  0.394202  0  0.944707  0  0  0.405585  0  0.927848  0  0.683988  0  0.292615  0.386016  0  0.956876  0
H  H10  1  0.11582030  0.57331966  0.90504205  1  0  0.429218  0  0.873686  0  0  0.394273  0  0.944603  0  0  0.405655  0  0.927748  0  0.683977  0  0.292643  0.386089  0  0.956772  0
H  H11  1  0.88418292  0.42668189  0.40504340  1  0  0.429203  0  0.873706  0  0  0.394266  0  0.944614  0  0  0.405648  0  0.927757  0  0.683958  0  0.292642  0.38608  0  0.956782  0
H  H12  1  0.54395422  0.27263134  0.12474272  1  0  0.4236  0  0.885284  0  0  0.388983  0  0.954122  0  0  0.401691  0  0.935768  0  0.651503  0  0.281298  0.379925  0  0.96722  0
H  H13  1  0.45604685  0.72736806  0.62474272  1  0  0.423581  0  0.885305  0  0  0.388971  0  0.954138  0  0  0.401682  0  0.935778  0  0.651506  0  0.281285  0.379913  0  0.967236  0
H  H14  1  0.72736878  0.54395341  0.87474306  1  0  0.423582  0  0.885302  0  0  0.388967  0  0.954142  0  0  0.401677  0  0.935784  0  0.651498  0  0.281289  0.379909  0  0.967239  0
H  H15  1  0.27263228  0.45604707  0.37474171  1  0  0.423626  0  0.885265  0  0  0.389025  0  0.954076  0  0  0.401736  0  0.935718  0  0.651497  0  0.281317  0.379968  0  0.967173  0
H  H16  1  0.56781462  0.12447253  0.18308423  1  0  0.419891  0  0.878379  0  0  0.389836  0  0.940209  0  0  0.401143  0  0.923647  0  0.634302  0  0.289932  0.381954  0  0.951703  0
H  H17  1  0.43218644  0.87552686  0.68308491  1  0  0.41988  0  0.878393  0  0  0.389833  0  0.940218  0  0  0.401139  0  0.923658  0  0.6343  0  0.289926  0.381952  0  0.951713  0
H  H18  1  0.87552752  0.56781382  0.93308525  1  0  0.419879  0  0.878393  0  0  0.389824  0  0.940222  0  0  0.401131  0  0.92366  0  0.634295  0  0.289916  0.381943  0  0.951716  0
H  H19  1  0.12447570  0.43218450  0.43308525  1  0  0.419927  0  0.878329  0  0  0.389874  0  0.940162  0  0  0.401181  0  0.923601  0  0.634316  0  0.289955  0.381993  0  0.951656  0
H  H20  1  0.36076862  0.21161459  0.02585709  1  0  0.264293  0  0.917345  0  0  0.253111  0  0.975964  0  0  0.258891  0  0.972365  0  0.452082  0  0.299345  0.249246  0  0.978158  0
H  H21  1  0.63923030  0.78838480  0.52585506  1  0  0.264334  0  0.917268  0  0  0.253044  0  0.97604  0  0  0.258827  0  0.972445  0  0.452012  0  0.299319  0.249178  0  0.978233  0
H  H22  1  0.78838657  0.36076987  0.77585607  1  0  0.264317  0  0.917306  0  0  0.2531  0  0.97597  0  0  0.258882  0  0.972372  0  0.452102  0  0.299357  0.249235  0  0.978163  0
H  H23  1  0.21161342  0.63922953  0.27585607  1  0  0.264337  0  0.917312  0  0  0.253107  0  0.975977  0  0  0.258897  0  0.972381  0  0.452024  0  0.299356  0.249241  0  0.978172  0
H  H24  1  0.25289964  0.11880116  0.87088304  1  0  0.056111  0  0.952253  0  0  0.067762  0  1.01565  0  0  0.068772  0  1.016786  0  0.074131  0  0.103886  0.067276  0  1.014542  0
H  H25  1  0.74709927  0.88119932  0.37088168  1  0  0.056078  0  0.952192  0  0  0.067751  0  1.015609  0  0  0.068745  0  1.016732  0  0.074131  0  0.10385  0.067266  0  1.014502  0
H  H26  1  0.88119889  0.25289869  0.62088270  1  0  0.056106  0  0.952228  0  0  0.067743  0  1.015657  0  0  0.068753  0  1.016793  0  0.074115  0  0.10388  0.067257  0  1.014549  0
H  H27  1  0.11879895  0.74709856  0.12088270  1  0  0.056098  0  0.952265  0  0  0.067768  0  1.015647  0  0  0.068772  0  1.016775  0  0.07415  0  0.103871  0.067282  0  1.014538  0
H  H28  1  0.37116220  0.31401756  0.79565553  1  0  0.110663  0  0.925057  0  0  0.125878  0  0.985121  0  0  0.128764  0  0.983098  0  0.041341  0  0.103242  0.123967  0  0.986242  0
H  H29  1  0.62883887  0.68598184  0.29565485  1  0  0.110681  0  0.925038  0  0  0.1259  0  0.985089  0  0  0.128784  0  0.983069  0  0.041332  0  0.103248  0.123994  0  0.986203  0
H  H30  1  0.68598366  0.37116130  0.54565451  1  0  0.110674  0  0.925052  0  0  0.12589  0  0.985107  0  0  0.128774  0  0.983085  0  0.041329  0  0.103244  0.12398  0  0.986227  0
H  H31  1  0.31401741  0.62883702  0.04565654  1  0  0.110663  0  0.925054  0  0  0.125878  0  0.98512  0  0  0.128763  0  0.983098  0  0.041376  0  0.103233  0.123966  0  0.986241  0
H  H32  1  0.33150665  0.36995630  0.90617063  1  0  0.114156  0  0.92508  0  0  0.129499  0  0.98605  0  0  0.132557  0  0.984295  0  0.034644  0  0.104296  0.12747  0  0.987163  0
H  H33  1  0.66849119  0.63004633  0.40616995  1  0  0.114168  0  0.925177  0  0  0.129515  0  0.986127  0  0  0.132571  0  0.984374  0  0.034695  0  0.104296  0.127487  0  0.987239  0
H  H34  1  0.63004602  0.33150681  0.65617029  1  0  0.114179  0  0.925141  0  0  0.129526  0  0.986097  0  0  0.132581  0  0.984341  0  0.034683  0  0.104299  0.127497  0  0.987208  0
H  H35  1  0.36995182  0.66849259  0.15617164  1  0  0.114202  0  0.925074  0  0  0.129547  0  0.986037  0  0  0.132604  0  0.98428  0  0.034648  0  0.104318  0.127517  0  0.987149  0
H  H36  1  0.30513197  0.99170409  0.09831052  1  0  0.091523  0  0.910852  0  0  0.110162  0  0.968712  0  0  0.110812  0  0.968945  0  0.046051  0  0.115241  0.109844  0  0.968183  0
H  H37  1  0.69486910  0.00829530  0.59831052  1  0  0.091539  0  0.910869  0  0  0.11018  0  0.968718  0  0  0.110831  0  0.968951  0  0.046076  0  0.115233  0.109861  0  0.968187  0
H  H38  1  0.00829530  0.30513319  0.84831154  1  0  0.091526  0  0.910882  0  0  0.110189  0  0.968721  0  0  0.11084  0  0.968952  0  0.046034  0  0.115234  0.10987  0  0.968193  0
H  H39  1  0.99170362  0.69486621  0.34831154  1  0  0.091529  0  0.91087  0  0  0.11021  0  0.968698  0  0  0.110864  0  0.968926  0  0.046032  0  0.11523  0.109891  0  0.968166  0
H  H40  1  0.31915776  0.90102979  0.99419880  1  0  0.080768  0  0.922012  0  0  0.096489  0  0.982955  0  0  0.097515  0  0.982202  0  0.053886  0  0.109452  0.09614  0  0.983047  0
H  H41  1  0.68084330  0.09896961  0.49419880  1  0  0.080802  0  0.921974  0  0  0.096495  0  0.982958  0  0  0.097521  0  0.982205  0  0.053886  0  0.109455  0.096144  0  0.983049  0
H  H42  1  0.09897064  0.31915791  0.74419981  1  0  0.080775  0  0.92201  0  0  0.096487  0  0.982963  0  0  0.097513  0  0.98221  0  0.053882  0  0.109456  0.096138  0  0.983054  0
H  H43  1  0.90102935  0.68084256  0.24419914  1  0  0.080783  0  0.921979  0  0  0.096482  0  0.98297  0  0  0.097509  0  0.982216  0  0.053876  0  0.109454  0.096131  0  0.98306  0
H  H44  1  0.82070997  0.83129851  0.96574355  1  0  0.088234  0  0.949583  0  0  0.095507  0  1.015195  0  0  0.098496  0  1.011929  0  0.139263  0  0.117734  0.093348  0  1.017194  0
H  H45  1  0.17929217  0.16870304  0.46574355  1  0  0.088238  0  0.949556  0  0  0.095535  0  1.015144  0  0  0.098527  0  1.011872  0  0.139257  0  0.117732  0.093375  0  1.017143  0
H  H46  1  0.16870188  0.82070929  0.71574457  1  0  0.088229  0  0.949526  0  0  0.095528  0  1.015111  0  0  0.098518  0  1.011843  0  0.139276  0  0.117738  0.093368  0  1.017112  0
H  H47  1  0.83129918  0.17929118  0.21574322  1  0  0.088227  0  0.949562  0  0  0.095522  0  1.015154  0  0  0.098513  0  1.011883  0  0.139265  0  0.117729  0.093362  0  1.017153  0
H  H48  1  0.08407307  0.80127547  0.97157655  1  0  0.104758  0  0.979686  0  0  0.111446  0  1.046881  0  0  0.115041  0  1.045236  0  0.093924  0  0.103502  0.108794  0  1.048272  0
H  H49  1  0.91592692  0.19872393  0.47157655  1  0  0.104739  0  0.979648  0  0  0.111447  0  1.046831  0  0  0.115022  0  1.045206  0  0.093905  0  0.103495  0.108795  0  1.04822  0
H  H50  1  0.19872383  0.08407311  0.72157757  1  0  0.104749  0  0.979633  0  0  0.111445  0  1.046827  0  0  0.115027  0  1.045195  0  0.093906  0  0.103498  0.108793  0  1.048217  0
H  H51  1  0.80127616  0.91592736  0.22157622  1  0  0.104752  0  0.979705  0  0  0.111444  0  1.046893  0  0  0.11504  0  1.045247  0  0.093875  0  0.103515  0.108792  0  1.048283  0
H  H52  1  0.11599551  0.24951371  0.04738662  1  0  0.116427  0  0.961397  0  0  0.124085  0  1.025637  0  0  0.127102  0  1.025297  0  0.116438  0  0.107954  0.121968  0  1.026107  0
H  H53  1  0.88400448  0.75048569  0.54738594  1  0  0.11645  0  0.961432  0  0  0.124115  0  1.025662  0  0  0.127132  0  1.025312  0  0.116435  0  0.107957  0.121997  0  1.026132  0
H  H54  1  0.75048533  0.11599664  0.79738763  1  0  0.116406  0  0.961442  0  0  0.124059  0  1.02569  0  0  0.127081  0  1.025334  0  0.116412  0  0.107949  0.121942  0  1.02616  0
H  H55  1  0.24951251  0.88400491  0.29738966  1  0  0.116425  0  0.96143  0  0  0.124091  0  1.025666  0  0  0.127116  0  1.025309  0  0.116432  0  0.107939  0.121973  0  1.02614  0
H  H56  1  0.85161122  0.26279135  0.03679845  1  0  0.102858  0  0.937672  0  0  0.106607  0  1.005619  0  0  0.110526  0  1.000797  0  0.17506  0  0.122191  0.103774  0  1.009153  0
H  H57  1  0.14838985  0.73720804  0.53679845  1  0  0.102872  0  0.937625  0  0  0.106585  0  1.005617  0  0  0.110503  0  1.000795  0  0.175049  0  0.122182  0.103751  0  1.00915  0
H  H58  1  0.73720769  0.85161163  0.78679946  1  0  0.102846  0  0.937695  0  0  0.106596  0  1.005635  0  0  0.110514  0  1.000812  0  0.175044  0  0.122187  0.103763  0  1.009167  0
H  H59  1  0.26279123  0.14838885  0.28680081  1  0  0.102836  0  0.937704  0  0  0.1066  0  1.005634  0  0  0.11052  0  1.000808  0  0.174822  0  0.122198  0.103767  0  1.009165  0
C  C60  1  0.46052719  0.03269104  0.84082627  1  0  0.644832  0  3.856984  0  0  0.592307  0  4.163263  0  0  0.624801  0  4.156903  0  1.562304  0  0.206961  0.570377  0  4.167543  0
C  C61  1  0.53947388  0.96731158  0.34082830  1  0  0.644743  0  3.856969  0  0  0.592218  0  4.163326  0  0  0.62469  0  4.15696  0  1.5619  0  0.20692  0.570287  0  4.167605  0
C  C62  1  0.96731327  0.46052526  0.59082593  1  0  0.644863  0  3.856981  0  0  0.592323  0  4.16328  0  0  0.624818  0  4.156917  0  1.562305  0  0.206958  0.570392  0  4.16756  0
C  C63  1  0.03268780  0.53947199  0.09082796  1  0  0.644827  0  3.856991  0  0  0.592253  0  4.163364  0  0  0.62474  0  4.156994  0  1.561927  0  0.206935  0.570322  0  4.167643  0
C  C64  1  0.36408910  0.14073313  0.89267306  1  0  0.02109  0  3.653986  0  0  0.003272  0  3.892016  0  0  0.002899  0  3.905277  0  0.26488  0  -0.008414  0.003441  0  3.882597  0
C  C65  1  0.63590981  0.85926842  0.39267171  1  0  0.02124  0  3.653732  0  0  0.003314  0  3.891882  0  0  0.003047  0  3.905005  0  0.265106  0  -0.008359  0.00348  0  3.882466  0
C  C66  1  0.85926908  0.36408928  0.64267272  1  0  0.021191  0  3.653823  0  0  0.003373  0  3.891828  0  0  0.003004  0  3.905087  0  0.265029  0  -0.008352  0.003543  0  3.882408  0
C  C67  1  0.14073091  0.63590904  0.14267272  1  0  0.021179  0  3.653955  0  0  0.003338  0  3.891964  0  0  0.003026  0  3.905171  0  0.264962  0  -0.008348  0.003507  0  3.882545  0
C  C68  1  0.39928151  0.29572532  0.86688092  1  0  -0.304229  0  3.686835  0  0  -0.352976  0  3.944937  0  0  -0.358565  0  3.951952  0  0.000534  0  -0.165979  -0.348814  0  3.93903  0
C  C69  1  0.60071956  0.70427730  0.36688025  1  0  -0.304276  0  3.68687  0  0  -0.353005  0  3.944955  0  0  -0.358614  0  3.951937  0  0.000315  0  -0.16598  -0.348851  0  3.939056  0
C  C70  1  0.70427588  0.39928170  0.61688059  1  0  -0.304377  0  3.686834  0  0  -0.353112  0  3.94487  0  0  -0.358696  0  3.951877  0  0.00043  0  -0.166043  -0.348948  0  3.938959  0
C  C71  1  0.29572196  0.60071877  0.11688194  1  0  -0.304355  0  3.686753  0  0  -0.353104  0  3.944874  0  0  -0.358708  0  3.951885  0  0.000431  0  -0.16605  -0.34894  0  3.938963  0
C  C72  1  0.55542811  0.34216913  0.87940418  1  0  0.701794  0  3.863737  0  0  0.654409  0  4.171247  0  0  0.687622  0  4.16351  0  1.592262  0  0.201546  0.631968  0  4.175848  0
C  C73  1  0.44457188  0.65783027  0.37940418  1  0  0.701704  0  3.863883  0  0  0.654386  0  4.171299  0  0  0.687599  0  4.163561  0  1.592289  0  0.20154  0.631945  0  4.175901  0
C  C74  1  0.65782995  0.55542838  0.62940452  1  0  0.701761  0  3.86375  0  0  0.654442  0  4.171154  0  0  0.687653  0  4.16342  0  1.592271  0  0.201565  0.632001  0  4.175755  0
C  C75  1  0.34216789  0.44457209  0.12940520  1  0  0.70187  0  3.863658  0  0  0.654479  0  4.17117  0  0  0.687691  0  4.163432  0  1.592268  0  0.201574  0.632038  0  4.175771  0
C  C76  1  0.28430289  0.00237776  0.02529415  1  0  -0.013352  0  3.661437  0  0  -0.075808  0  3.919207  0  0  -0.072144  0  3.929117  0  0.331  0  -0.064173  -0.078568  0  3.911631  0
C  C77  1  0.71569818  0.99762271  0.52529348  1  0  -0.013385  0  3.661428  0  0  -0.075823  0  3.919173  0  0  -0.072154  0  3.929103  0  0.33102  0  -0.064148  -0.078572  0  3.91158  0
C  C78  1  0.99762330  0.28430303  0.77529449  1  0  -0.013371  0  3.661473  0  0  -0.075854  0  3.91922  0  0  -0.072187  0  3.929137  0  0.331032  0  -0.064173  -0.078612  0  3.911642  0
C  C79  1  0.00237669  0.71569637  0.27529449  1  0  -0.013314  0  3.661405  0  0  -0.075845  0  3.919232  0  0  -0.072171  0  3.929169  0  0.33103  0  -0.064163  -0.078594  0  3.911637  0
C  C80  1  0.88946087  0.92142997  0.98463771  1  0  0.130959  0  3.710576  0  0  0.098457  0  3.96403  0  0  0.105648  0  3.983218  0  0.427119  0  0.045951  0.093715  0  3.95046  0
C  C81  1  0.11054020  0.07856942  0.48464042  1  0  0.130991  0  3.710702  0  0  0.09848  0  3.964138  0  0  0.105669  0  3.983324  0  0.427133  0  0.045964  0.093739  0  3.950567  0
C  C82  1  0.07856831  0.88946022  0.73464076  1  0  0.131027  0  3.710644  0  0  0.09851  0  3.964088  0  0  0.1057  0  3.983275  0  0.42714  0  0.045983  0.093768  0  3.95052  0
C  C83  1  0.92143060  0.11053918  0.23463805  1  0  0.131034  0  3.710605  0  0  0.098523  0  3.964054  0  0  0.105711  0  3.983244  0  0.427121  0  0.045997  0.093782  0  3.950481  0
C  C84  1  0.03800659  0.90599600  0.98717159  1  0  -0.175281  0  3.725619  0  0  -0.192606  0  3.977411  0  0  -0.201761  0  4.000784  0  -0.016192  0  -0.091632  -0.186544  0  3.961508  0
C  C85  1  0.96199555  0.09400339  0.48717227  1  0  -0.175276  0  3.725628  0  0  -0.192597  0  3.977401  0  0  -0.201734  0  4.000787  0  -0.016131  0  -0.091625  -0.186535  0  3.961496  0
C  C86  1  0.09400335  0.03800553  0.73717328  1  0  -0.175301  0  3.725719  0  0  -0.19263  0  3.977464  0  0  -0.201773  0  4.000847  0  -0.01624  0  -0.091653  -0.186567  0  3.961558  0
C  C87  1  0.90599557  0.96199386  0.23717193  1  0  -0.175311  0  3.725713  0  0  -0.192637  0  3.977496  0  0  -0.201793  0  4.000871  0  -0.016151  0  -0.091676  -0.186575  0  3.961593  0
C  C88  1  0.12450472  0.02279085  0.01148332  1  0  0.115321  0  3.722365  0  0  0.129021  0  3.966148  0  0  0.133328  0  3.988813  0  -0.031902  0  0.005225  0.126622  0  3.950755  0
C  C89  1  0.87549634  0.97720855  0.51148197  1  0  0.115281  0  3.722306  0  0  0.12895  0  3.966146  0  0  0.133258  0  3.988807  0  -0.031929  0  0.005177  0.126549  0  3.950751  0
C  C90  1  0.97720807  0.12450478  0.76148298  1  0  0.115246  0  3.722399  0  0  0.128983  0  3.966132  0  0  0.133288  0  3.988797  0  -0.031833  0  0.00521  0.126584  0  3.950739  0
C  C91  1  0.02278977  0.87549569  0.26148366  1  0  0.115249  0  3.722324  0  0  0.128959  0  3.966129  0  0  0.133267  0  3.988792  0  -0.031955  0  0.005196  0.126557  0  3.950738  0
C  C92  1  0.05605588  0.15413439  0.02738418  1  0  -0.159027  0  3.681264  0  0  -0.179543  0  3.936143  0  0  -0.18769  0  3.957722  0  -0.050511  0  -0.087024  -0.17455  0  3.92178  0
C  C93  1  0.94394304  0.84586500  0.52738283  1  0  -0.159097  0  3.681157  0  0  -0.179613  0  3.936044  0  0  -0.187756  0  3.957621  0  -0.050447  0  -0.08703  -0.174618  0  3.921678  0
C  C94  1  0.84586460  0.05605698  0.77738587  1  0  -0.158933  0  3.68121  0  0  -0.179464  0  3.936063  0  0  -0.187609  0  3.957647  0  -0.050355  0  -0.087005  -0.174471  0  3.921699  0
C  C95  1  0.15413324  0.94394242  0.27738452  1  0  -0.159001  0  3.681284  0  0  -0.179535  0  3.936144  0  0  -0.187685  0  3.957729  0  -0.05028  0  -0.086999  -0.174543  0  3.921781  0
C  C96  1  0.90705116  0.16228028  0.02268517  1  0  0.144113  0  3.672491  0  0  0.109916  0  3.930843  0  0  0.118182  0  3.946632  0  0.483409  0  0.051546  0.104454  0  3.919989  0
C  C97  1  0.09294991  0.83771912  0.52268449  1  0  0.144167  0  3.672265  0  0  0.10999  0  3.930625  0  0  0.118258  0  3.946413  0  0.483376  0  0.051583  0.104529  0  3.919773  0
C  C98  1  0.83771871  0.90705052  0.77268551  1  0  0.144065  0  3.672458  0  0  0.109882  0  3.930793  0  0  0.118148  0  3.946584  0  0.483284  0  0.051539  0.104421  0  3.919941  0
C  C99  1  0.16227913  0.09294995  0.27268754  1  0  0.14413  0  3.672439  0  0  0.109948  0  3.930756  0  0  0.118215  0  3.946547  0  0.483484  0  0.051549  0.104487  0  3.919902  0
N  N100  1  0.37723775  0.11779609  0.99090712  1  0  -0.435784  0  3.27831  0  0  -0.36453  0  3.524226  0  0  -0.381707  0  3.532839  0  -1.098056  0  -0.480028  -0.351856  0  3.516948  0
N  N101  1  0.62276224  0.88220438  0.49090645  1  0  -0.435793  0  3.278193  0  0  -0.364391  0  3.524107  0  0  -0.38163  0  3.532744  0  -1.097949  0  -0.479985  -0.351717  0  3.516825  0
N  N102  1  0.88220503  0.37723901  0.74090678  1  0  -0.435777  0  3.278235  0  0  -0.364486  0  3.524146  0  0  -0.381682  0  3.532782  0  -1.098094  0  -0.480032  -0.351812  0  3.516867  0
N  N103  1  0.11779388  0.62276147  0.24090678  1  0  -0.435865  0  3.2784  0  0  -0.364489  0  3.524257  0  0  -0.381745  0  3.532936  0  -1.097984  0  -0.480026  -0.351814  0  3.516975  0
N  N104  1  0.82465499  0.04720809  0.00322605  1  0  -0.338138  0  3.315265  0  0  -0.254635  0  3.580992  0  0  -0.274946  0  3.599183  0  -1.264812  0  -0.330172  -0.240964  0  3.567906  0
N  N105  1  0.17534715  0.95279131  0.50322672  1  0  -0.338202  0  3.315358  0  0  -0.25469  0  3.58106  0  0  -0.275002  0  3.599255  0  -1.264849  0  -0.330189  -0.241022  0  3.567977  0
N  N106  1  0.95279085  0.82465431  0.75322706  1  0  -0.338144  0  3.315328  0  0  -0.254653  0  3.581048  0  0  -0.274963  0  3.599238  0  -1.264849  0  -0.330178  -0.240988  0  3.567971  0
N  N107  1  0.04720806  0.17534508  0.25322638  1  0  -0.338174  0  3.315256  0  0  -0.254695  0  3.581009  0  0  -0.275006  0  3.599198  0  -1.264834  0  -0.330186  -0.241024  0  3.567924  0
O  O108  1  0.54789924  0.95626121  0.88559443  1  0  -0.610122  0  1.987873  0  0  -0.550695  0  2.232045  0  0  -0.576226  0  2.221073  0  -1.168236  0  -0.315428  -0.534173  0  2.239916  0
O  O109  1  0.45209752  0.04374356  0.38559646  1  0  -0.610137  0  1.987819  0  0  -0.550706  0  2.232005  0  0  -0.576237  0  2.221039  0  -1.16793  0  -0.315448  -0.534181  0  2.239874  0
O  O110  1  0.04374139  0.54789951  0.63559477  1  0  -0.610135  0  1.987851  0  0  -0.550705  0  2.232028  0  0  -0.576236  0  2.221055  0  -1.168252  0  -0.315432  -0.534183  0  2.239898  0
O  O111  1  0.95625538  0.45209667  0.13559612  1  0  -0.610164  0  1.987835  0  0  -0.550685  0  2.232  0  0  -0.576216  0  2.221028  0  -1.167953  0  -0.315441  -0.534161  0  2.239867  0
O  O112  1  0.44441171  0.02770332  0.75537122  1  0  -0.663431  0  2.01017  0  0  -0.599836  0  2.238307  0  0  -0.62595  0  2.227105  0  -1.194948  0  -0.326417  -0.581976  0  2.245828  0
O  O113  1  0.55558720  0.97230360  0.25537257  1  0  -0.663388  0  2.010103  0  0  -0.599768  0  2.238249  0  0  -0.625887  0  2.227059  0  -1.194863  0  -0.326372  -0.581909  0  2.245768  0
O  O114  1  0.97229883  0.44440870  0.50537088  1  0  -0.663503  0  2.010175  0  0  -0.599886  0  2.238322  0  0  -0.625998  0  2.227116  0  -1.194973  0  -0.326434  -0.582024  0  2.245842  0
O  O115  1  0.02769686  0.55558639  0.00537156  1  0  -0.663434  0  2.010106  0  0  -0.599823  0  2.23827  0  0  -0.625938  0  2.227075  0  -1.194884  0  -0.326386  -0.581966  0  2.245791  0
O  O116  1  0.64254110  0.26278168  0.92349845  1  0  -0.658571  0  2.006748  0  0  -0.594184  0  2.2612  0  0  -0.620561  0  2.249243  0  -1.203863  0  -0.328766  -0.576496  0  2.269124  0
O  O117  1  0.35745781  0.73721772  0.42349845  1  0  -0.658548  0  2.006805  0  0  -0.594176  0  2.261209  0  0  -0.620553  0  2.249251  0  -1.203838  0  -0.328778  -0.576487  0  2.269136  0
O  O118  1  0.73721844  0.64254141  0.67349879  1  0  -0.658543  0  2.006762  0  0  -0.594193  0  2.261196  0  0  -0.620568  0  2.249239  0  -1.203864  0  -0.328777  -0.576504  0  2.269121  0
O  O119  1  0.26278155  0.35745798  0.17349879  1  0  -0.658583  0  2.006724  0  0  -0.594211  0  2.261216  0  0  -0.620588  0  2.249258  0  -1.203903  0  -0.328789  -0.576518  0  2.269129  0
O  O120  1  0.58982398  0.45944602  0.84156106  1  0  -0.632442  0  1.930702  0  0  -0.580095  0  2.144701  0  0  -0.604508  0  2.133466  0  -1.191822  0  -0.333279  -0.563546  0  2.152554  0
O  O121  1  0.41017493  0.54055660  0.34155768  1  0  -0.632408  0  1.930774  0  0  -0.580105  0  2.144755  0  0  -0.604518  0  2.133519  0  -1.191845  0  -0.333268  -0.563557  0  2.152612  0
O  O122  1  0.54055634  0.58982427  0.59155937  1  0  -0.632386  0  1.930694  0  0  -0.580074  0  2.14467  0  0  -0.604488  0  2.133436  0  -1.191838  0  -0.333264  -0.563528  0  2.152526  0
O  O123  1  0.45944473  0.41017620  0.09156140  1  0  -0.632465  0  1.930676  0  0  -0.580111  0  2.144671  0  0  -0.604523  0  2.133438  0  -1.191785  0  -0.333262  -0.563564  0  2.152526  0
O  O124  1  0.56945605  0.86925890  0.08837324  1  0  -0.823733  0  1.855382  0  0  -0.774415  0  2.054541  0  0  -0.792559  0  2.024464  0  -1.268169  0  -0.56752  -0.761853  0  2.075435  0
O  O125  1  0.43055039  0.13074158  0.58837324  1  0  -0.82366  0  1.855513  0  0  -0.774391  0  2.054592  0  0  -0.79253  0  2.024524  0  -1.268221  0  -0.567551  -0.761839  0  2.075507  0
O  O126  1  0.13074044  0.56945633  0.83837358  1  0  -0.823753  0  1.855442  0  0  -0.774431  0  2.054609  0  0  -0.792569  0  2.024543  0  -1.268167  0  -0.567546  -0.761861  0  2.075488  0
O  O127  1  0.86926063  0.43054952  0.33837561  1  0  -0.823744  0  1.855423  0  0  -0.774419  0  2.054597  0  0  -0.792556  0  2.024528  0  -1.268193  0  -0.567571  -0.761871  0  2.075523  0
O  O128  1  0.60681231  0.18360061  0.13292354  1  0  -0.834576  0  1.891983  0  0  -0.768827  0  2.090605  0  0  -0.791602  0  2.054737  0  -1.271716  0  -0.577614  -0.752372  0  2.115256  0
O  O129  1  0.39318768  0.81639878  0.63292421  1  0  -0.834588  0  1.892008  0  0  -0.768852  0  2.090585  0  0  -0.791627  0  2.054712  0  -1.27171  0  -0.577615  -0.752389  0  2.11522  0
O  O130  1  0.81639839  0.60681260  0.88292388  1  0  -0.834577  0  1.892004  0  0  -0.768828  0  2.090612  0  0  -0.791605  0  2.054745  0  -1.271711  0  -0.577612  -0.752374  0  2.115262  0
O  O131  1  0.18360375  0.39318680  0.38292320  1  0  -0.834671  0  1.891962  0  0  -0.768945  0  2.090567  0  0  -0.791724  0  2.054694  0  -1.271706  0  -0.577675  -0.752487  0  2.115212  0
