# generated using pymatgen
data_CdH11C11SN2O5
_symmetry_space_group_name_H-M   'P 1'
_cell_length_a   5.82707192
_cell_length_b   10.38308446
_cell_length_c   11.13702494
_cell_angle_alpha   93.62652655
_cell_angle_beta   92.47881016
_cell_angle_gamma   90.73665189
_symmetry_Int_Tables_number   1
_chemical_formula_structural   CdH11C11SN2O5
_chemical_formula_sum   'Cd2 H22 C22 S2 N4 O10'
_cell_volume   671.76249990
_cell_formula_units_Z   2
loop_
 _symmetry_equiv_pos_site_id
 _symmetry_equiv_pos_as_xyz
  1  'x, y, z'
loop_
 _atom_site_type_symbol
 _atom_site_label
 _atom_site_symmetry_multiplicity
 _atom_site_fract_x
 _atom_site_fract_y
 _atom_site_fract_z
 _atom_site_occupancy
 _atom_site_hle17_bader_spin_density
 _atom_site_hle17_ddec_charge
 _atom_site_hle17_ddec_spin_density
 _atom_site_hle17_ddec_sum_bond_order
 _atom_site_hle17_magmom
 _atom_site_hse06_10hf_bader_spin_density
 _atom_site_hse06_10hf_ddec_charge
 _atom_site_hse06_10hf_ddec_spin_density
 _atom_site_hse06_10hf_ddec_sum_bond_order
 _atom_site_hse06_10hf_magmom
 _atom_site_hse06_bader_spin_density
 _atom_site_hse06_ddec_charge
 _atom_site_hse06_ddec_spin_density
 _atom_site_hse06_ddec_sum_bond_order
 _atom_site_hse06_magmom
 _atom_site_pbe_bader_spin_density
 _atom_site_pbe_cm5_charge
 _atom_site_pbe_ddec_charge
 _atom_site_pbe_ddec_spin_density
 _atom_site_pbe_ddec_sum_bond_order
 _atom_site_pbe_magmom
Cd  Cd0  1  0.66454611  0.03578437  0.14634944  1  0  1.180578  0  1.604412  0  0  1.001653  0  2.033337  0  0  1.059643  0  1.979295  0  0  0.767848  0.957941  0  2.073638  0
Cd  Cd1  1  0.33545225  0.96422379  0.85364609  1  0  1.180574  0  1.604398  0  0  1.00165  0  2.033312  0  0  1.059634  0  1.979289  0  0  0.767842  0.957941  0  2.07361  0
H  H2  1  0.28167085  0.21940168  0.30635802  1  0  0.109169  0  0.96515  0  0  0.114085  0  1.035507  0  0  0.117709  0  1.031069  0  0  0.131485  0.111288  0  1.038869  0
H  H3  1  0.71830978  0.78057869  0.69365679  1  0  0.109087  0  0.965255  0  0  0.114071  0  1.035515  0  0  0.117697  0  1.031079  0  0  0.131494  0.111275  0  1.038875  0
H  H4  1  0.87415009  0.03621966  0.43804274  1  0  0.099324  0  0.958456  0  0  0.111337  0  1.016552  0  0  0.11367  0  1.01528  0  0  0.116123  0.109661  0  1.017461  0
H  H5  1  0.12588203  0.96378521  0.56194154  1  0  0.099276  0  0.958557  0  0  0.111292  0  1.016647  0  0  0.113619  0  1.015375  0  0  0.11612  0.109621  0  1.017552  0
H  H6  1  0.71602601  0.20265849  0.62174492  1  0  0.124378  0  0.960828  0  0  0.131941  0  1.026245  0  0  0.134806  0  1.024676  0  0  0.122148  0.129745  0  1.027528  0
H  H7  1  0.28400811  0.79733438  0.37825284  1  0  0.124361  0  0.960823  0  0  0.131934  0  1.026232  0  0  0.134804  0  1.024652  0  0  0.12214  0.129738  0  1.027513  0
H  H8  1  0.27948542  0.31305419  0.62782882  1  0  0.07316  0  0.957263  0  0  0.084653  0  1.026326  0  0  0.084815  0  1.026971  0  0  0.105216  0.084442  0  1.025833  0
H  H9  1  0.72052795  0.68692257  0.37218546  1  0  0.073113  0  0.957452  0  0  0.084521  0  1.026552  0  0  0.084677  0  1.027196  0  0  0.10524  0.084311  0  1.02606  0
H  H10  1  0.17277915  0.35545353  0.48419518  1  0  0.076014  0  0.908104  0  0  0.096084  0  0.962134  0  0  0.096465  0  0.962579  0  0  0.113518  0.095638  0  0.962002  0
H  H11  1  0.82721156  0.64452203  0.51582152  1  0  0.076127  0  0.908213  0  0  0.096162  0  0.962181  0  0  0.096546  0  0.962616  0  0  0.113538  0.095716  0  0.962052  0
H  H12  1  0.35772692  0.54069480  0.60927339  1  0  0.074395  0  0.938752  0  0  0.091035  0  1.000537  0  0  0.091456  0  1.001827  0  0  0.091544  0.09068  0  0.999624  0
H  H13  1  0.64226312  0.45928493  0.39073283  1  0  0.074352  0  0.93882  0  0  0.091012  0  1.000528  0  0  0.091435  0  1.001816  0  0  0.091502  0.090655  0  0.999614  0
H  H14  1  0.61905081  0.45819873  0.61701965  1  0  0.068609  0  0.958266  0  0  0.088455  0  1.021141  0  0  0.088396  0  1.022784  0  0  0.08871  0.088288  0  1.020186  0
H  H15  1  0.38093908  0.54178384  0.38298860  1  0  0.068545  0  0.958321  0  0  0.088395  0  1.021135  0  0  0.088334  0  1.022783  0  0  0.088685  0.088227  0  1.020175  0
H  H16  1  0.30576059  0.67351537  0.19161780  1  0  0.123013  0  0.959031  0  0  0.128443  0  1.029479  0  0  0.132757  0  1.025501  0  0  0.103668  0.125248  0  1.032471  0
H  H17  1  0.69424032  0.32649113  0.80836872  1  0  0.122971  0  0.959181  0  0  0.128417  0  1.029599  0  0  0.13275  0  1.025597  0  0  0.103668  0.125224  0  1.032587  0
H  H18  1  0.30864679  0.41518092  0.17710371  1  0  0.114948  0  0.965548  0  0  0.117958  0  1.041481  0  0  0.12201  0  1.037852  0  0  0.101319  0.115054  0  1.044032  0
H  H19  1  0.69134478  0.58482529  0.82289043  1  0  0.114866  0  0.96561  0  0  0.117897  0  1.041517  0  0  0.121945  0  1.037907  0  0  0.101272  0.114994  0  1.044065  0
H  H20  1  0.19241767  0.09549049  0.08635469  1  0  0.441498  0  0.855535  0  0  0.409239  0  0.920328  0  0  0.420287  0  0.904595  0  0  0.298735  0.401149  0  0.931923  0
H  H21  1  0.80758416  0.90452251  0.91364142  1  0  0.441511  0  0.855509  0  0  0.409193  0  0.920376  0  0  0.42024  0  0.904644  0  0  0.298708  0.401103  0  0.931971  0
H  H22  1  0.19418988  0.94800138  0.10672200  1  0  0.442836  0  0.854989  0  0  0.410027  0  0.920774  0  0  0.421627  0  0.904166  0  0  0.296834  0.401659  0  0.932793  0
H  H23  1  0.80580517  0.05201160  0.89327288  1  0  0.442652  0  0.855224  0  0  0.40987  0  0.920994  0  0  0.421445  0  0.904413  0  0  0.296749  0.401522  0  0.933  0
C  C24  1  0.42381237  0.19229308  0.36593174  1  0  0.159314  0  3.647583  0  0  0.099763  0  3.911643  0  0  0.113587  0  3.924607  0  0  0.139106  0.090679  0  3.902556  0
C  C25  1  0.57618458  0.80769344  0.63407539  1  0  0.159257  0  3.64752  0  0  0.099744  0  3.911595  0  0  0.113574  0  3.924564  0  0  0.139052  0.090659  0  3.902505  0
C  C26  1  0.72840562  0.09995088  0.43854421  1  0  0.000582  0  3.780797  0  0  -0.036967  0  4.053311  0  0  -0.034606  0  4.074005  0  0  -0.006787  -0.038557  0  4.03903  0
C  C27  1  0.27161868  0.90004979  0.56144924  1  0  0.000675  0  3.78068  0  0  -0.036884  0  4.053176  0  0  -0.03451  0  4.073855  0  0  -0.006848  -0.03848  0  4.038899  0
C  C28  1  0.65383990  0.18313157  0.52914451  1  0  -0.066179  0  3.657849  0  0  -0.10486  0  3.914727  0  0  -0.103492  0  3.933402  0  0  -0.002166  -0.105403  0  3.901938  0
C  C29  1  0.34618573  0.81686225  0.47085201  1  0  -0.066283  0  3.6573  0  0  -0.104899  0  3.914267  0  0  -0.103523  0  3.932943  0  0  -0.002171  -0.105445  0  3.901482  0
C  C30  1  0.33010389  0.34454326  0.54047678  1  0  0.00567  0  3.621887  0  0  -0.055356  0  3.879763  0  0  -0.050688  0  3.890724  0  0  -0.050575  -0.058255  0  3.871999  0
C  C31  1  0.66989585  0.65543635  0.45953619  1  0  0.00559  0  3.622321  0  0  -0.05517  0  3.879877  0  0  -0.050484  0  3.890834  0  0  -0.050568  -0.058077  0  3.872114  0
C  C32  1  0.46550643  0.47215241  0.55846331  1  0  -0.134593  0  3.695104  0  0  -0.177833  0  3.959647  0  0  -0.179216  0  3.973701  0  0  -0.168041  -0.17666  0  3.949681  0
C  C33  1  0.53448499  0.52782723  0.44154657  1  0  -0.134588  0  3.695057  0  0  -0.177679  0  3.959294  0  0  -0.179064  0  3.973347  0  0  -0.167892  -0.176508  0  3.949339  0
C  C34  1  0.85633321  0.79246821  0.17046984  1  0  0.636955  0  3.990385  0  0  0.588079  0  4.279762  0  0  0.622719  0  4.273039  0  0  0.186739  0.564388  0  4.283152  0
C  C35  1  0.14367066  0.20754298  0.82952261  1  0  0.637092  0  3.989904  0  0  0.588186  0  4.279272  0  0  0.622827  0  4.272549  0  0  0.186795  0.564498  0  4.282665  0
C  C36  1  0.93384030  0.65792253  0.16366556  1  0  -0.156771  0  3.741804  0  0  -0.13922  0  4.009822  0  0  -0.146353  0  4.029732  0  0  -0.029669  -0.134416  0  3.996365  0
C  C37  1  0.06615808  0.34208852  0.83633021  1  0  -0.156775  0  3.741902  0  0  -0.13911  0  4.009777  0  0  -0.146251  0  4.029704  0  0  -0.029653  -0.13431  0  3.996324  0
C  C38  1  0.15429963  0.61054942  0.17883009  1  0  -0.090342  0  3.746593  0  0  -0.124133  0  4.01933  0  0  -0.123081  0  4.036505  0  0  -0.101505  -0.124198  0  4.00717  0
C  C39  1  0.84569385  0.38945975  0.82116260  1  0  -0.09027  0  3.746707  0  0  -0.124138  0  4.019508  0  0  -0.123095  0  4.036667  0  0  -0.10145  -0.124204  0  4.007351  0
C  C40  1  0.15618701  0.47424498  0.17005013  1  0  -0.100156  0  3.777746  0  0  -0.132671  0  4.050606  0  0  -0.13248  0  4.068687  0  0  -0.10406  -0.132141  0  4.037765  0
C  C41  1  0.84380948  0.52576407  0.82994718  1  0  -0.100191  0  3.777946  0  0  -0.132746  0  4.050849  0  0  -0.132554  0  4.068921  0  0  -0.10414  -0.132216  0  4.038004  0
C  C42  1  0.93832098  0.42048633  0.14685371  1  0  -0.147485  0  3.729804  0  0  -0.129044  0  3.994552  0  0  -0.135234  0  4.014284  0  0  -0.026735  -0.124937  0  3.981352  0
C  C43  1  0.06167027  0.57952267  0.85314425  1  0  -0.147427  0  3.729884  0  0  -0.128941  0  3.994578  0  0  -0.135133  0  4.014314  0  0  -0.026652  -0.12483  0  3.98137  0
C  C44  1  0.86871149  0.28291344  0.13485285  1  0  0.647148  0  3.976464  0  0  0.596462  0  4.268883  0  0  0.630681  0  4.262974  0  0  0.188453  0.572891  0  4.271998  0
C  C45  1  0.13127437  0.71709738  0.86514770  1  0  0.646997  0  3.976932  0  0  0.596289  0  4.269385  0  0  0.630507  0  4.263476  0  0  0.188404  0.572716  0  4.272493  0
S  S46  1  0.73281419  0.53632550  0.13444609  1  0  0.202091  0  2.69324  0  0  0.204782  0  3.024785  0  0  0.204223  0  3.033952  0  0  0.128554  0.204667  0  3.019459  0
S  S47  1  0.26717846  0.46368533  0.86555569  1  0  0.202168  0  2.693242  0  0  0.204818  0  3.024741  0  0  0.204261  0  3.033915  0  0  0.128589  0.204706  0  3.019416  0
N  N48  1  0.58388677  0.10632530  0.33781263  1  0  -0.405191  0  3.286669  0  0  -0.330514  0  3.573097  0  0  -0.353313  0  3.591744  0  0  -0.364215  -0.314809  0  3.560135  0
N  N49  1  0.41611614  0.89366922  0.66218737  1  0  -0.405264  0  3.286785  0  0  -0.330581  0  3.573189  0  0  -0.353379  0  3.591827  0  0  -0.364251  -0.314875  0  3.560226  0
N  N50  1  0.46063662  0.24108559  0.48135627  1  0  -0.063936  0  3.564406  0  0  0.032808  0  3.779778  0  0  0.017991  0  3.806144  0  0  -0.243044  0.042376  0  3.761454  0
N  N51  1  0.53936880  0.75889806  0.51865192  1  0  -0.063619  0  3.563824  0  0  0.032818  0  3.779411  0  0  0.017973  0  3.805811  0  0  -0.242901  0.042393  0  3.76108  0
O  O52  1  0.64065395  0.81180488  0.15847856  1  0  -0.619349  0  1.943765  0  0  -0.555426  0  2.178669  0  0  -0.583356  0  2.168515  0  0  -0.326386  -0.53562  0  2.184807  0
O  O53  1  0.35934812  0.18820627  0.84151470  1  0  -0.619435  0  1.943561  0  0  -0.555507  0  2.178493  0  0  -0.58344  0  2.168343  0  0  -0.326362  -0.535699  0  2.18463  0
O  O54  1  0.00377358  0.88481526  0.18979498  1  0  -0.659661  0  1.96524  0  0  -0.592644  0  2.187762  0  0  -0.619636  0  2.176086  0  0  -0.331141  -0.572682  0  2.196461  0
O  O55  1  0.99623054  0.11519601  0.81019479  1  0  -0.659645  0  1.965024  0  0  -0.592643  0  2.187555  0  0  -0.619624  0  2.175872  0  0  -0.331206  -0.572689  0  2.196267  0
O  O56  1  0.65879905  0.25543603  0.10659816  1  0  -0.616055  0  1.939862  0  0  -0.555762  0  2.176923  0  0  -0.584046  0  2.168572  0  0  -0.326917  -0.535711  0  2.181966  0
O  O57  1  0.34118485  0.74457470  0.89340499  1  0  -0.616022  0  1.940111  0  0  -0.555777  0  2.177248  0  0  -0.584056  0  2.168896  0  0  -0.326967  -0.535733  0  2.182304  0
O  O58  1  0.01892166  0.19791535  0.15819047  1  0  -0.668808  0  1.98308  0  0  -0.602061  0  2.209685  0  0  -0.629291  0  2.19876  0  0  -0.329479  -0.581757  0  2.217962  0
O  O59  1  0.98106428  0.80209356  0.84180902  1  0  -0.668729  0  1.983189  0  0  -0.601932  0  2.209754  0  0  -0.629176  0  2.198866  0  0  -0.329419  -0.581628  0  2.218025  0
O  O60  1  0.27933605  0.01542692  0.06425366  1  0  -0.851131  0  1.930936  0  0  -0.770367  0  2.143294  0  0  -0.798112  0  2.107522  0  0  -0.56935  -0.750695  0  2.169093  0
O  O61  1  0.72065900  0.98458607  0.93574121  1  0  -0.850989  0  1.931005  0  0  -0.770205  0  2.143386  0  0  -0.797918  0  2.107681  0  0  -0.569249  -0.750561  0  2.169126  0
