# generated using pymatgen
data_Cr2CdH42C42(N2O3)4
_symmetry_space_group_name_H-M   'P 1'
_cell_length_a   10.62297681
_cell_length_b   10.89965030
_cell_length_c   11.10176662
_cell_angle_alpha   69.83846803
_cell_angle_beta   69.90503081
_cell_angle_gamma   67.26496568
_symmetry_Int_Tables_number   1
_chemical_formula_structural   Cr2CdH42C42(N2O3)4
_chemical_formula_sum   'Cr2 Cd1 H42 C42 N8 O12'
_cell_volume   1079.56159636
_cell_formula_units_Z   1
loop_
 _symmetry_equiv_pos_site_id
 _symmetry_equiv_pos_as_xyz
  1  'x, y, z'
loop_
 _atom_site_type_symbol
 _atom_site_label
 _atom_site_symmetry_multiplicity
 _atom_site_fract_x
 _atom_site_fract_y
 _atom_site_fract_z
 _atom_site_occupancy
 _atom_site_hle17_bader_spin_density
 _atom_site_hle17_ddec_charge
 _atom_site_hle17_ddec_spin_density
 _atom_site_hle17_ddec_sum_bond_order
 _atom_site_hle17_magmom
 _atom_site_hse06_10hf_bader_spin_density
 _atom_site_hse06_10hf_ddec_charge
 _atom_site_hse06_10hf_ddec_spin_density
 _atom_site_hse06_10hf_ddec_sum_bond_order
 _atom_site_hse06_10hf_magmom
 _atom_site_hse06_bader_spin_density
 _atom_site_hse06_ddec_charge
 _atom_site_hse06_ddec_spin_density
 _atom_site_hse06_ddec_sum_bond_order
 _atom_site_hse06_magmom
 _atom_site_pbe_bader_spin_density
 _atom_site_pbe_cm5_charge
 _atom_site_pbe_ddec_charge
 _atom_site_pbe_ddec_spin_density
 _atom_site_pbe_ddec_sum_bond_order
 _atom_site_pbe_magmom
Cr  Cr0  1  0.32556859  0.96658319  0.70149153  1  0  1.699077  0  3.609236  0  0  1.759276  0  4.077917  0  0  1.840153  0  4.054775  0  0  1.286237  1.704594  0  4.095379  0
Cr  Cr1  1  0.67442686  0.03341142  0.29851692  1  0  1.69875  0  3.609564  0  0  1.758906  0  4.078319  0  0  1.839837  0  4.055131  0  0  1.286038  1.704229  0  4.095777  0
Cd  Cd2  1  0.99999829  0.99999864  0.00000211  1  0  1.073613  0  1.867416  0  0  0.894395  0  2.32106  0  0  0.946054  0  2.276147  0  0  0.796953  0.857658  0  2.352269  0
H  H3  1  0.61913367  0.64688135  0.69327335  1  0  0.081062  0  0.943238  0  0  0.099001  0  1.006214  0  0  0.098852  0  1.006751  0  0  0.095152  0.099046  0  1.005751  0
H  H4  1  0.38085967  0.35312660  0.30672318  1  0  0.081093  0  0.943085  0  0  0.098987  0  1.006129  0  0  0.098838  0  1.006664  0  0  0.095115  0.099031  0  1.005664  0
H  H5  1  0.58422088  0.79781866  0.56258510  1  0  0.085895  0  0.965144  0  0  0.097048  0  1.04019  0  0  0.096674  0  1.040854  0  0  0.099075  0.097329  0  1.039722  0
H  H6  1  0.41577274  0.20218517  0.43742445  1  0  0.085945  0  0.964969  0  0  0.097144  0  1.039981  0  0  0.096778  0  1.040636  0  0  0.099091  0.09742  0  1.039521  0
H  H7  1  0.66075834  0.79435052  0.68503158  1  0  0.078175  0  0.954431  0  0  0.09539  0  1.019387  0  0  0.094863  0  1.020098  0  0  0.09373  0.095381  0  1.019404  0
H  H8  1  0.33922481  0.20564824  0.31497682  1  0  0.078102  0  0.954438  0  0  0.095339  0  1.019385  0  0  0.094815  0  1.020095  0  0  0.093706  0.095333  0  1.019405  0
H  H9  1  0.82037024  0.94251453  0.52683853  1  0  0.315836  0  0.938561  0  0  0.301509  0  0.99796  0  0  0.310077  0  0.99094  0  0  0.302538  0.295283  0  1.003087  0
H  H10  1  0.17963266  0.05748517  0.47316304  1  0  0.315833  0  0.938526  0  0  0.301478  0  0.99796  0  0  0.310045  0  0.99094  0  0  0.302527  0.295252  0  1.00309  0
H  H11  1  0.13604887  0.58275298  0.74921563  1  0  0.30972  0  0.933112  0  0  0.289045  0  1.001755  0  0  0.296783  0  0.995995  0  0  0.306525  0.2837  0  1.005613  0
H  H12  1  0.86395760  0.41724160  0.25077748  1  0  0.309796  0  0.933038  0  0  0.289027  0  1.00176  0  0  0.296791  0  0.995994  0  0  0.306533  0.283683  0  1.005617  0
H  H13  1  0.16355267  0.21619222  0.88319165  1  0  0.103974  0  0.964308  0  0  0.107684  0  1.033919  0  0  0.110773  0  1.031008  0  0  0.11972  0.105285  0  1.036446  0
H  H14  1  0.83645112  0.78380134  0.11681080  1  0  0.104006  0  0.964287  0  0  0.107707  0  1.033868  0  0  0.110799  0  1.03095  0  0  0.119738  0.105299  0  1.036407  0
H  H15  1  0.88435608  0.63157558  0.82545653  1  0  0.115174  0  0.931099  0  0  0.125313  0  0.99131  0  0  0.128342  0  0.989577  0  0  0.112922  0.123288  0  0.992347  0
H  H16  1  0.11565240  0.36841900  0.17453502  1  0  0.11516  0  0.931137  0  0  0.125285  0  0.991364  0  0  0.128316  0  0.989629  0  0  0.112894  0.123268  0  0.992397  0
H  H17  1  0.68440098  0.53510387  0.89604717  1  0  0.105508  0  0.941781  0  0  0.120557  0  0.991354  0  0  0.123349  0  0.990745  0  0  0.112299  0.119191  0  0.990515  0
H  H18  1  0.31560424  0.46489480  0.10394857  1  0  0.105467  0  0.941779  0  0  0.120546  0  0.991325  0  0  0.123315  0  0.990745  0  0  0.112289  0.119176  0  0.990487  0
H  H19  1  0.73448301  0.27917553  0.96391505  1  0  0.074323  0  0.9541  0  0  0.082842  0  1.020576  0  0  0.084993  0  1.018664  0  0  0.112837  0.081359  0  1.021628  0
H  H20  1  0.26552084  0.72082109  0.03608814  1  0  0.074307  0  0.954089  0  0  0.082827  0  1.020567  0  0  0.084978  0  1.018654  0  0  0.112826  0.081348  0  1.021612  0
H  H21  1  0.65617799  0.09248786  0.01949986  1  0  0.071211  0  0.959068  0  0  0.07396  0  1.035018  0  0  0.077129  0  1.031797  0  0  0.114049  0.07186  0  1.037202  0
H  H22  1  0.34381962  0.90751597  0.98049936  1  0  0.07122  0  0.958984  0  0  0.073949  0  1.034963  0  0  0.077129  0  1.031731  0  0  0.114051  0.071849  0  1.037151  0
H  H23  1  0.50337360  0.12278521  0.87623066  1  0  0.121353  0  0.963698  0  0  0.128555  0  1.025274  0  0  0.132193  0  1.023716  0  0  0.110406  0.12623  0  1.026144  0
H  H24  1  0.49662476  0.87722271  0.12376693  1  0  0.12133  0  0.96376  0  0  0.128538  0  1.025332  0  0  0.132177  0  1.023772  0  0  0.110404  0.126216  0  1.026191  0
H  H25  1  0.61459394  0.03385541  0.67196943  1  0  0.130131  0  0.958965  0  0  0.14367  0  1.01348  0  0  0.147039  0  1.01068  0  0  0.114826  0.141124  0  1.015697  0
H  H26  1  0.38540368  0.96614841  0.32803068  1  0  0.130094  0  0.958984  0  0  0.143644  0  1.013504  0  0  0.147006  0  1.010721  0  0  0.114834  0.141108  0  1.015686  0
H  H27  1  0.01459249  0.89497145  0.77215575  1  0  0.106178  0  0.976874  0  0  0.111287  0  1.043513  0  0  0.115459  0  1.039138  0  0  0.11572  0.108303  0  1.04681  0
H  H28  1  0.98540496  0.10502315  0.22784933  1  0  0.106139  0  0.976929  0  0  0.111258  0  1.043553  0  0  0.115433  0  1.039175  0  0  0.115711  0.108272  0  1.046853  0
H  H29  1  0.98056688  0.84366742  0.37044643  1  0  0.109194  0  0.944909  0  0  0.120256  0  1.012786  0  0  0.122288  0  1.011958  0  0  0.102502  0.118823  0  1.013601  0
H  H30  1  0.01943170  0.15633332  0.62955892  1  0  0.109203  0  0.944927  0  0  0.120277  0  1.012774  0  0  0.122313  0  1.011937  0  0  0.102488  0.118838  0  1.013596  0
H  H31  1  0.15612993  0.75888775  0.38974981  1  0  0.118038  0  0.924329  0  0  0.133061  0  0.981697  0  0  0.134723  0  0.982206  0  0  0.105827  0.1318  0  0.981532  0
H  H32  1  0.84387097  0.24111195  0.61025422  1  0  0.118063  0  0.924358  0  0  0.133062  0  0.98175  0  0  0.134722  0  0.98226  0  0  0.105817  0.131797  0  0.981583  0
H  H33  1  0.81259745  0.71476235  0.43629797  1  0  0.092948  0  0.968605  0  0  0.104049  0  1.032209  0  0  0.106388  0  1.031687  0  0  0.10027  0.102307  0  1.032739  0
H  H34  1  0.18740344  0.28523736  0.56370155  1  0  0.09293  0  0.968626  0  0  0.104031  0  1.032235  0  0  0.106368  0  1.031714  0  0  0.100258  0.102287  0  1.032767  0
H  H35  1  0.22911815  0.50943307  0.50315021  1  0  0.09628  0  0.962321  0  0  0.105042  0  1.028155  0  0  0.107178  0  1.028516  0  0  0.099284  0.103676  0  1.027883  0
H  H36  1  0.77088475  0.49056664  0.49684866  1  0  0.096261  0  0.962451  0  0  0.105032  0  1.028257  0  0  0.107172  0  1.028609  0  0  0.099273  0.103666  0  1.027979  0
H  H37  1  0.46327714  0.45964569  0.83325189  1  0  0.108118  0  0.918058  0  0  0.125215  0  0.972234  0  0  0.127506  0  0.970772  0  0  0.102931  0.124392  0  0.971653  0
H  H38  1  0.53672617  0.54035915  0.16674060  1  0  0.108097  0  0.917948  0  0  0.125196  0  0.972157  0  0  0.127487  0  0.97069  0  0  0.102922  0.124378  0  0.971581  0
H  H39  1  0.32793218  0.61222622  0.78758455  1  0  0.120583  0  0.928069  0  0  0.131987  0  0.990335  0  0  0.135053  0  0.988304  0  0  0.106235  0.12984  0  0.992015  0
H  H40  1  0.67206738  0.38777453  0.21241146  1  0  0.120585  0  0.928052  0  0  0.132002  0  0.990327  0  0  0.135067  0  0.988294  0  0  0.106247  0.129861  0  0.992013  0
H  H41  1  0.51544288  0.28288728  0.67404132  1  0  0.092187  0  0.985838  0  0  0.104985  0  1.046354  0  0  0.107147  0  1.046266  0  0  0.096792  0.103423  0  1.046391  0
H  H42  1  0.48456207  0.71711550  0.32595403  1  0  0.092081  0  0.985876  0  0  0.104966  0  1.046312  0  0  0.107128  0  1.046227  0  0  0.096753  0.103403  0  1.046351  0
H  H43  1  0.37942798  0.72439216  0.56008564  1  0  0.101195  0  0.962886  0  0  0.110326  0  1.027774  0  0  0.11353  0  1.02594  0  0  0.09949  0.108052  0  1.029168  0
H  H44  1  0.62057697  0.27561062  0.43990700  1  0  0.101292  0  0.962827  0  0  0.11044  0  1.027703  0  0  0.113644  0  1.025866  0  0  0.099502  0.108164  0  1.029095  0
C  C45  1  0.58547594  0.75961494  0.66785695  1  0  -0.0404  0  3.697263  0  0  -0.123666  0  3.971731  0  0  -0.114317  0  3.977755  0  0  -0.156738  -0.129641  0  3.967548  0
C  C46  1  0.41451196  0.24038789  0.33214851  1  0  -0.040308  0  3.69674  0  0  -0.12357  0  3.97117  0  0  -0.114227  0  3.9772  0  0  -0.156641  -0.129545  0  3.966998  0
C  C47  1  0.05907397  0.28959679  0.88586438  1  0  0.043356  0  3.646593  0  0  0.005666  0  3.898401  0  0  0.010885  0  3.914534  0  0  0.048226  0.002244  0  3.887541  0
C  C48  1  0.94093050  0.71039778  0.11413479  1  0  0.0433  0  3.646654  0  0  0.005652  0  3.898419  0  0  0.010873  0  3.914548  0  0  0.04821  0.002237  0  3.887558  0
C  C49  1  0.04005369  0.43124905  0.84957511  1  0  0.222683  0  3.782086  0  0  0.220136  0  4.029684  0  0  0.224588  0  4.051183  0  0  0.108661  0.216768  0  4.015356  0
C  C50  1  0.95995241  0.56874348  0.15042062  1  0  0.222622  0  3.782199  0  0  0.220029  0  4.029744  0  0  0.224522  0  4.051255  0  0  0.108573  0.216664  0  4.015412  0
C  C51  1  0.90316659  0.52107475  0.85132143  1  0  -0.091488  0  3.663986  0  0  -0.119047  0  3.918658  0  0  -0.118174  0  3.9364  0  0  -0.065607  -0.119623  0  3.907213  0
C  C52  1  0.09684088  0.47891983  0.14867135  1  0  -0.091406  0  3.664074  0  0  -0.118941  0  3.918732  0  0  -0.118064  0  3.936452  0  0  -0.065505  -0.119527  0  3.907291  0
C  C53  1  0.79192893  0.46730769  0.89090394  1  0  -0.107291  0  3.775207  0  0  -0.119817  0  4.029765  0  0  -0.125604  0  4.051996  0  0  -0.083981  -0.116103  0  4.014513  0
C  C54  1  0.20807623  0.53268791  0.10909286  1  0  -0.10735  0  3.775254  0  0  -0.119919  0  4.029838  0  0  -0.125686  0  4.052073  0  0  -0.084047  -0.116204  0  4.014585  0
C  C55  1  0.81890291  0.32568619  0.92863027  1  0  0.102301  0  3.733484  0  0  0.069213  0  3.986996  0  0  0.075188  0  4.00655  0  0  0.033648  0.06528  0  3.973717  0
C  C56  1  0.18110093  0.67431044  0.07136932  1  0  0.102291  0  3.73349  0  0  0.069201  0  3.987028  0  0  0.075178  0  4.006574  0  0  0.033638  0.065265  0  3.973745  0
C  C57  1  0.70055363  0.05536534  0.92960039  1  0  0.111093  0  3.718224  0  0  0.078568  0  3.97429  0  0  0.084005  0  3.993507  0  0  0.041614  0.074988  0  3.960845  0
C  C58  1  0.29944330  0.94463746  0.07040030  1  0  0.111158  0  3.718109  0  0  0.078643  0  3.974168  0  0  0.084075  0  3.993381  0  0  0.041655  0.07506  0  3.960728  0
C  C59  1  0.61597823  0.07023258  0.85042744  1  0  -0.097569  0  3.734823  0  0  -0.107946  0  3.982871  0  0  -0.11336  0  4.003882  0  0  -0.078609  -0.10434  0  3.967778  0
C  C60  1  0.38402140  0.92977124  0.14957201  1  0  -0.097594  0  3.734733  0  0  -0.107962  0  3.982778  0  0  -0.113375  0  4.003788  0  0  -0.078625  -0.104352  0  3.967685  0
C  C61  1  0.67802575  0.02027075  0.73736530  1  0  -0.104186  0  3.65535  0  0  -0.126964  0  3.894682  0  0  -0.126679  0  3.911924  0  0  -0.06733  -0.125958  0  3.882246  0
C  C62  1  0.32197382  0.97973000  0.26263612  1  0  -0.104104  0  3.655176  0  0  -0.126922  0  3.894606  0  0  -0.126637  0  3.911844  0  0  -0.067319  -0.125912  0  3.882176  0
C  C63  1  0.82327649  0.95287375  0.70786734  1  0  0.20727  0  3.782468  0  0  0.205329  0  4.031197  0  0  0.209362  0  4.053129  0  0  0.101819  0.202083  0  4.016231  0
C  C64  1  0.17671969  0.04712495  0.29213588  1  0  0.207353  0  3.782335  0  0  0.205342  0  4.031184  0  0  0.209376  0  4.053115  0  0  0.101803  0.202094  0  4.016225  0
C  C65  1  0.90129592  0.94258597  0.79227677  1  0  0.026724  0  3.665827  0  0  -0.012572  0  3.921818  0  0  -0.007652  0  3.937067  0  0  0.036571  -0.015732  0  3.911265  0
C  C66  1  0.09870058  0.05741171  0.20772668  1  0  0.026663  0  3.66604  0  0  -0.012622  0  3.922062  0  0  -0.007707  0  3.937312  0  0  0.03653  -0.015782  0  3.911507  0
C  C67  1  0.00986726  0.80626002  0.56580980  1  0  0.604008  0  3.75839  0  0  0.560485  0  4.053476  0  0  0.588853  0  4.053055  0  0  0.251503  0.541459  0  4.053039  0
C  C68  1  0.99013295  0.19373867  0.43419390  1  0  0.603929  0  3.758563  0  0  0.560445  0  4.053573  0  0  0.588811  0  4.053153  0  0  0.251476  0.54142  0  4.05313  0
C  C69  1  0.04508434  0.76545834  0.43706197  1  0  -0.301681  0  3.699168  0  0  -0.347683  0  3.941553  0  0  -0.351833  0  3.949081  0  0  -0.156735  -0.345005  0  3.936922  0
C  C70  1  0.95491587  0.23454034  0.56294173  1  0  -0.301652  0  3.699217  0  0  -0.34763  0  3.941513  0  0  -0.351775  0  3.949037  0  0  -0.156667  -0.344947  0  3.936879  0
C  C71  1  0.02334588  0.62782302  0.46650529  1  0  0.103695  0  3.757034  0  0  0.124512  0  3.992669  0  0  0.12426  0  4.017331  0  0  -0.015386  0.12485  0  3.975996  0
C  C72  1  0.97665501  0.37217669  0.53349694  1  0  0.103632  0  3.756969  0  0  0.124452  0  3.992617  0  0  0.124198  0  4.017282  0  0  -0.015421  0.124792  0  3.97594  0
C  C73  1  0.89487399  0.62067761  0.46524484  1  0  -0.122615  0  3.747144  0  0  -0.139574  0  3.990914  0  0  -0.142782  0  4.0138  0  0  -0.096467  -0.137211  0  3.97556  0
C  C74  1  0.10512790  0.37932209  0.53475526  1  0  -0.122572  0  3.747084  0  0  -0.139534  0  3.990851  0  0  -0.142741  0  4.013738  0  0  -0.096438  -0.137169  0  3.975499  0
C  C75  1  0.12857370  0.50567710  0.50131902  1  0  -0.118449  0  3.745956  0  0  -0.139035  0  3.995275  0  0  -0.140457  0  4.016169  0  0  -0.097304  -0.138314  0  3.981374  0
C  C76  1  0.87142718  0.49432261  0.49868140  1  0  -0.118416  0  3.746068  0  0  -0.13901  0  3.995352  0  0  -0.140432  0  4.016251  0  0  -0.09729  -0.138289  0  3.981444  0
C  C77  1  0.27798864  0.42167757  0.84490179  1  0  0.598865  0  3.781901  0  0  0.55869  0  4.074392  0  0  0.585782  0  4.076009  0  0  0.244576  0.540301  0  4.073331  0
C  C78  1  0.72201752  0.57831803  0.15509378  1  0  0.59878  0  3.781766  0  0  0.558658  0  4.074152  0  0  0.585768  0  4.075806  0  0  0.244585  0.540282  0  4.073093  0
C  C79  1  0.38045777  0.50577450  0.77866079  1  0  -0.304182  0  3.711133  0  0  -0.347257  0  3.952182  0  0  -0.351717  0  3.960123  0  0  -0.156111  -0.344564  0  3.946657  0
C  C80  1  0.61954549  0.49422726  0.22133366  1  0  -0.304015  0  3.711048  0  0  -0.347178  0  3.952088  0  0  -0.351619  0  3.960007  0  0  -0.156113  -0.344531  0  3.946609  0
C  C81  1  0.44235916  0.50374141  0.63426663  1  0  0.097891  0  3.761108  0  0  0.116155  0  4.000645  0  0  0.116205  0  4.025293  0  0  -0.016068  0.11605  0  3.984082  0
C  C82  1  0.55764189  0.49626753  0.36572702  1  0  0.097989  0  3.760991  0  0  0.116347  0  4.000448  0  0  0.116394  0  4.025093  0  0  -0.015924  0.116258  0  3.983883  0
C  C83  1  0.50953430  0.37855309  0.59787050  1  0  -0.127024  0  3.746078  0  0  -0.144709  0  3.988096  0  0  -0.14732  0  4.009491  0  0  -0.100037  -0.14271  0  3.973444  0
C  C84  1  0.49046870  0.62145277  0.40212265  1  0  -0.127004  0  3.746056  0  0  -0.144799  0  3.98805  0  0  -0.147409  0  4.009444  0  0  -0.100035  -0.1428  0  3.973397  0
C  C85  1  0.43279920  0.62561208  0.53450278  1  0  -0.111731  0  3.741654  0  0  -0.130743  0  3.991593  0  0  -0.132485  0  4.011653  0  0  -0.09331  -0.129538  0  3.977793  0
C  C86  1  0.56720411  0.37439275  0.46549152  1  0  -0.112112  0  3.741722  0  0  -0.131172  0  3.991649  0  0  -0.132918  0  4.011717  0  0  -0.093439  -0.129964  0  3.977837  0
N  N87  1  0.95039836  0.23949071  0.92500839  1  0  -0.320901  0  3.29747  0  0  -0.241785  0  3.558973  0  0  -0.261189  0  3.580197  0  0  -0.333429  -0.228371  0  3.544358  0
N  N88  1  0.04960417  0.76050694  0.07499309  1  0  -0.320768  0  3.297442  0  0  -0.24167  0  3.558914  0  0  -0.261075  0  3.580145  0  0  -0.333378  -0.22826  0  3.544299  0
N  N89  1  0.84035656  0.99491647  0.89909147  1  0  -0.326077  0  3.306204  0  0  -0.248103  0  3.570658  0  0  -0.267039  0  3.591814  0  0  -0.332234  -0.234615  0  3.555812  0
N  N90  1  0.15964164  0.00508223  0.10091198  1  0  -0.32613  0  3.306365  0  0  -0.248131  0  3.570764  0  0  -0.267066  0  3.591923  0  0  -0.332223  -0.234645  0  3.55592  0
N  N91  1  0.88408144  0.90400866  0.59283995  1  0  -0.45832  0  3.337149  0  0  -0.40228  0  3.569304  0  0  -0.425487  0  3.579416  0  0  -0.396151  -0.385674  0  3.561725  0
N  N92  1  0.11591739  0.09598799  0.40716489  1  0  -0.458341  0  3.337132  0  0  -0.402252  0  3.56931  0  0  -0.425455  0  3.579421  0  0  -0.396171  -0.385655  0  3.561743  0
N  N93  1  0.15189671  0.48481411  0.80974039  1  0  -0.470596  0  3.345193  0  0  -0.414299  0  3.582092  0  0  -0.437934  0  3.594109  0  0  -0.400879  -0.398346  0  3.573831  0
N  N94  1  0.84811076  0.51518046  0.19025239  1  0  -0.470578  0  3.345081  0  0  -0.414164  0  3.58197  0  0  -0.437915  0  3.59409  0  0  -0.400804  -0.398215  0  3.573708  0
O  O95  1  0.17619030  0.96493850  0.81137790  1  0  -0.765841  0  1.509235  0  0  -0.763851  0  1.818692  0  0  -0.793866  0  1.806146  0  0  -0.533872  -0.743914  0  1.828669  0
O  O96  1  0.82380042  0.03505513  0.18861712  1  0  -0.765652  0  1.509239  0  0  -0.763732  0  1.818851  0  0  -0.793733  0  1.806229  0  0  -0.533803  -0.743792  0  1.828816  0
O  O97  1  0.37524396  0.09107788  0.69689326  1  0  -0.6559  0  1.289272  0  0  -0.666524  0  1.53325  0  0  -0.687968  0  1.525664  0  0  -0.4963  -0.652788  0  1.539448  0
O  O98  1  0.62474174  0.90891263  0.30313510  1  0  -0.655894  0  1.289335  0  0  -0.66645  0  1.533251  0  0  -0.687917  0  1.525666  0  0  -0.496323  -0.652725  0  1.539448  0
O  O99  1  0.44912840  0.80554163  0.75053710  1  0  -0.542357  0  1.985089  0  0  -0.516547  0  2.269761  0  0  -0.546446  0  2.269867  0  0  -0.407134  -0.496187  0  2.269375  0
O  O100  1  0.55086481  0.19446018  0.24945524  1  0  -0.542426  0  1.984878  0  0  -0.516621  0  2.269575  0  0  -0.546534  0  2.269681  0  0  -0.407144  -0.496262  0  2.269192  0
O  O101  1  0.31179627  0.98178453  0.55494325  1  0  -0.708595  0  1.408022  0  0  -0.721233  0  1.675588  0  0  -0.745819  0  1.667587  0  0  -0.505726  -0.704759  0  1.681644  0
O  O102  1  0.68820301  0.01823669  0.44505855  1  0  -0.70847  0  1.40818  0  0  -0.721078  0  1.675727  0  0  -0.745685  0  1.667718  0  0  -0.505636  -0.70461  0  1.681782  0
O  O103  1  0.08978251  0.75004916  0.64217031  1  0  -0.563731  0  1.97242  0  0  -0.512418  0  2.196392  0  0  -0.533719  0  2.190324  0  0  -0.288326  -0.497841  0  2.200176  0
O  O104  1  0.91021838  0.24995055  0.35783372  1  0  -0.563677  0  1.972491  0  0  -0.512354  0  2.196427  0  0  -0.533659  0  2.190361  0  0  -0.288273  -0.497774  0  2.200204  0
O  O105  1  0.30753908  0.30700132  0.92160410  1  0  -0.551855  0  1.895367  0  0  -0.509904  0  2.107726  0  0  -0.53076  0  2.103575  0  0  -0.296709  -0.49584  0  2.110541  0
O  O106  1  0.69246720  0.69300043  0.07839116  1  0  -0.551873  0  1.895202  0  0  -0.50995  0  2.107524  0  0  -0.530795  0  2.103365  0  0  -0.29676  -0.495888  0  2.110337  0
