# generated using pymatgen
data_CoH26C30N4O7
_symmetry_space_group_name_H-M   'P 1'
_cell_length_a   10.04989720
_cell_length_b   11.77798055
_cell_length_c   12.30148598
_cell_angle_alpha   93.05869684
_cell_angle_beta   111.82046741
_cell_angle_gamma   93.27436535
_symmetry_Int_Tables_number   1
_chemical_formula_structural   CoH26C30N4O7
_chemical_formula_sum   'Co2 H52 C60 N8 O14'
_cell_volume   1345.18709757
_cell_formula_units_Z   2
loop_
 _symmetry_equiv_pos_site_id
 _symmetry_equiv_pos_as_xyz
  1  'x, y, z'
loop_
 _atom_site_type_symbol
 _atom_site_label
 _atom_site_symmetry_multiplicity
 _atom_site_fract_x
 _atom_site_fract_y
 _atom_site_fract_z
 _atom_site_occupancy
 _atom_site_hle17_ddec_charge
 _atom_site_hle17_ddec_spin_density
 _atom_site_hle17_ddec_sum_bond_order
 _atom_site_hle17_magmom
 _atom_site_hse06_10hf_ddec_charge
 _atom_site_hse06_10hf_ddec_spin_density
 _atom_site_hse06_10hf_ddec_sum_bond_order
 _atom_site_hse06_10hf_magmom
 _atom_site_hse06_ddec_charge
 _atom_site_hse06_ddec_spin_density
 _atom_site_hse06_ddec_sum_bond_order
 _atom_site_hse06_magmom
 _atom_site_pbe_cm5_charge
 _atom_site_pbe_ddec_charge
 _atom_site_pbe_ddec_spin_density
 _atom_site_pbe_ddec_sum_bond_order
 _atom_site_pbe_magmom
Co  Co0  1  0.05630921  0.63760192  0.85873540  1  0.949209  2.807086  2.01975  2.525  0.889042  2.81837  2.477422  2.579  0.983295  2.866456  2.387656  2.672  0.669551  0.814563  2.770999  2.546714  2.492
Co  Co1  1  0.94369662  0.36239901  0.14127128  1  0.949185  2.807107  2.019777  2.525  0.888894  2.818366  2.477535  2.579  0.983153  2.866454  2.387771  2.672  0.669529  0.814437  2.770997  2.54681  2.492
H  H2  1  0.31096478  0.63773061  0.10649269  1  0.100556  -0.000176  0.942317  0.0  0.108868  -0.0  1.008188  0.0  0.110955  -4e-05  1.006069  0.0  0.139628  0.107072  3.7e-05  1.010464  0.0
H  H3  1  0.68903542  0.36226778  0.89351783  1  0.100492  -0.000175  0.94226  0.0  0.108866  0.0  1.008057  0.0  0.110952  -4e-05  1.00594  0.0  0.139615  0.107072  3.7e-05  1.01033  0.0
H  H4  1  0.90119735  0.76163273  0.02385178  1  0.096159  -4e-06  0.970816  0.0  0.105316  0.000156  1.035167  0.001  0.106941  0.0001  1.035448  0.0  0.117889  0.104445  0.000199  1.034504  0.001
H  H5  1  0.09881473  0.23837765  0.97616293  1  0.096232  -2e-06  0.971031  0.0  0.1054  0.000156  1.035325  0.001  0.107025  0.0001  1.035607  0.0  0.117918  0.104511  0.000199  1.034681  0.001
H  H6  1  0.03651329  0.76413374  0.26634309  1  0.110333  0.000244  0.982973  0.0  0.118209  0.000236  1.050548  0.0  0.120299  0.000175  1.050033  0.0  0.123031  0.116659  0.000304  1.050977  0.0
H  H7  1  0.96350514  0.23587582  0.73367434  1  0.110253  0.000244  0.983204  0.0  0.118188  0.000236  1.050715  0.0  0.120272  0.000175  1.050218  0.0  0.122987  0.116631  0.000304  1.051144  0.0
H  H8  1  0.48084175  0.76970114  0.29409601  1  0.109083  5e-06  0.978686  0.0  0.117974  8e-06  1.040691  0.0  0.120402  3e-06  1.040324  0.0  0.107433  0.115855  8e-06  1.041563  0.0
H  H9  1  0.51917130  0.23029732  0.70592171  1  0.109201  9e-06  0.97874  0.0  0.118079  8e-06  1.040712  0.0  0.120505  4e-06  1.040348  0.0  0.107489  0.115966  8e-06  1.041571  0.0
H  H10  1  0.66577003  0.74375733  0.48780245  1  0.105045  -8e-06  0.948554  0.0  0.117332  4e-06  1.00605  0.0  0.12012  3e-06  1.004682  0.0  0.109621  0.115179  -1.3e-05  1.00736  0.0
H  H11  1  0.33423773  0.25623090  0.51221725  1  0.105153  -1e-05  0.948485  0.0  0.117389  4e-06  1.006027  0.0  0.120173  3e-06  1.004659  0.0  0.109668  0.115241  -1.4e-05  1.007329  0.0
H  H12  1  0.34194817  0.57241409  0.58852842  1  0.118737  -2e-06  0.926885  0.0  0.133276  -7e-06  0.977819  0.0  0.1361  -1.2e-05  0.97705  0.0  0.117116  0.131049  1.5e-05  0.978696  0.0
H  H13  1  0.65804687  0.42756375  0.41147147  1  0.11882  -4e-06  0.926824  0.0  0.133214  -7e-06  0.977893  0.0  0.136037  -1.2e-05  0.977129  0.0  0.117109  0.130985  1.5e-05  0.978776  0.0
H  H14  1  0.15571103  0.60101213  0.39333534  1  0.133953  -5.7e-05  0.958769  0.0  0.143531  -3.2e-05  1.018093  0.0  0.147024  -4.2e-05  1.016005  0.0  0.114195  0.140793  -1e-05  1.019845  0.0
H  H15  1  0.84429359  0.39897596  0.60666308  1  0.134012  -5.2e-05  0.958581  0.0  0.14352  -3.1e-05  1.01799  0.0  0.147014  -4.2e-05  1.0159  0.0  0.114225  0.1408  -8e-06  1.019711  0.0
H  H16  1  0.81523961  0.64200744  0.61368471  1  0.10977  -0.000106  0.920767  0.0  0.122159  6.6e-05  0.975859  0.0  0.124988  8e-06  0.972166  0.0  0.147989  0.119501  0.000103  0.979829  0.0
H  H17  1  0.18476063  0.35797980  0.38631638  1  0.109773  -0.000105  0.920928  0.0  0.122252  6.5e-05  0.975894  0.0  0.125088  8e-06  0.972196  0.0  0.148017  0.119593  0.000104  0.979892  0.0
H  H18  1  0.77436705  0.58664660  0.93599024  1  0.113444  2e-06  0.990285  0.0  0.118199  0.000107  1.058041  0.001  0.121648  -1.2e-05  1.056284  0.0  0.117211  0.115808  0.000224  1.058805  0.001
H  H19  1  0.22564753  0.41334499  0.06401789  1  0.113523  0.0  0.990273  0.0  0.118246  0.000107  1.058047  0.001  0.121704  -1.2e-05  1.056285  0.0  0.117221  0.115863  0.000224  1.058803  0.001
H  H20  1  0.50357451  0.62108681  0.77139895  1  0.141225  0.00025  0.960285  0.0  0.147977  0.000239  1.022362  0.0  0.151929  0.000174  1.019327  0.0  0.128162  0.144287  0.000261  1.025777  0.0
H  H21  1  0.49643328  0.37889028  0.22861132  1  0.141173  0.000253  0.960486  0.0  0.147999  0.000239  1.022465  0.0  0.151951  0.000174  1.019431  0.0  0.128166  0.144316  0.000261  1.025877  0.0
H  H22  1  0.12998261  0.26263704  0.65073541  1  0.089492  -4e-05  0.969532  0.0  0.098513  -2e-06  1.035466  0.0  0.10173  -1.1e-05  1.03269  0.0  0.098353  0.096244  1.8e-05  1.037398  0.0
H  H23  1  0.87000111  0.73736708  0.34924594  1  0.089532  -3.7e-05  0.969494  0.0  0.098484  -2e-06  1.035506  0.0  0.101701  -1e-05  1.03273  0.0  0.098391  0.096223  1.8e-05  1.037433  0.0
H  H24  1  0.27833229  0.09282934  0.68924140  1  0.111122  2.8e-05  0.968366  0.0  0.119734  2.7e-05  1.032034  0.0  0.122174  1.5e-05  1.032888  0.0  0.10034  0.118054  4.3e-05  1.031481  0.0
H  H25  1  0.72164633  0.90717729  0.31073525  1  0.110963  2.7e-05  0.968313  0.0  0.119543  2.7e-05  1.032048  0.0  0.122002  1.5e-05  1.03288  0.0  0.100265  0.117869  4.5e-05  1.031493  0.0
H  H26  1  0.55453403  0.26289149  0.02532971  1  0.126993  1.6e-05  1.012419  0.0  0.131677  3.3e-05  1.082439  0.0  0.136126  1.2e-05  1.0797  0.0  0.102303  0.128588  5.1e-05  1.084271  0.0
H  H27  1  0.44544669  0.73710413  0.97465766  1  0.127036  1.3e-05  1.012439  0.0  0.131611  3.4e-05  1.082569  0.0  0.136063  1.2e-05  1.079833  0.0  0.102274  0.12853  4.9e-05  1.084393  0.0
H  H28  1  0.40393667  0.42453846  0.98621150  1  0.097911  5.2e-05  0.945792  0.0  0.112139  1.8e-05  0.999978  0.0  0.115091  -2.7e-05  0.998048  0.0  0.10507  0.110069  7.8e-05  1.001332  0.0
H  H29  1  0.59604680  0.57546310  0.01377128  1  0.097926  5.7e-05  0.945819  0.0  0.112172  1.8e-05  0.999986  0.0  0.115127  -2.7e-05  0.998051  0.0  0.105027  0.110097  8e-05  1.001338  0.0
H  H30  1  0.61285306  0.06358166  0.05115530  1  0.069617  -1.4e-05  0.941425  0.0  0.081903  -2.1e-05  1.005613  0.0  0.082276  -2.1e-05  1.005584  0.0  0.106839  0.081639  -1.5e-05  1.005608  0.0
H  H31  1  0.38714022  0.93643276  0.94883270  1  0.069672  -1.4e-05  0.941482  0.0  0.081933  -2.1e-05  1.005658  0.0  0.082317  -2.1e-05  1.005641  0.0  0.106814  0.081665  -9e-06  1.005645  0.0
H  H32  1  0.69967530  0.15583712  0.98225723  1  0.062185  -0.00028  0.956795  0.0  0.072252  4e-06  1.029641  0.0  0.071862  -2.6e-05  1.029764  0.0  0.104831  0.072207  1.3e-05  1.030314  0.0
H  H33  1  0.30031014  0.84417384  0.01772739  1  0.062231  -0.000282  0.956958  0.0  0.072269  4e-06  1.029772  0.0  0.071891  -2.6e-05  1.029906  0.0  0.104832  0.07222  1.6e-05  1.030437  0.0
H  H34  1  0.80628342  0.96449785  0.02847727  1  0.04697  -1.2e-05  0.913782  0.0  0.065238  -2.8e-05  0.971828  0.0  0.065275  -2.4e-05  0.971942  0.0  0.097259  0.065087  -2.7e-05  0.971916  0.0
H  H35  1  0.19371396  0.03551491  0.97151598  1  0.046958  -1.1e-05  0.913689  0.0  0.065232  -2.8e-05  0.971743  0.0  0.065267  -2.4e-05  0.971859  0.0  0.09728  0.065078  -2.6e-05  0.971822  0.0
H  H36  1  0.64336929  0.89786832  0.91984191  1  0.051893  5e-06  0.929595  0.0  0.064295  -6e-06  1.00083  0.0  0.064566  -7e-06  1.000815  0.0  0.098812  0.063846  -4e-06  1.001296  0.0
H  H37  1  0.35662237  0.10214104  0.08015512  1  0.051888  5e-06  0.929612  0.0  0.064224  -6e-06  1.000946  0.0  0.064494  -7e-06  1.000931  0.0  0.098822  0.06377  -5e-06  1.001409  0.0
H  H38  1  0.93133050  0.03725974  0.75032247  1  0.052901  1.1e-05  0.953836  0.0  0.06655  -1.3e-05  1.021988  0.0  0.066751  -1.3e-05  1.021562  0.0  0.10139  0.066314  -1e-06  1.022415  0.0
H  H39  1  0.06867719  0.96273772  0.24967324  1  0.052905  1.3e-05  0.953915  0.0  0.066551  -1.3e-05  1.022022  0.0  0.066751  -1.3e-05  1.021595  0.0  0.101396  0.066317  -3e-06  1.022456  0.0
H  H40  1  0.92349400  0.89387688  0.68997290  1  0.067191  -6.8e-05  0.955742  0.0  0.07772  -0.000111  1.02665  0.0  0.078278  -0.000154  1.026005  0.0  0.100663  0.077118  -5.7e-05  1.02737  0.0
H  H41  1  0.07650772  0.10611465  0.31003128  1  0.067224  -6.7e-05  0.955719  0.0  0.077651  -0.000111  1.026699  0.0  0.078209  -0.000154  1.026052  0.0  0.100629  0.077056  -6e-05  1.027416  0.0
H  H42  1  0.72644863  0.84540239  0.77114668  1  0.048341  -5.9e-05  0.945688  0.0  0.059522  -5.8e-05  1.017064  0.0  0.059405  -5.5e-05  1.018038  0.0  0.096409  0.059631  -6.5e-05  1.01641  0.0
H  H43  1  0.27354158  0.15460266  0.22884483  1  0.048379  -6e-05  0.945662  0.0  0.059527  -5.8e-05  1.017068  0.0  0.059412  -5.5e-05  1.018045  0.0  0.096448  0.059639  -6.3e-05  1.016416  0.0
H  H44  1  0.90556356  0.88124153  0.87534830  1  0.049977  3.7e-05  0.922461  0.0  0.065577  0.000207  0.986868  0.0  0.065133  0.00013  0.98703  0.0  0.099376  0.065705  0.000285  0.987128  0.0
H  H45  1  0.09442637  0.11876101  0.12465033  1  0.049953  3.7e-05  0.922515  0.0  0.065637  0.000206  0.986842  0.0  0.065198  0.000131  0.986996  0.0  0.099389  0.065761  0.000285  0.9871  0.0
H  H46  1  0.52917261  0.03360721  0.43105394  1  0.119875  3.6e-05  0.961043  0.0  0.12612  2.3e-05  1.027473  0.0  0.130526  1.2e-05  1.0246  0.0  0.105442  0.123123  4.5e-05  1.029315  0.0
H  H47  1  0.47083703  0.96639970  0.56895174  1  0.11993  3.6e-05  0.960999  0.0  0.126094  2.3e-05  1.027505  0.0  0.130495  1.2e-05  1.024644  0.0  0.105431  0.123096  4.5e-05  1.029348  0.0
H  H48  1  0.55303115  0.15246192  0.27782152  1  0.093422  -4.5e-05  0.951033  0.0  0.100801  -3.2e-05  1.019771  0.0  0.104515  -2.7e-05  1.016265  0.0  0.100802  0.097954  -1.7e-05  1.022731  0.0
H  H49  1  0.44697804  0.84756295  0.72219459  1  0.093514  -4.4e-05  0.950971  0.0  0.100928  -3.2e-05  1.019658  0.0  0.104636  -2.7e-05  1.016159  0.0  0.100802  0.098078  -1.4e-05  1.022615  0.0
H  H50  1  0.01171544  0.18342150  0.45334981  1  0.088582  6.8e-05  0.951114  0.0  0.102508  3.2e-05  1.007865  0.0  0.105454  -1e-05  1.005441  0.0  0.100373  0.100239  7.9e-05  1.009942  0.0
H  H51  1  0.98829077  0.81658277  0.54664494  1  0.088645  6.8e-05  0.951087  0.0  0.102541  3.2e-05  1.007865  0.0  0.105492  -1e-05  1.005431  0.0  0.10037  0.100274  7.6e-05  1.009943  0.0
H  H52  1  0.99218371  0.06580819  0.60765970  1  0.099717  1e-06  0.985126  0.0  0.110216  -1e-06  1.048964  0.0  0.112751  -2e-06  1.049142  0.0  0.099431  0.108484  -0.0  1.048733  0.0
H  H53  1  0.00782689  0.93418584  0.39233106  1  0.09977  0.0  0.985028  0.0  0.110191  -1e-06  1.048982  0.0  0.112725  -1e-06  1.049161  0.0  0.09941  0.108454  -0.0  1.048754  0.0
C  C54  1  0.21800020  0.67380949  0.11460437  1  0.186693  -0.002223  3.609951  -0.001  0.127842  0.004082  3.880171  0.005  0.144377  0.0032  3.89134  0.004  0.151123  0.115283  0.003306  3.874188  0.004
C  C55  1  0.78200422  0.32618804  0.88540334  1  0.186759  -0.002253  3.609976  -0.001  0.127889  0.004082  3.880164  0.005  0.144426  0.003201  3.891332  0.004  0.151155  0.115329  0.003305  3.874175  0.004
C  C56  1  0.00699224  0.73759698  0.07626866  1  0.004567  -0.003395  3.738091  -0.002  -0.028012  0.000829  4.012063  0.002  -0.024755  0.0006  4.031018  0.001  0.000168  -0.030218  0.001665  3.998711  0.003
C  C57  1  0.99301877  0.26241339  0.92374491  1  0.004357  -0.003428  3.738205  -0.002  -0.028242  0.000829  4.012208  0.002  -0.024988  0.000599  4.031165  0.001  8.1e-05  -0.030438  0.001662  3.998867  0.003
C  C58  1  0.07124384  0.73925579  0.19594229  1  -0.0268  0.00237  3.645474  0.003  -0.068917  0.000816  3.902905  0.001  -0.065746  0.000399  3.9187  0.001  0.01262  -0.070533  0.001621  3.892221  0.002
C  C59  1  0.92876752  0.26074688  0.80406698  1  -0.02669  0.002385  3.64565  0.003  -0.068849  0.000816  3.903052  0.001  -0.065676  0.000399  3.91884  0.001  0.012618  -0.070454  0.001617  3.892346  0.002
C  C60  1  0.30903357  0.68471996  0.33221728  1  0.172919  0.000199  3.769435  0.001  0.164667  0.000374  4.017769  0.001  0.168306  0.000255  4.040869  0.0  0.095639  0.161837  0.000453  4.002441  0.001
C  C61  1  0.69097373  0.31527418  0.66779280  1  0.173376  0.000265  3.76939  0.001  0.164935  0.000374  4.017889  0.001  0.168577  0.000255  4.040984  0.0  0.095677  0.162103  0.000448  4.002556  0.001
C  C62  1  0.45165187  0.72447917  0.35783366  1  -0.116896  -1e-05  3.737841  0.0  -0.137357  -2.5e-05  3.986529  0.0  -0.139117  -4.2e-05  4.006874  0.0  -0.082786  -0.135995  0.000158  3.973311  0.0
C  C63  1  0.54836152  0.27551161  0.64218220  1  -0.117217  -9.2e-05  3.737772  0.0  -0.13762  -2.5e-05  3.98653  0.0  -0.139384  -4.2e-05  4.00688  0.0  -0.082779  -0.136263  0.000154  3.973302  0.0
C  C64  1  0.55558652  0.70892409  0.46659710  1  -0.131676  -0.000235  3.749844  0.0  -0.154063  0.000212  4.004842  0.0  -0.157574  0.000151  4.025323  0.0  -0.087317  -0.151862  0.000127  3.991113  0.0
C  C65  1  0.44441871  0.29105982  0.53341513  1  -0.131875  -0.000144  3.749788  0.0  -0.154222  0.000211  4.004778  0.0  -0.157725  0.000152  4.02525  0.0  -0.087477  -0.152024  0.000129  3.991048  0.0
C  C66  1  0.51664775  0.65269301  0.54899375  1  0.171606  0.000596  3.783297  0.001  0.161338  0.000436  4.035722  0.001  0.166423  0.000265  4.058685  0.0  0.097007  0.158083  0.000354  4.019976  0.0
C  C67  1  0.48335493  0.34728661  0.45101425  1  0.1717  0.000559  3.783299  0.001  0.161441  0.000436  4.035625  0.001  0.166529  0.000264  4.058584  0.0  0.096858  0.158178  0.000353  4.019885  0.0
C  C68  1  0.37288009  0.61529091  0.52407636  1  -0.119572  -0.000262  3.711474  0.0  -0.141231  0.000123  3.966474  0.0  -0.144886  7.4e-05  3.987281  0.0  -0.079937  -0.138835  0.000421  3.952781  0.001
C  C69  1  0.62711709  0.38468694  0.47592499  1  -0.119659  -0.000187  3.711309  0.0  -0.141207  0.000123  3.966198  0.0  -0.144865  7.5e-05  3.987006  0.0  -0.079884  -0.138821  0.000421  3.952522  0.001
C  C70  1  0.26804105  0.63167457  0.41520496  1  -0.120223  0.00029  3.697876  0.0  -0.141885  0.000264  3.950812  0.0  -0.144486  0.000141  3.971483  0.0  -0.078409  -0.140232  0.000297  3.937407  0.0
C  C71  1  0.73196240  0.36831269  0.58479793  1  -0.120365  0.000241  3.697696  0.0  -0.141856  0.000264  3.950521  0.0  -0.144457  0.000141  3.971189  0.0  -0.078419  -0.140207  0.000304  3.937102  0.0
C  C72  1  0.76832289  0.63284165  0.67927604  1  0.174361  -0.003556  3.632324  -0.002  0.115058  0.004088  3.907153  0.005  0.131548  0.003276  3.918468  0.004  0.149047  0.101817  0.003328  3.902064  0.004
C  C73  1  0.23167964  0.36714733  0.32072908  1  0.174341  -0.003567  3.632344  -0.002  0.114958  0.004091  3.907158  0.005  0.131443  0.003279  3.918483  0.004  0.148985  0.101706  0.003326  3.902088  0.004
C  C74  1  0.74213671  0.60405803  0.84432892  1  -0.012643  -0.003148  3.740268  -0.001  -0.042406  0.000932  4.013785  0.002  -0.040651  0.00059  4.03453  0.001  -0.003333  -0.043232  0.001824  3.998633  0.003
C  C75  1  0.25787340  0.39593185  0.15568020  1  -0.012905  -0.003109  3.740449  -0.001  -0.042659  0.000933  4.013983  0.002  -0.040915  0.000589  4.034741  0.001  -0.003417  -0.043479  0.001828  3.998837  0.003
C  C76  1  0.60732099  0.61660562  0.76327346  1  -0.06315  0.002995  3.627899  0.004  -0.10273  0.001192  3.88541  0.002  -0.100713  0.000764  3.901506  0.001  0.004758  -0.103274  0.001968  3.875091  0.003
C  C77  1  0.39268830  0.38337573  0.23673584  1  -0.062991  0.00297  3.628138  0.004  -0.102619  0.001192  3.885549  0.002  -0.100603  0.000765  3.901648  0.001  0.004795  -0.103158  0.001972  3.875232  0.003
C  C78  1  0.15971930  0.44833531  0.79792675  1  0.624472  -0.005234  3.947792  -0.005  0.581443  0.00228  4.247495  0.001  0.617728  0.001324  4.244133  0.001  0.193599  0.555367  0.003323  4.249101  0.001
C  C79  1  0.84027397  0.55166803  0.20206318  1  0.623829  -0.005237  3.948316  -0.005  0.580814  0.00228  4.248028  0.001  0.617095  0.001325  4.244689  0.001  0.19335  0.554737  0.00333  4.24964  0.001
C  C80  1  0.25602924  0.35352270  0.81675633  1  -0.098273  0.00264  3.804788  0.004  -0.075754  0.001013  4.032735  0.001  -0.0851  0.000368  4.056022  0.001  -0.036355  -0.069493  0.001707  4.017597  0.002
C  C81  1  0.74395960  0.64647887  0.18322485  1  -0.097854  0.002674  3.804256  0.004  -0.075314  0.001013  4.032158  0.001  -0.084658  0.000372  4.05545  0.001  -0.036203  -0.06905  0.001709  4.017026  0.002
C  C82  1  0.22250988  0.26014721  0.73257868  1  -0.068199  0.000253  3.789286  0.001  -0.089038  0.000828  4.034616  0.001  -0.087119  0.000594  4.054428  0.001  -0.092837  -0.090022  0.001097  4.020669  0.001
C  C83  1  0.77747393  0.73985775  0.26740112  1  -0.068445  0.000202  3.789044  0.001  -0.089234  0.000828  4.034379  0.001  -0.08732  0.000594  4.0542  0.001  -0.092979  -0.090215  0.001102  4.020443  0.001
C  C84  1  0.30366303  0.16637404  0.75339373  1  -0.198737  0.000452  3.751372  0.001  -0.216745  0.000188  4.004176  0.0  -0.223062  1.2e-05  4.023414  0.0  -0.1109  -0.212193  0.00037  3.990592  0.0
C  C85  1  0.69632069  0.83363008  0.24658925  1  -0.198358  0.000486  3.751065  0.001  -0.216226  0.000188  4.003928  0.0  -0.222559  9e-06  4.023153  0.0  -0.110696  -0.211676  0.000369  3.990348  0.0
C  C86  1  0.42492295  0.16681459  0.85856065  1  0.273237  0.000108  3.826117  0.0  0.261371  0.00042  4.088313  0.0  0.274242  0.000325  4.103585  0.0  0.081461  0.252902  0.000559  4.077685  0.001
C  C87  1  0.57506174  0.83318869  0.14142341  1  0.27324  6.7e-05  3.825919  0.0  0.261031  0.00042  4.088551  0.001  0.273912  0.000326  4.103814  0.0  0.081368  0.252562  0.00056  4.077925  0.001
C  C88  1  0.46200240  0.26033595  0.94262112  1  -0.234745  -0.000233  3.770203  0.0  -0.253613  -0.000349  4.02492  0.0  -0.261929  -0.000393  4.045099  0.0  -0.118539  -0.248082  -0.000289  4.011526  0.0
C  C89  1  0.53798180  0.73966221  0.05736174  1  -0.23471  -0.000144  3.7702  0.0  -0.253366  -0.000348  4.024978  0.0  -0.261689  -0.000393  4.045164  0.0  -0.118448  -0.247821  -0.000287  4.011551  0.0
C  C90  1  0.37647891  0.35201305  0.92087393  1  -0.040425  0.000142  3.751683  0.0  -0.060275  0.000629  3.992344  0.001  -0.05689  0.000451  4.011043  0.001  -0.086303  -0.062656  0.000835  3.979963  0.001
C  C91  1  0.62350530  0.64798510  0.07910811  1  -0.040685  7.5e-05  3.751827  0.0  -0.060578  0.000629  3.992491  0.001  -0.057194  0.000449  4.011189  0.001  -0.086363  -0.062948  0.000836  3.980098  0.001
C  C92  1  0.63486469  0.07455155  0.97096744  1  0.058865  -8.4e-05  3.610926  0.0  -0.004564  2.2e-05  3.882728  0.0  0.003504  1e-05  3.88726  0.0  -0.070921  -0.009966  3.4e-05  3.879499  0.0
C  C93  1  0.36512610  0.92545945  0.02902045  1  0.058633  -7.2e-05  3.611465  0.0  -0.004691  2.2e-05  3.883114  0.0  0.003331  9e-06  3.887705  0.0  -0.070854  -0.010087  2.7e-05  3.879852  0.0
C  C94  1  0.71460534  0.97791237  0.94684047  1  0.065759  -2.5e-05  3.679839  0.0  0.005091  -2.8e-05  3.955744  0.0  0.011504  -2.6e-05  3.961389  0.0  -0.072153  0.000769  -3.5e-05  3.95178  0.0
C  C95  1  0.28538873  0.02209953  0.05315497  1  0.065984  -3.5e-05  3.679808  0.0  0.00532  -2.9e-05  3.95571  0.0  0.011748  -2.4e-05  3.961367  0.0  -0.072141  0.00103  -3e-05  3.951697  0.0
C  C96  1  0.86170461  0.95785835  0.71447696  1  0.056699  2.2e-05  3.629931  0.0  -0.009017  -2e-06  3.903693  0.0  -0.00114  -3.8e-05  3.907445  0.0  -0.073001  -0.014273  2.3e-05  3.901032  0.0
C  C97  1  0.13829862  0.04213740  0.28551975  1  0.05662  1.4e-05  3.630257  0.0  -0.008976  -2e-06  3.903892  0.0  -0.001075  -3.7e-05  3.907638  0.0  -0.072993  -0.014243  3.4e-05  3.901248  0.0
C  C98  1  0.81263033  0.91549186  0.80787883  1  0.065678  -3.9e-05  3.678202  0.0  0.00668  9.7e-05  3.953326  0.0  0.013322  5.7e-05  3.959343  0.0  -0.072934  0.002155  0.000118  3.94899  0.0
C  C99  1  0.18736300  0.08451238  0.19211685  1  0.065613  -3.1e-05  3.678456  0.0  0.006583  9.7e-05  3.953549  0.0  0.013216  5.5e-05  3.959566  0.0  -0.07298  0.002066  0.00012  3.949218  0.0
C  C100  1  0.75880965  0.04398051  0.53176530  1  0.276577  -0.000202  3.808501  0.0  0.264791  0.000359  4.069969  0.0  0.277749  0.000287  4.08573  0.0  0.082626  0.256224  0.000505  4.058767  0.001
C  C101  1  0.24119769  0.95602467  0.46823715  1  0.276443  -0.000217  3.808939  0.0  0.264769  0.000358  4.070214  0.0  0.277755  0.000287  4.085964  0.0  0.082614  0.256196  0.000505  4.059014  0.001
C  C102  1  0.63496921  0.06746275  0.43702440  1  -0.185678  0.000531  3.724534  0.001  -0.207999  0.000125  3.986176  0.0  -0.214341  -2.5e-05  4.003766  0.0  -0.1051  -0.203516  0.000278  3.973746  0.0
C  C103  1  0.36503884  0.93255015  0.56298594  1  -0.18555  0.000536  3.724433  0.001  -0.207882  0.000126  3.986151  0.0  -0.21422  -2.4e-05  4.003729  0.0  -0.105052  -0.203405  0.000275  3.973725  0.0
C  C104  1  0.64837505  0.13375341  0.35131031  1  -0.036937  -0.000236  3.762123  0.0  -0.064114  0.000556  4.01975  0.001  -0.060393  0.000418  4.037349  0.001  -0.083921  -0.066503  0.000814  4.007947  0.001
C  C105  1  0.35162812  0.86626460  0.64870283  1  -0.037154  -0.000245  3.761867  0.0  -0.064343  0.000555  4.019492  0.001  -0.060621  0.000417  4.037095  0.001  -0.083957  -0.066728  0.000825  4.007697  0.001
C  C106  1  0.78368224  0.17673117  0.35548523  1  -0.101959  0.003546  3.791726  0.005  -0.079309  0.001501  4.022924  0.002  -0.089407  0.000787  4.045508  0.001  -0.034392  -0.072876  0.002243  4.008217  0.003
C  C107  1  0.21631880  0.82328681  0.64452238  1  -0.101989  0.003546  3.7917  0.005  -0.079407  0.001502  4.023033  0.002  -0.089507  0.000789  4.045619  0.001  -0.03445  -0.072971  0.002243  4.008328  0.003
C  C108  1  0.90592968  0.15110294  0.44906634  1  -0.047133  -0.000915  3.775611  -0.001  -0.069549  0.000226  4.022182  0.0  -0.06585  0.000184  4.040865  0.0  -0.088967  -0.071962  0.000352  4.009785  0.0
C  C109  1  0.09407847  0.84891078  0.55093919  1  -0.047074  -0.000918  3.775945  -0.001  -0.069423  0.000225  4.02245  0.0  -0.065723  0.000183  4.041139  0.0  -0.088896  -0.071855  0.000339  4.010061  0.0
C  C110  1  0.89489795  0.08578467  0.53711259  1  -0.231474  0.000112  3.800329  0.0  -0.248698  -0.000221  4.055315  0.0  -0.25728  -0.000253  4.077862  0.0  -0.119208  -0.242828  -0.000257  4.039672  0.0
C  C111  1  0.10511153  0.91422052  0.46289134  1  -0.231632  0.000118  3.800798  0.0  -0.248857  -0.000219  4.055747  0.0  -0.257442  -0.000251  4.078289  0.0  -0.11925  -0.242985  -0.000253  4.04011  0.0
C  C112  1  0.79220712  0.24872087  0.26149163  1  0.639783  -0.004681  3.918442  -0.004  0.59775  0.001889  4.212651  0.001  0.634947  0.001329  4.206631  0.001  0.200736  0.571165  0.002531  4.215234  0.002
C  C113  1  0.20779576  0.75128259  0.73851020  1  0.639875  -0.004675  3.918291  -0.004  0.597808  0.001887  4.212565  0.001  0.635006  0.001327  4.206541  0.001  0.200771  0.571215  0.002522  4.215146  0.002
N  N114  1  0.09888459  0.69570584  0.02598449  1  -0.383762  0.03591  3.319781  0.057  -0.336674  0.027756  3.639968  0.034  -0.365205  0.022094  3.649033  0.027  -0.362859  -0.315718  0.032746  3.635034  0.041
N  N115  1  0.90111496  0.30429678  0.97402279  1  -0.383554  0.035924  3.319526  0.057  -0.336426  0.027755  3.63967  0.034  -0.36496  0.022094  3.648743  0.027  -0.362729  -0.315471  0.03275  3.634735  0.041
N  N116  1  0.20477398  0.69916372  0.21913861  1  -0.078612  0.00088  3.586416  0.002  0.010258  0.001645  3.797887  0.003  -0.003495  0.001216  3.821148  0.002  -0.220117  0.019478  0.002384  3.782408  0.004
N  N117  1  0.79523506  0.30083724  0.78086987  1  -0.078835  0.00088  3.586709  0.002  0.010041  0.001645  3.79829  0.003  -0.003713  0.001216  3.821549  0.002  -0.220184  0.019264  0.002389  3.782799  0.004
N  N118  1  0.62535513  0.63488429  0.65859655  1  -0.089917  0.000769  3.608574  0.001  -0.000784  0.001455  3.819935  0.002  -0.015031  0.001064  3.844363  0.002  -0.223474  0.008507  0.002113  3.803903  0.003
N  N119  1  0.37464640  0.36509446  0.34141025  1  -0.089959  0.000778  3.608549  0.001  -0.0008  0.001455  3.819879  0.002  -0.015052  0.001064  3.844309  0.002  -0.22325  0.008495  0.002105  3.803852  0.003
N  N120  1  0.84158734  0.61523627  0.79101628  1  -0.373713  0.03639  3.335998  0.056  -0.328975  0.027759  3.659961  0.034  -0.358013  0.02196  3.671902  0.026  -0.36371  -0.307914  0.033235  3.653255  0.041
N  N121  1  0.15841783  0.38475783  0.20898989  1  -0.373622  0.036385  3.335767  0.056  -0.328852  0.027755  3.659732  0.034  -0.35789  0.021955  3.671679  0.026  -0.363727  -0.307772  0.03324  3.653007  0.041
O  O122  1  0.07134402  0.46486925  0.69830839  1  -0.604989  0.0075  1.886929  0.013  -0.5703  0.009058  2.10372  0.015  -0.596122  0.006177  2.095664  0.011  -0.325751  -0.550733  0.012614  2.108528  0.021
O  O123  1  0.92865841  0.53515119  0.30168431  1  -0.604682  0.007501  1.887222  0.013  -0.570014  0.009057  2.104008  0.015  -0.595834  0.006176  2.095966  0.011  -0.325557  -0.550433  0.012608  2.108824  0.021
O  O124  1  0.17194402  0.50951236  0.89374350  1  -0.637451  0.06416  2.091639  0.107  -0.601522  0.046034  2.384068  0.069  -0.649515  0.033581  2.375215  0.05  -0.335386  -0.563349  0.057903  2.387778  0.087
O  O125  1  0.82803618  0.49047817  0.10624835  1  -0.637232  0.064153  2.091611  0.107  -0.601271  0.046029  2.38402  0.069  -0.649264  0.033576  2.375178  0.05  -0.335283  -0.563089  0.057891  2.387725  0.087
O  O126  1  0.68389063  0.29545495  0.19930879  1  -0.609146  0.001182  1.93947  0.002  -0.567445  0.002867  2.167365  0.004  -0.591847  0.001905  2.159023  0.003  -0.3172  -0.548855  0.004272  2.172765  0.007
O  O127  1  0.31611764  0.70454849  0.80068900  1  -0.609227  0.001184  1.939473  0.002  -0.567481  0.002868  2.167387  0.004  -0.591887  0.001906  2.159043  0.003  -0.317225  -0.548898  0.004279  2.172786  0.007
O  O128  1  0.91629337  0.25742338  0.24958005  1  -0.653686  0.056152  2.081373  0.093  -0.61564  0.040835  2.37203  0.06  -0.660949  0.029999  2.358785  0.043  -0.33916  -0.57922  0.051656  2.379979  0.076
O  O129  1  0.08371199  0.74257239  0.75041975  1  -0.653708  0.056144  2.081477  0.093  -0.615652  0.040829  2.37211  0.06  -0.660957  0.029994  2.358859  0.043  -0.339187  -0.579234  0.051654  2.380057  0.076
O  O130  1  0.73724634  0.97983180  0.61402383  1  -0.283548  9.6e-05  2.297653  0.0  -0.210386  0.000207  2.533662  0.0  -0.228948  0.000129  2.535667  0.0  -0.179924  -0.197108  0.000305  2.531436  0.001
O  O131  1  0.26275682  0.02016307  0.38596794  1  -0.283389  9.9e-05  2.297701  0.0  -0.210237  0.000207  2.533611  0.0  -0.228852  0.000129  2.535638  0.0  -0.179865  -0.196963  0.000305  2.531394  0.001
O  O132  1  0.76304682  0.00830486  0.85661819  1  -0.29799  3.8e-05  2.256019  0.0  -0.230814  6.6e-05  2.50772  0.0  -0.245369  3.1e-05  2.508789  0.0  -0.234269  -0.220318  0.000103  2.506229  0.0
O  O133  1  0.23694562  0.99170105  0.14337323  1  -0.298041  3.9e-05  2.25613  0.0  -0.230912  6.6e-05  2.507911  0.0  -0.245456  3.1e-05  2.508965  0.0  -0.2343  -0.22042  0.000101  2.506405  0.0
O  O134  1  0.50203169  0.07360205  0.87035289  1  -0.287599  0.000149  2.327501  0.0  -0.215081  0.000256  2.565179  0.0  -0.234288  0.000156  2.568249  0.0  -0.179159  -0.20134  0.000383  2.562512  0.001
O  O135  1  0.49795639  0.92640296  0.12963309  1  -0.287695  0.000145  2.327526  0.0  -0.215046  0.000256  2.565229  0.0  -0.23425  0.000156  2.568324  0.0  -0.179233  -0.201305  0.000376  2.562564  0.001
