# generated using pymatgen
data_Zr3H26(C27O11)2
_symmetry_space_group_name_H-M   'P 1'
_cell_length_a   19.01518984
_cell_length_b   19.01518583
_cell_length_c   19.01517180
_cell_angle_alpha   59.99997544
_cell_angle_beta   60.00000896
_cell_angle_gamma   59.99996714
_symmetry_Int_Tables_number   1
_chemical_formula_structural   Zr3H26(C27O11)2
_chemical_formula_sum   'Zr6 H52 C108 O44'
_cell_volume   4861.67962630
_cell_formula_units_Z   2
loop_
 _symmetry_equiv_pos_site_id
 _symmetry_equiv_pos_as_xyz
  1  'x, y, z'
loop_
 _atom_site_type_symbol
 _atom_site_label
 _atom_site_symmetry_multiplicity
 _atom_site_fract_x
 _atom_site_fract_y
 _atom_site_fract_z
 _atom_site_occupancy
 _atom_site_pbe_bader_charge
 _atom_site_pbe_bader_spin_density
 _atom_site_pbe_cm5_charge
 _atom_site_pbe_ddec_charge
 _atom_site_pbe_ddec_spin_density
 _atom_site_pbe_ddec_sum_bond_order
 _atom_site_pbe_magmom
Zr  Zr0  1  0.90705833  0.40705780  0.59294218  1  2.633361  0  1.624547  2.371709  0  2.762186  0
Zr  Zr1  1  0.09294247  0.59294302  0.40705747  1  2.637223  0  1.624599  2.371752  0  2.762089  0
Zr  Zr2  1  0.09294440  0.40705649  0.59294412  1  2.637316  0  1.624602  2.371735  0  2.762169  0
Zr  Zr3  1  0.90705631  0.59294424  0.40705636  1  2.633322  0  1.624587  2.371718  0  2.762186  0
Zr  Zr4  1  0.90705752  0.59294327  0.59294316  1  2.637301  0  1.624586  2.37172  0  2.762168  0
Zr  Zr5  1  0.09294329  0.40705651  0.40705689  1  2.633332  0  1.624577  2.371709  0  2.762142  0
H  H6  1  0.92684202  0.42684251  0.71947505  1  0.616725  0  0.330931  0.422193  0  0.855793  0
H  H7  1  0.92684189  0.71947509  0.42684178  1  0.616055  0  0.330945  0.422236  0  0.855775  0
H  H8  1  0.21947493  0.42684187  0.42684174  1  0.616053  0  0.330966  0.422279  0  0.855734  0
H  H9  1  0.92684242  0.42684197  0.42684150  1  0.591097  0  0.33094  0.422211  0  0.85555  0
H  H10  1  0.32171350  0.38658492  0.17691582  1  0.090135  0  0.105246  0.112378  0  1.003316  0
H  H11  1  0.43666412  0.32000166  0.06347493  1  0.092388  0  0.11046  0.135717  0  0.979979  0
H  H12  1  0.31762576  0.61095997  0.18094686  1  0.055408  0  0.102885  0.095382  0  1.041026  0
H  H13  1  0.67691690  0.61478647  0.82171304  1  0.102132  0  0.10522  0.112316  0  1.003341  0
H  H14  1  0.56347714  0.67985879  0.93666504  1  0.090383  0  0.110455  0.135725  0  0.979966  0
H  H15  1  0.68094914  0.39046635  0.81762525  1  0.03858  0  0.102861  0.095351  0  1.041065  0
H  H16  1  0.88658460  0.82171443  0.61478454  1  0.070223  0  0.105255  0.112399  0  1.0033  0
H  H17  1  0.82000013  0.93666598  0.67985744  1  0.051582  0  0.110431  0.13435  0  0.981577  0
H  H18  1  0.11096035  0.81762744  0.39046537  1  0.076263  0  0.102867  0.095355  0  1.041074  0
H  H19  1  0.11478721  0.17691643  0.38658469  1  0.063845  0  0.10524  0.112344  0  1.003315  0
H  H20  1  0.17985889  0.06347810  0.31999904  1  0.050271  0  0.110464  0.134441  0  0.981555  0
H  H21  1  0.89046692  0.18094845  0.61095876  1  0.042552  0  0.102861  0.095334  0  1.041088  0
H  H22  1  0.32171231  0.17691626  0.61478686  1  0.102135  0  0.105245  0.112333  0  1.003304  0
H  H23  1  0.43666504  0.06347774  0.67985846  1  0.090378  0  0.11045  0.135737  0  0.979957  0
H  H24  1  0.31762629  0.18095016  0.39046509  1  0.038622  0  0.102863  0.095357  0  1.041072  0
H  H25  1  0.67691688  0.82171400  0.38658436  1  0.090124  0  0.105256  0.112377  0  1.003317  0
H  H26  1  0.56347845  0.93666682  0.31999839  1  0.092357  0  0.110443  0.135719  0  0.979931  0
H  H27  1  0.68094755  0.81762685  0.61095932  1  0.055443  0  0.102865  0.095357  0  1.041075  0
H  H28  1  0.11478603  0.38658342  0.82171338  1  0.070184  0  0.105233  0.112356  0  1.003317  0
H  H29  1  0.17985768  0.31999809  0.93666643  1  0.051548  0  0.110447  0.134396  0  0.981544  0
H  H30  1  0.89046747  0.61096022  0.81762531  1  0.07624  0  0.102875  0.095366  0  1.041044  0
H  H31  1  0.88658557  0.61478610  0.17691610  1  0.063878  0  0.105254  0.112373  0  1.003313  0
H  H32  1  0.82000169  0.67985920  0.06347585  1  0.050285  0  0.110465  0.134382  0  0.981525  0
H  H33  1  0.11095985  0.39046607  0.18094838  1  0.042527  0  0.102867  0.095342  0  1.041096  0
H  H34  1  0.11478623  0.82171425  0.17691661  1  0.102127  0  0.105216  0.112335  0  1.003347  0
H  H35  1  0.17986061  0.93666466  0.06347624  1  0.090356  0  0.110483  0.134535  0  0.981535  0
H  H36  1  0.89046590  0.81762753  0.18094949  1  0.038587  0  0.102849  0.095312  0  1.041071  0
H  H37  1  0.88658434  0.17691748  0.82171433  1  0.090073  0  0.105258  0.11238  0  1.003317  0
H  H38  1  0.82000120  0.06347695  0.93666460  1  0.092429  0  0.11042  0.135701  0  0.980011  0
H  H39  1  0.11095973  0.18094882  0.81762573  1  0.055306  0  0.102858  0.095359  0  1.041062  0
H  H40  1  0.32171514  0.61478527  0.38658280  1  0.070163  0  0.105234  0.112365  0  1.003357  0
H  H41  1  0.43666723  0.67985727  0.31999861  1  0.05157  0  0.110436  0.134368  0  0.981592  0
H  H42  1  0.31762704  0.39046560  0.61095873  1  0.076512  0  0.102862  0.095359  0  1.041084  0
H  H43  1  0.67691808  0.38658263  0.61478475  1  0.06387  0  0.10523  0.112356  0  1.003347  0
H  H44  1  0.56347746  0.31999925  0.67985783  1  0.050318  0  0.110443  0.134374  0  0.981565  0
H  H45  1  0.68094947  0.61095813  0.39046576  1  0.042543  0  0.102875  0.095384  0  1.041098  0
H  H46  1  0.62077670  0.31469054  0.87903584  1  0.588642  0  0.326965  0.353594  0  0.911244  0
H  H47  1  0.37903844  0.68549590  0.12077707  1  0.587693  0  0.326939  0.353493  0  0.91135  0
H  H48  1  0.81468999  0.12077583  0.68549718  1  0.587099  0  0.32697  0.353605  0  0.911141  0
H  H49  1  0.18549687  0.87903976  0.31468780  1  0.587129  0  0.326951  0.353519  0  0.911173  0
H  H50  1  0.62077711  0.87903925  0.68549626  1  0.587698  0  0.326934  0.353488  0  0.911347  0
H  H51  1  0.37903901  0.12077794  0.31468815  1  0.588669  0  0.326968  0.353586  0  0.911271  0
H  H52  1  0.18549731  0.31468890  0.12077622  1  0.58711  0  0.326963  0.353542  0  0.911222  0
H  H53  1  0.81469168  0.68549801  0.87903530  1  0.587031  0  0.326908  0.353448  0  0.911311  0
H  H54  1  0.18549859  0.12077632  0.87903632  1  0.587675  0  0.326922  0.353475  0  0.911399  0
H  H55  1  0.81469045  0.87903830  0.12077580  1  0.588671  0  0.326935  0.353511  0  0.911339  0
H  H56  1  0.62077842  0.68549529  0.31468777  1  0.587058  0  0.326974  0.353598  0  0.911146  0
H  H57  1  0.37903777  0.31469010  0.68549678  1  0.587075  0  0.326928  0.353449  0  0.911277  0
C  C58  1  0.76164458  0.50319313  0.73454551  1  1.535089  0  0.236453  0.646677  0  4.087681  0
C  C59  1  0.00061850  0.73454689  0.50319138  1  1.539532  0  0.23649  0.646758  0  4.087712  0
C  C60  1  0.23454603  0.50061774  0.26164387  1  1.533303  0  0.236481  0.646733  0  4.087607  0
C  C61  1  0.00319229  0.26164463  0.50061779  1  1.543606  0  0.236483  0.646758  0  4.08762  0
C  C62  1  0.00061622  0.26164535  0.73454636  1  1.533339  0  0.236503  0.646812  0  4.087711  0
C  C63  1  0.76164456  0.50061631  0.50319278  1  1.543454  0  0.236536  0.646841  0  4.08772  0
C  C64  1  0.00319341  0.73454711  0.26164412  1  1.535128  0  0.236418  0.646667  0  4.087716  0
C  C65  1  0.23454691  0.50319331  0.50061590  1  1.539327  0  0.236438  0.6467  0  4.087703  0
C  C66  1  0.00319275  0.50061834  0.73454518  1  1.53936  0  0.236479  0.646754  0  4.087666  0
C  C67  1  0.23454602  0.26164427  0.50319192  1  1.535178  0  0.236452  0.646669  0  4.087685  0
C  C68  1  0.00061837  0.50319162  0.26164458  1  1.543591  0  0.236488  0.646748  0  4.08777  0
C  C69  1  0.76164430  0.73454606  0.50061765  1  1.533309  0  0.236443  0.646663  0  4.08766  0
C  C70  1  0.35126906  0.43565018  0.14766174  1  -0.009656  0  -0.082544  -0.142046  0  3.920812  0
C  C71  1  0.42568286  0.43437396  0.07439142  1  0.00681  0  -0.003221  0.100147  0  4.062432  0
C  C72  1  0.46460855  0.37000324  0.03576259  1  0.0406  0  -0.108427  -0.27235  0  3.96637  0
C  C73  1  0.35023526  0.56339353  0.14866060  1  -0.017841  0  -0.091773  -0.152526  0  3.986343  0
C  C74  1  0.42435309  0.56472534  0.07570739  1  -0.011167  0  -0.014913  -0.031665  0  4.046331  0
C  C75  1  0.46372080  0.62966530  0.03664320  1  0.45341  0  0.084195  0.273155  0  4.091166  0
C  C76  1  0.64766223  0.56541943  0.85126818  1  0.01899  0  -0.08246  -0.14185  0  3.920675  0
C  C77  1  0.57439011  0.56555177  0.92568329  1  -0.004929  0  -0.003228  0.100087  0  4.062515  0
C  C78  1  0.53576467  0.62962534  0.96460788  1  0.038737  0  -0.108431  -0.272365  0  3.966348  0
C  C79  1  0.64866073  0.43771230  0.85023425  1  -0.060094  0  -0.091748  -0.152487  0  3.986377  0
C  C80  1  0.57570759  0.43521545  0.92435231  1  0.032471  0  -0.014931  -0.031719  0  4.046474  0
C  C81  1  0.53664395  0.36997164  0.96371901  1  0.450797  0  0.084205  0.273148  0  4.091243  0
C  C82  1  0.31379104  0.49963846  0.18410785  1  -0.018186  0  -0.022042  -0.035177  0  4.014922  0
C  C83  1  0.46288584  0.49983862  0.03744389  1  -0.082483  0  0.000708  0.006063  0  3.933109  0
C  C84  1  0.68410912  0.50246362  0.81378889  1  -0.036933  0  -0.022041  -0.035205  0  4.014909  0
C  C85  1  0.53744541  0.49983213  0.96288387  1  0.000561  0  0.000653  0.00599  0  3.933262  0
C  C86  1  0.93565084  0.85126893  0.56541823  1  -0.003637  0  -0.082508  -0.141945  0  3.920752  0
C  C87  1  0.93437450  0.92568372  0.56555055  1  -0.019085  0  -0.003229  0.100141  0  4.062162  0
C  C88  1  0.87000252  0.96460918  0.62962433  1  0.062135  0  -0.108414  -0.27109  0  3.966243  0
C  C89  1  0.06339417  0.85023613  0.43771036  1  -0.076438  0  -0.091796  -0.152574  0  3.986414  0
C  C90  1  0.06472503  0.92435413  0.43521409  1  0.04267  0  -0.014878  -0.031557  0  4.046356  0
C  C91  1  0.12966522  0.96372217  0.36996973  1  0.424668  0  0.084161  0.273157  0  4.090926  0
C  C92  1  0.06541987  0.14766246  0.43565013  1  0.018534  0  -0.082497  -0.141898  0  3.920789  0
C  C93  1  0.06555152  0.07439169  0.43437523  1  -0.018564  0  -0.003214  0.100255  0  4.062202  0
C  C94  1  0.12962559  0.03576572  0.37000165  1  0.044691  0  -0.10844  -0.271275  0  3.966312  0
C  C95  1  0.93771100  0.14866135  0.56339288  1  0.002551  0  -0.091793  -0.152518  0  3.986485  0
C  C96  1  0.93521554  0.07570847  0.56472348  1  0.043838  0  -0.014874  -0.031681  0  4.046526  0
C  C97  1  0.86997084  0.03664386  0.62966490  1  0.404888  0  0.084172  0.273156  0  4.090875  0
C  C98  1  0.99963906  0.81379086  0.50246105  1  0.018126  0  -0.022025  -0.035201  0  4.014961  0
C  C99  1  0.99983907  0.96288565  0.49983145  1  -0.021926  0  0.000679  0.00598  0  3.933307  0
C  C100  1  0.00246275  0.18410905  0.49963823  1  -0.038961  0  -0.022033  -0.03522  0  4.014942  0
C  C101  1  0.99983247  0.03744551  0.49983821  1  0.045352  0  0.000713  0.006036  0  3.933439  0
C  C102  1  0.35126740  0.14766256  0.56541947  1  0.01897  0  -0.082486  -0.14187  0  3.920686  0
C  C103  1  0.42568329  0.07439118  0.56555091  1  -0.004896  0  -0.003207  0.100086  0  4.062421  0
C  C104  1  0.46460877  0.03576489  0.62962509  1  0.038741  0  -0.108444  -0.27237  0  3.966359  0
C  C105  1  0.35023527  0.14866150  0.43771132  1  -0.060443  0  -0.091755  -0.152512  0  3.986464  0
C  C106  1  0.42435381  0.07570910  0.43521385  1  0.032659  0  -0.014907  -0.031715  0  4.046431  0
C  C107  1  0.46372217  0.03664540  0.36996966  1  0.450758  0  0.084256  0.273233  0  4.091172  0
C  C108  1  0.64766252  0.85126948  0.43565001  1  -0.009623  0  -0.082513  -0.142011  0  3.92078  0
C  C109  1  0.57439282  0.92568391  0.43437324  1  0.00695  0  -0.003253  0.10014  0  4.06236  0
C  C110  1  0.53576491  0.96460986  0.37000196  1  0.04047  0  -0.108409  -0.272364  0  3.96625  0
C  C111  1  0.64866094  0.85023579  0.56339314  1  -0.017842  0  -0.091805  -0.152588  0  3.986448  0
C  C112  1  0.57570807  0.92435385  0.56472444  1  -0.011209  0  -0.014882  -0.031578  0  4.046262  0
C  C113  1  0.53664408  0.96372192  0.62966454  1  0.453411  0  0.084168  0.273039  0  4.091356  0
C  C114  1  0.31378943  0.18410872  0.50246371  1  -0.036897  0  -0.022038  -0.035191  0  4.014967  0
C  C115  1  0.46288468  0.03744551  0.49983136  1  0.000675  0  0.000665  0.006037  0  3.933162  0
C  C116  1  0.68410927  0.81379105  0.49963807  1  -0.018214  0  -0.022052  -0.035173  0  4.014998  0
C  C117  1  0.53744543  0.96288568  0.49983775  1  -0.082494  0  0.000709  0.006045  0  3.933028  0
C  C118  1  0.06541891  0.43564923  0.85126918  1  -0.003627  0  -0.08249  -0.141914  0  3.920703  0
C  C119  1  0.06555044  0.43437448  0.92568386  1  -0.019094  0  -0.003242  0.100212  0  4.062016  0
C  C120  1  0.12962497  0.37000108  0.96460934  1  0.062067  0  -0.108431  -0.271215  0  3.966184  0
C  C121  1  0.93771252  0.56339363  0.85023434  1  -0.07657  0  -0.091808  -0.152549  0  3.986438  0
C  C122  1  0.93521491  0.56472451  0.92435306  1  0.042863  0  -0.014937  -0.031694  0  4.046526  0
C  C123  1  0.86997247  0.62966542  0.96371982  1  0.424533  0  0.084184  0.273181  0  4.090912  0
C  C124  1  0.93565090  0.56541956  0.14766204  1  0.018463  0  -0.082499  -0.141926  0  3.920732  0
C  C125  1  0.93437462  0.56555165  0.07439088  1  -0.018518  0  -0.003216  0.100202  0  4.062155  0
C  C126  1  0.87000369  0.62962550  0.03576313  1  0.044889  0  -0.108456  -0.271187  0  3.966327  0
C  C127  1  0.06339383  0.43771064  0.14866093  1  0.002551  0  -0.091756  -0.152467  0  3.986459  0
C  C128  1  0.06472482  0.43521419  0.07570796  1  0.043809  0  -0.014927  -0.031741  0  4.0465  0
C  C129  1  0.12966467  0.36996963  0.03664472  1  0.404946  0  0.084176  0.273213  0  4.090881  0
C  C130  1  0.00246305  0.49963829  0.81379026  1  0.018391  0  -0.022015  -0.035191  0  4.014939  0
C  C131  1  0.99983193  0.49983866  0.96288458  1  -0.022149  0  0.000714  0.005989  0  3.933308  0
C  C132  1  0.99963894  0.50246267  0.18410909  1  -0.038902  0  -0.022049  -0.035216  0  4.014981  0
C  C133  1  0.99983835  0.49983178  0.03744513  1  0.045389  0  0.000683  0.006037  0  3.933328  0
C  C134  1  0.06541987  0.85126906  0.14766282  1  0.019125  0  -0.082495  -0.141921  0  3.920745  0
C  C135  1  0.06555157  0.92568462  0.07438953  1  -0.005026  0  -0.00328  0.100181  0  4.062133  0
C  C136  1  0.12962658  0.96460924  0.03576257  1  0.038813  0  -0.108404  -0.271344  0  3.966405  0
C  C137  1  0.93771212  0.85023601  0.14866064  1  -0.06074  0  -0.091732  -0.152387  0  3.986326  0
C  C138  1  0.93521528  0.92435379  0.07570769  1  0.032661  0  -0.014951  -0.031792  0  4.046498  0
C  C139  1  0.86997160  0.96372129  0.03664371  1  0.450771  0  0.084243  0.273292  0  4.091184  0
C  C140  1  0.93565047  0.14766301  0.85126878  1  -0.00958  0  -0.082519  -0.14199  0  3.920775  0
C  C141  1  0.93437473  0.07439211  0.92568279  1  0.006648  0  -0.003178  0.100212  0  4.062463  0
C  C142  1  0.87000262  0.03576465  0.96460854  1  0.040694  0  -0.108434  -0.27242  0  3.966354  0
C  C143  1  0.06339327  0.14866170  0.85023485  1  -0.017774  0  -0.091734  -0.152456  0  3.98647  0
C  C144  1  0.06472592  0.07570839  0.92435205  1  -0.011129  0  -0.014941  -0.031755  0  4.046566  0
C  C145  1  0.12966640  0.03664247  0.96372036  1  0.453026  0  0.084164  0.273206  0  4.090935  0
C  C146  1  0.00246334  0.81379109  0.18410917  1  -0.03656  0  -0.021986  -0.035143  0  4.014938  0
C  C147  1  0.99983299  0.96288501  0.03744413  1  -0.077102  0  0.000709  0.005994  0  3.933365  0
C  C148  1  0.99963836  0.18410977  0.81379046  1  -0.018213  0  -0.022068  -0.035242  0  4.015054  0
C  C149  1  0.99983898  0.03744448  0.96288439  1  -0.004748  0  0.000698  0.006054  0  3.93324  0
C  C150  1  0.35126965  0.56541859  0.43564882  1  -0.003592  0  -0.082529  -0.142008  0  3.920828  0
C  C151  1  0.42568490  0.56555005  0.43437481  1  -0.019135  0  -0.003244  0.100193  0  4.06213  0
C  C152  1  0.46460953  0.62962410  0.37000138  1  0.062018  0  -0.10842  -0.271149  0  3.966214  0
C  C153  1  0.35023584  0.43771116  0.56339245  1  -0.076698  0  -0.091768  -0.152558  0  3.986495  0
C  C154  1  0.42435422  0.43521392  0.56472455  1  0.04254  0  -0.014897  -0.0317  0  4.046529  0
C  C155  1  0.46372096  0.36997051  0.62966453  1  0.424758  0  0.084199  0.273262  0  4.090816  0
C  C156  1  0.64766318  0.43564940  0.56541889  1  0.018501  0  -0.082505  -0.141933  0  3.920757  0
C  C157  1  0.57439141  0.43437483  0.56554993  1  -0.018518  0  -0.003224  0.100201  0  4.062114  0
C  C158  1  0.53576546  0.37000203  0.62962456  1  0.044563  0  -0.108431  -0.271192  0  3.966188  0
C  C159  1  0.64866255  0.56339181  0.43771015  1  0.002504  0  -0.091729  -0.152474  0  3.986537  0
C  C160  1  0.57570912  0.56472322  0.43521442  1  0.043678  0  -0.014939  -0.03182  0  4.046584  0
C  C161  1  0.53664473  0.62966315  0.36996963  1  0.405197  0  0.084227  0.273254  0  4.09086  0
C  C162  1  0.31379126  0.50246262  0.49963752  1  0.018385  0  -0.02202  -0.035112  0  4.014932  0
C  C163  1  0.46288472  0.49983100  0.49983895  1  0.054487  0  0.000707  0.006026  0  3.933312  0
C  C164  1  0.68410960  0.49963807  0.50246258  1  -0.038906  0  -0.022046  -0.035234  0  4.015123  0
C  C165  1  0.53744530  0.49983851  0.49983174  1  -0.031038  0  0.000698  0.006075  0  3.933305  0
O  O166  1  0.79217529  0.44356113  0.70363456  1  -1.182912  0  -0.356616  -0.621059  0  2.281242  0
O  O167  1  0.06063148  0.70363464  0.44355893  1  -1.187618  0  -0.356637  -0.621118  0  2.281214  0
O  O168  1  0.20363495  0.56063086  0.29217535  1  -1.181067  0  -0.356625  -0.621082  0  2.281185  0
O  O169  1  0.94355883  0.29217607  0.56063047  1  -1.190444  0  -0.35663  -0.621094  0  2.281188  0
O  O170  1  0.06063090  0.29217625  0.70363427  1  -1.181097  0  -0.356666  -0.621171  0  2.281122  0
O  O171  1  0.79217700  0.56062946  0.44355885  1  -1.190389  0  -0.356646  -0.621131  0  2.281137  0
O  O172  1  0.94356022  0.70363528  0.29217586  1  -1.182869  0  -0.356599  -0.621044  0  2.281165  0
O  O173  1  0.20363483  0.44355992  0.56062973  1  -1.187572  0  -0.356631  -0.621113  0  2.281195  0
O  O174  1  0.94356050  0.56063066  0.70363426  1  -1.187598  0  -0.356653  -0.621118  0  2.281268  0
O  O175  1  0.20363524  0.29217601  0.44355934  1  -1.182929  0  -0.356615  -0.621054  0  2.281249  0
O  O176  1  0.06062995  0.44355877  0.29217627  1  -1.190437  0  -0.35664  -0.621113  0  2.281241  0
O  O177  1  0.79217613  0.70363537  0.56063004  1  -1.181074  0  -0.356631  -0.621064  0  2.281213  0
O  O178  1  0.20368686  0.29281238  0.56274388  1  -1.179649  0  -0.359972  -0.625355  0  2.284797  0
O  O179  1  0.94075870  0.56274299  0.29281200  1  -1.184658  0  -0.359942  -0.625339  0  2.284955  0
O  O180  1  0.79281198  0.70368647  0.44075846  1  -1.180775  0  -0.359946  -0.625338  0  2.284828  0
O  O181  1  0.06274377  0.44075846  0.70368598  1  -1.181546  0  -0.359931  -0.625352  0  2.284868  0
O  O182  1  0.94075814  0.29281153  0.70368805  1  -1.180815  0  -0.359961  -0.62536  0  2.285005  0
O  O183  1  0.20368763  0.56274394  0.44075776  1  -1.181496  0  -0.359928  -0.625359  0  2.284904  0
O  O184  1  0.06274342  0.70368828  0.29281188  1  -1.179675  0  -0.35998  -0.625379  0  2.284925  0
O  O185  1  0.79281232  0.44075781  0.56274244  1  -1.18462  0  -0.359966  -0.625379  0  2.284976  0
O  O186  1  0.06274342  0.29281216  0.44075799  1  -1.184684  0  -0.359951  -0.625375  0  2.284893  0
O  O187  1  0.79281278  0.56274395  0.70368733  1  -1.179628  0  -0.359962  -0.625339  0  2.284802  0
O  O188  1  0.94075905  0.70368750  0.56274243  1  -1.181576  0  -0.359993  -0.625391  0  2.284869  0
O  O189  1  0.20368710  0.44075773  0.29281178  1  -1.180775  0  -0.359969  -0.625377  0  2.28482  0
O  O190  1  0.94765374  0.44765329  0.44765287  1  -1.221115  0  -0.694861  -1.065624  0  2.360845  0
O  O191  1  0.15704119  0.44765319  0.44765306  1  -1.247684  0  -0.694931  -1.065676  0  2.361174  0
O  O192  1  0.94765373  0.65704079  0.44765313  1  -1.247708  0  -0.694875  -1.065626  0  2.361062  0
O  O193  1  0.94765396  0.44765342  0.65704040  1  -1.248371  0  -0.694856  -1.065618  0  2.361108  0
O  O194  1  0.03858516  0.53858458  0.53858432  1  -1.201051  0  -0.791766  -1.147333  0  2.127127  0
O  O195  1  0.88424683  0.53858515  0.53858407  1  -1.194996  0  -0.791714  -1.147318  0  2.127102  0
O  O196  1  0.03858432  0.53858486  0.38424656  1  -1.195008  0  -0.791718  -1.147295  0  2.127013  0
O  O197  1  0.03858502  0.38424665  0.53858481  1  -1.195011  0  -0.791717  -1.14725  0  2.126997  0
O  O198  1  0.57038369  0.30662474  0.92989446  1  -1.103449  0  -0.354488  -0.431858  0  2.24887  0
O  O199  1  0.42989694  0.69309636  0.07038398  1  -1.104239  0  -0.354464  -0.431778  0  2.248981  0
O  O200  1  0.80662416  0.07038485  0.69309554  1  -1.105789  0  -0.35448  -0.431824  0  2.248763  0
O  O201  1  0.19309632  0.92989836  0.30662187  1  -1.107257  0  -0.354448  -0.431741  0  2.24879  0
O  O202  1  0.57038477  0.92989761  0.69309551  1  -1.104246  0  -0.354419  -0.431695  0  2.249032  0
O  O203  1  0.42989770  0.07038594  0.30662250  1  -1.103446  0  -0.354556  -0.431917  0  2.248961  0
O  O204  1  0.19309560  0.30662288  0.07038482  1  -1.105818  0  -0.354471  -0.431773  0  2.248821  0
O  O205  1  0.80662538  0.69309812  0.92989430  1  -1.107136  0  -0.354399  -0.431658  0  2.248847  0
O  O206  1  0.19309860  0.07038368  0.92989361  1  -1.10391  0  -0.354443  -0.431712  0  2.248927  0
O  O207  1  0.80662457  0.92989696  0.07038404  1  -1.103415  0  -0.354491  -0.431848  0  2.249023  0
O  O208  1  0.57038680  0.69309418  0.30662204  1  -1.105741  0  -0.354526  -0.431861  0  2.248778  0
O  O209  1  0.42989672  0.30662349  0.69309593  1  -1.107188  0  -0.354432  -0.431685  0  2.248838  0
