# generated using pymatgen
data_UH22C21(NO3)2
_symmetry_space_group_name_H-M   'P 1'
_cell_length_a   8.87365401
_cell_length_b   10.17517478
_cell_length_c   12.31299965
_cell_angle_alpha   74.62939369
_cell_angle_beta   69.65604886
_cell_angle_gamma   74.83116924
_symmetry_Int_Tables_number   1
_chemical_formula_structural   UH22C21(NO3)2
_chemical_formula_sum   'U2 H44 C42 N4 O12'
_cell_volume   987.29343298
_cell_formula_units_Z   2
loop_
 _symmetry_equiv_pos_site_id
 _symmetry_equiv_pos_as_xyz
  1  'x, y, z'
loop_
 _atom_site_type_symbol
 _atom_site_label
 _atom_site_symmetry_multiplicity
 _atom_site_fract_x
 _atom_site_fract_y
 _atom_site_fract_z
 _atom_site_occupancy
 _atom_site_hle17_bader_spin_density
 _atom_site_hle17_ddec_charge
 _atom_site_hle17_ddec_spin_density
 _atom_site_hle17_ddec_sum_bond_order
 _atom_site_hle17_magmom
 _atom_site_hse06_10hf_bader_spin_density
 _atom_site_hse06_10hf_ddec_charge
 _atom_site_hse06_10hf_ddec_spin_density
 _atom_site_hse06_10hf_ddec_sum_bond_order
 _atom_site_hse06_10hf_magmom
 _atom_site_hse06_bader_spin_density
 _atom_site_hse06_ddec_charge
 _atom_site_hse06_ddec_spin_density
 _atom_site_hse06_ddec_sum_bond_order
 _atom_site_hse06_magmom
 _atom_site_pbe_bader_spin_density
 _atom_site_pbe_cm5_charge
 _atom_site_pbe_ddec_charge
 _atom_site_pbe_ddec_spin_density
 _atom_site_pbe_ddec_sum_bond_order
 _atom_site_pbe_magmom
U  U0  1  0.23360259  0.11970228  0.66679253  1  0  2.292655  0  4.191722  0  0  2.32204  0  4.863196  0  0  2.430203  0  4.832538  0  0  2.142226  2.249114  0  4.883336  0
U  U1  1  0.76639287  0.88029950  0.33320872  1  0  2.2928  0  4.191384  0  0  2.321917  0  4.862984  0  0  2.430093  0  4.832295  0  0  2.142126  2.24895  0  4.883137  0
H  H2  1  0.07185209  0.06231454  0.35160440  1  0  0.135772  0  0.939382  0  0  0.149421  0  0.998564  0  0  0.152931  0  0.996546  0  0  0.115029  0.146826  0  1.000082  0
H  H3  1  0.92814720  0.93768618  0.64839531  1  0  0.135787  0  0.939422  0  0  0.149453  0  0.998613  0  0  0.152964  0  0.996591  0  0  0.115037  0.146856  0  1.000131  0
H  H4  1  0.27038919  0.96391498  0.32910043  1  0  0.106435  0  0.933064  0  0  0.122185  0  0.990462  0  0  0.123434  0  0.990902  0  0  0.10566  0.121414  0  0.99003  0
H  H5  1  0.72960966  0.03608783  0.67090219  1  0  0.106416  0  0.933062  0  0  0.122186  0  0.990476  0  0  0.123432  0  0.99092  0  0  0.105642  0.121414  0  0.990045  0
H  H6  1  0.27331393  0.12675539  0.14846130  1  0  0.052278  0  0.935414  0  0  0.072662  0  0.996865  0  0  0.072563  0  0.998314  0  0  0.08626  0.072644  0  0.99606  0
H  H7  1  0.72668799  0.87324429  0.85153880  1  0  0.052251  0  0.935365  0  0  0.072643  0  0.996834  0  0  0.072544  0  0.99828  0  0  0.086241  0.072623  0  0.996033  0
H  H8  1  0.38267122  0.18631676  0.21539014  1  0  0.057306  0  0.93372  0  0  0.077502  0  0.994167  0  0  0.078024  0  0.994537  0  0  0.089118  0.077153  0  0.993826  0
H  H9  1  0.61732904  0.81368500  0.78461072  1  0  0.057279  0  0.933733  0  0  0.077473  0  0.994198  0  0  0.077991  0  0.994574  0  0  0.089111  0.077124  0  0.993856  0
H  H10  1  0.02046102  0.29653748  0.22992957  1  0  0.071559  0  0.944055  0  0  0.091252  0  1.004579  0  0  0.092202  0  1.005454  0  0  0.088218  0.090339  0  1.003974  0
H  H11  1  0.97953947  0.70346323  0.77006903  1  0  0.071545  0  0.944069  0  0  0.091228  0  1.0046  0  0  0.092177  0  1.005473  0  0  0.088216  0.090318  0  1.003993  0
H  H12  1  0.13621151  0.36473934  0.28523965  1  0  0.060978  0  0.946695  0  0  0.080382  0  1.008657  0  0  0.081161  0  1.009299  0  0  0.083672  0.079619  0  1.008606  0
H  H13  1  0.86378898  0.63526137  0.71475895  1  0  0.060986  0  0.946702  0  0  0.080388  0  1.008655  0  0  0.081165  0  1.009297  0  0  0.083681  0.079625  0  1.008607  0
H  H14  1  0.32981761  0.41309158  0.07472549  1  0  0.039193  0  0.956973  0  0  0.057276  0  1.027376  0  0  0.057402  0  1.028155  0  0  0.077177  0.057621  0  1.025777  0
H  H15  1  0.67018310  0.58690809  0.92527329  1  0  0.039186  0  0.956983  0  0  0.05727  0  1.027385  0  0  0.057415  0  1.028143  0  0  0.077169  0.057617  0  1.025787  0
H  H16  1  0.19661394  0.36119454  0.02452620  1  0  0.055468  0  0.94355  0  0  0.075278  0  1.005751  0  0  0.075548  0  1.007379  0  0  0.08318  0.075029  0  1.004716  0
H  H17  1  0.80338580  0.63880410  0.97547305  1  0  0.05547  0  0.943542  0  0  0.075281  0  1.005745  0  0  0.075551  0  1.007376  0  0  0.083181  0.075031  0  1.004713  0
H  H18  1  0.09612224  0.59750508  0.16281253  1  0  0.066719  0  0.946954  0  0  0.086678  0  1.007897  0  0  0.087395  0  1.007864  0  0  0.089335  0.085847  0  1.008455  0
H  H19  1  0.90387946  0.40249563  0.83718658  1  0  0.066709  0  0.946994  0  0  0.086657  0  1.007938  0  0  0.087373  0  1.007905  0  0  0.089328  0.085822  0  1.008495  0
H  H20  1  0.97056961  0.55287841  0.10113934  1  0  0.062281  0  0.942772  0  0  0.082371  0  1.004506  0  0  0.082971  0  1.005445  0  0  0.087226  0.081715  0  1.003945  0
H  H21  1  0.02943111  0.44712126  0.89885944  1  0  0.062293  0  0.942753  0  0  0.082374  0  1.004482  0  0  0.082976  0  1.00542  0  0  0.087228  0.081713  0  1.003922  0
H  H22  1  0.29817192  0.64230881  0.95269447  1  0  0.045104  0  0.954417  0  0  0.0641  0  1.019611  0  0  0.06424  0  1.020657  0  0  0.081154  0.064448  0  1.017939  0
H  H23  1  0.70183022  0.35768982  0.04730418  1  0  0.045093  0  0.954494  0  0  0.064112  0  1.019645  0  0  0.06425  0  1.020695  0  0  0.081158  0.064454  0  1.017978  0
H  H24  1  0.14951096  0.62231360  0.89803764  1  0  0.066073  0  0.946955  0  0  0.084297  0  1.010126  0  0  0.085058  0  1.011385  0  0  0.088692  0.083726  0  1.00938  0
H  H25  1  0.85048975  0.37768608  0.10196114  1  0  0.066115  0  0.946935  0  0  0.084313  0  1.010129  0  0  0.085074  0  1.011387  0  0  0.088682  0.083736  0  1.009385  0
H  H26  1  0.95042925  0.81660703  0.99088416  1  0  0.116467  0  0.914189  0  0  0.132376  0  0.969069  0  0  0.134863  0  0.967835  0  0  0.108186  0.130621  0  0.970029  0
H  H27  1  0.04957169  0.18339162  0.00911722  1  0  0.11649  0  0.914122  0  0  0.132392  0  0.96903  0  0  0.134879  0  0.967796  0  0  0.108193  0.130635  0  0.969986  0
H  H28  1  0.09305903  0.83329448  0.05379726  1  0  0.109391  0  0.936375  0  0  0.124005  0  0.993743  0  0  0.12578  0  0.993127  0  0  0.10467  0.12269  0  0.994463  0
H  H29  1  0.90694454  0.16670311  0.94620288  1  0  0.109394  0  0.936345  0  0  0.124018  0  0.993721  0  0  0.125792  0  0.993105  0  0  0.104686  0.122701  0  0.994437  0
H  H30  1  0.44671338  0.03435769  0.86799717  1  0  0.080713  0  0.969336  0  0  0.087206  0  1.038701  0  0  0.090297  0  1.035147  0  0  0.122757  0.08504  0  1.041014  0
H  H31  1  0.55328493  0.96564200  0.13200302  1  0  0.080731  0  0.969307  0  0  0.087228  0  1.038657  0  0  0.090318  0  1.035103  0  0  0.122764  0.085063  0  1.040973  0
H  H32  1  0.63189515  0.11032045  0.94444905  1  0  0.111261  0  0.947877  0  0  0.122681  0  1.004424  0  0  0.126063  0  1.003543  0  0  0.112452  0.120206  0  1.005293  0
H  H33  1  0.36810436  0.88967923  0.05555084  1  0  0.111257  0  0.947876  0  0  0.122679  0  1.00442  0  0  0.126058  0  1.003546  0  0  0.112448  0.120206  0  1.005285  0
H  H34  1  0.65928419  0.36042575  0.88687926  1  0  0.09888  0  0.971667  0  0  0.112493  0  1.03066  0  0  0.114509  0  1.029735  0  0  0.111741  0.110997  0  1.031419  0
H  H35  1  0.34071532  0.63957393  0.11312063  1  0  0.098904  0  0.971608  0  0  0.112493  0  1.030626  0  0  0.114508  0  1.029704  0  0  0.111764  0.110998  0  1.031382  0
H  H36  1  0.43917501  0.75413498  0.63441022  1  0  0.123009  0  0.933433  0  0  0.13214  0  0.995323  0  0  0.135625  0  0.992742  0  0  0.125451  0.129398  0  0.997346  0
H  H37  1  0.56082593  0.24586366  0.36559035  1  0  0.122995  0  0.933413  0  0  0.132123  0  0.995312  0  0  0.135609  0  0.99273  0  0  0.12544  0.129384  0  0.997331  0
H  H38  1  0.58694688  0.59809651  0.77147172  1  0  0.101249  0  0.967486  0  0  0.113946  0  1.028487  0  0  0.116273  0  1.028295  0  0  0.10814  0.11244  0  1.028333  0
H  H39  1  0.41305165  0.40190214  0.22852945  1  0  0.101263  0  0.967463  0  0  0.113959  0  1.028476  0  0  0.116288  0  1.028282  0  0  0.10814  0.112455  0  1.028317  0
H  H40  1  0.25924907  0.78741260  0.50904872  1  0  0.122394  0  0.951172  0  0  0.134327  0  1.007129  0  0  0.138072  0  1.004382  0  0  0.120974  0.131639  0  1.008911  0
H  H41  1  0.74075142  0.21258812  0.49095069  1  0  0.122346  0  0.951129  0  0  0.13428  0  1.007104  0  0  0.138025  0  1.004357  0  0  0.120945  0.131591  0  1.008882  0
H  H42  1  0.12480026  0.67617401  0.41528279  1  0  0.118569  0  0.962754  0  0  0.129871  0  1.020146  0  0  0.133282  0  1.018766  0  0  0.113939  0.12713  0  1.021838  0
H  H43  1  0.87519903  0.32382671  0.58471774  1  0  0.11854  0  0.962784  0  0  0.129843  0  1.020172  0  0  0.133254  0  1.018791  0  0  0.113925  0.127105  0  1.021861  0
H  H44  1  0.13838814  0.41948399  0.47245593  1  0  0.07859  0  0.973257  0  0  0.085454  0  1.041916  0  0  0.088277  0  1.038798  0  0  0.121816  0.083328  0  1.04401  0
H  H45  1  0.86160852  0.58051778  0.52754584  1  0  0.07857  0  0.97325  0  0  0.085495  0  1.041841  0  0  0.088318  0  1.038723  0  0  0.121843  0.083371  0  1.043933  0
C  C46  1  0.20737157  0.09522782  0.44883942  1  0  0.707238  0  3.777278  0  0  0.667563  0  4.083491  0  0  0.704139  0  4.075613  0  0  0.212432  0.643021  0  4.087476  0
C  C47  1  0.79262487  0.90477500  0.55116218  1  0  0.707286  0  3.77724  0  0  0.667676  0  4.083401  0  0  0.704251  0  4.075525  0  0  0.212483  0.643134  0  4.087373  0
C  C48  1  0.19966062  0.06923963  0.33655259  1  0  -0.274762  0  3.664487  0  0  -0.306264  0  3.902979  0  0  -0.312092  0  3.909699  0  0  -0.159903  -0.302053  0  3.897914  0
C  C49  1  0.80033822  0.93076317  0.66344840  1  0  -0.274761  0  3.664433  0  0  -0.306343  0  3.90303  0  0  -0.312173  0  3.909753  0  0  -0.159882  -0.302122  0  3.897951  0
C  C50  1  0.25954021  0.17264499  0.22386474  1  0  -0.06548  0  3.698775  0  0  -0.108885  0  3.962403  0  0  -0.108282  0  3.976344  0  0  -0.162912  -0.10922  0  3.952739  0
C  C51  1  0.74046028  0.82735573  0.77613630  1  0  -0.065369  0  3.698602  0  0  -0.108802  0  3.962312  0  0  -0.108197  0  3.976247  0  0  -0.162884  -0.109139  0  3.952652  0
C  C52  1  0.14458149  0.31334789  0.21446247  1  0  -0.121034  0  3.687839  0  0  -0.159562  0  3.947815  0  0  -0.161079  0  3.962152  0  0  -0.173689  -0.158394  0  3.938098  0
C  C53  1  0.85541779  0.68665283  0.78553724  1  0  -0.121046  0  3.687864  0  0  -0.159535  0  3.947812  0  0  -0.161048  0  3.962144  0  0  -0.173704  -0.158374  0  3.938103  0
C  C54  1  0.19972740  0.40792472  0.09484312  1  0  -0.104875  0  3.723672  0  0  -0.146835  0  3.99204  0  0  -0.147855  0  4.007904  0  0  -0.170341  -0.146202  0  3.981193  0
C  C55  1  0.80027211  0.59207496  0.90515596  1  0  -0.10487  0  3.723673  0  0  -0.146842  0  3.99202  0  0  -0.147875  0  4.007882  0  0  -0.170321  -0.14621  0  3.981177  0
C  C56  1  0.09933916  0.55491869  0.08826927  1  0  -0.118904  0  3.693529  0  0  -0.15869  0  3.959084  0  0  -0.159614  0  3.973336  0  0  -0.16854  -0.15783  0  3.949478  0
C  C57  1  0.90066275  0.44508098  0.91172921  1  0  -0.118923  0  3.693527  0  0  -0.158673  0  3.959054  0  0  -0.159599  0  3.973312  0  0  -0.168559  -0.157805  0  3.949435  0
C  C58  1  0.16495706  0.65242549  0.97240040  1  0  -0.078937  0  3.696711  0  0  -0.121558  0  3.957805  0  0  -0.122221  0  3.972738  0  0  -0.163902  -0.121174  0  3.947583  0
C  C59  1  0.83504388  0.34757315  0.02759936  1  0  -0.079056  0  3.696785  0  0  -0.121666  0  3.957881  0  0  -0.122331  0  3.972814  0  0  -0.163941  -0.121274  0  3.947648  0
C  C60  1  0.08233729  0.80363740  0.97775835  1  0  -0.261936  0  3.66795  0  0  -0.293399  0  3.90727  0  0  -0.298293  0  3.913505  0  0  -0.160214  -0.290195  0  3.903227  0
C  C61  1  0.91766485  0.19636123  0.02224192  1  0  -0.261859  0  3.667819  0  0  -0.293371  0  3.90721  0  0  -0.298266  0  3.913446  0  0  -0.160209  -0.290164  0  3.90315  0
C  C62  1  0.14939278  0.90421442  0.86795267  1  0  0.686457  0  3.816814  0  0  0.652845  0  4.116059  0  0  0.688805  0  4.108841  0  0  0.205353  0.62847  0  4.119808  0
C  C63  1  0.85060815  0.09578422  0.13204628  1  0  0.686455  0  3.816804  0  0  0.652863  0  4.116046  0  0  0.688825  0  4.108826  0  0  0.205382  0.628488  0  4.119794  0
C  C64  1  0.46448963  0.14130644  0.84340765  1  0  0.148951  0  3.704628  0  0  0.120947  0  3.96699  0  0  0.131072  0  3.981456  0  0  0.063854  0.114437  0  3.956938  0
C  C65  1  0.53550988  0.85869324  0.15659224  1  0  0.148872  0  3.704612  0  0  0.120864  0  3.966975  0  0  0.13099  0  3.981441  0  0  0.063824  0.114352  0  3.956928  0
C  C66  1  0.56629406  0.18495429  0.88687885  1  0  -0.117991  0  3.72314  0  0  -0.129066  0  3.971174  0  0  -0.136344  0  3.991102  0  0  -0.078595  -0.124604  0  3.958176  0
C  C67  1  0.43370567  0.81504435  0.11312121  1  0  -0.117975  0  3.723073  0  0  -0.129043  0  3.971099  0  0  -0.136323  0  3.991026  0  0  -0.078593  -0.124581  0  3.958099  0
C  C68  1  0.58174215  0.32258848  0.85491141  1  0  -0.034998  0  3.680184  0  0  -0.058901  0  3.922019  0  0  -0.055357  0  3.939161  0  0  -0.057093  -0.061092  0  3.910643  0
C  C69  1  0.41825736  0.67741120  0.14508848  1  0  -0.035014  0  3.680093  0  0  -0.058894  0  3.921943  0  0  -0.055351  0  3.939084  0  0  -0.057092  -0.061083  0  3.910564  0
C  C70  1  0.49851940  0.41543153  0.77780589  1  0  0.024661  0  3.802973  0  0  0.040896  0  4.031389  0  0  0.038273  0  4.056503  0  0  0.001199  0.042591  0  4.014611  0
C  C71  1  0.50147891  0.58456816  0.22219511  1  0  0.024667  0  3.802993  0  0  0.040889  0  4.031432  0  0  0.038272  0  4.056534  0  0  0.001196  0.042583  0  4.014655  0
C  C72  1  0.40300778  0.36054004  0.73484961  1  0  0.130849  0  3.771204  0  0  0.128497  0  4.015607  0  0  0.133595  0  4.036752  0  0  0.123175  0.12496  0  4.001539  0
C  C73  1  0.59699031  0.63946068  0.26515041  1  0  0.130791  0  3.77125  0  0  0.128436  0  4.015671  0  0  0.133533  0  4.036815  0  0  0.12315  0.124901  0  4.001605  0
C  C74  1  0.32833171  0.44850557  0.64787494  1  0  0.131548  0  3.764895  0  0  0.127493  0  4.010329  0  0  0.132719  0  4.032001  0  0  0.1223  0.123651  0  3.996303  0
C  C75  1  0.67166780  0.55149411  0.35212495  1  0  0.131556  0  3.764869  0  0  0.127494  0  4.010301  0  0  0.132719  0  4.031975  0  0  0.122299  0.123654  0  3.996276  0
C  C76  1  0.33797517  0.59173313  0.61507349  1  0  0.030575  0  3.762777  0  0  0.047384  0  3.993943  0  0  0.044646  0  4.016903  0  0  0.006419  0.048815  0  3.978199  0
C  C77  1  0.66202555  0.40826654  0.38492610  1  0  0.030541  0  3.762796  0  0  0.047372  0  3.993949  0  0  0.044635  0  4.016907  0  0  0.006438  0.0488  0  3.978208  0
C  C78  1  0.43018681  0.64482457  0.66309401  1  0  -0.062697  0  3.68989  0  0  -0.090465  0  3.949783  0  0  -0.090413  0  3.968567  0  0  -0.064104  -0.089604  0  3.936137  0
C  C79  1  0.56981390  0.35517510  0.33690558  1  0  -0.062699  0  3.689931  0  0  -0.090476  0  3.949834  0  0  -0.090427  0  3.968623  0  0  -0.06413  -0.089619  0  3.936189  0
C  C80  1  0.51051761  0.55880457  0.73946017  1  0  -0.110205  0  3.743057  0  0  -0.132895  0  3.998617  0  0  -0.13722  0  4.021333  0  0  -0.083258  -0.130103  0  3.982762  0
C  C81  1  0.48948332  0.44119407  0.26054041  1  0  -0.110231  0  3.743063  0  0  -0.132915  0  3.998636  0  0  -0.137241  0  4.021349  0  0  -0.083258  -0.130123  0  3.98278  0
C  C82  1  0.25977173  0.67605776  0.53148329  1  0  -0.023696  0  3.62823  0  0  -0.049304  0  3.873395  0  0  -0.045412  0  3.888718  0  0  -0.049658  -0.050913  0  3.861725  0
C  C83  1  0.74022876  0.32394296  0.46851693  1  0  -0.023566  0  3.628172  0  0  -0.04918  0  3.87332  0  0  -0.045289  0  3.888642  0  0  -0.049619  -0.05079  0  3.861647  0
C  C84  1  0.18465035  0.61539109  0.48143850  1  0  -0.120274  0  3.709844  0  0  -0.132249  0  3.959362  0  0  -0.139861  0  3.979749  0  0  -0.077376  -0.127077  0  3.944859  0
C  C85  1  0.81534894  0.38460963  0.51856203  1  0  -0.120315  0  3.709904  0  0  -0.132276  0  3.95942  0  0  -0.139888  0  3.979807  0  0  -0.077385  -0.127107  0  3.944916  0
C  C86  1  0.18869682  0.47147972  0.51487318  1  0  0.150795  0  3.704517  0  0  0.123935  0  3.966229  0  0  0.134387  0  3.981531  0  0  0.063403  0.116788  0  3.955157  0
C  C87  1  0.81130126  0.52852101  0.48512765  1  0  0.150806  0  3.704452  0  0  0.123892  0  3.966186  0  0  0.134345  0  3.981489  0  0  0.063384  0.116744  0  3.955114  0
N  N88  1  0.38412668  0.22595168  0.77000699  1  0  -0.384037  0  3.224802  0  0  -0.356438  0  3.512146  0  0  -0.37742  0  3.535053  0  0  -0.342286  -0.342418  0  3.496406  0
N  N89  1  0.61587283  0.77404800  0.22999290  1  0  -0.383934  0  3.224768  0  0  -0.356316  0  3.512098  0  0  -0.3773  0  3.535008  0  0  -0.342247  -0.342299  0  3.496373  0
N  N90  1  0.25626951  0.38948753  0.59651212  1  0  -0.394549  0  3.225073  0  0  -0.366196  0  3.513107  0  0  -0.388589  0  3.537771  0  0  -0.343507  -0.35113  0  3.496128  0
N  N91  1  0.74372858  0.61051319  0.40348871  1  0  -0.39452  0  3.225013  0  0  -0.366155  0  3.513071  0  0  -0.388551  0  3.537737  0  0  -0.34349  -0.351087  0  3.496091  0
O  O92  1  0.02098070  0.20387039  0.71722882  1  0  -0.715  0  1.59858  0  0  -0.721066  0  1.895313  0  0  -0.742178  0  1.884155  0  0  -0.768756  -0.708123  0  1.903927  0
O  O93  1  0.97902429  0.79612616  0.28277120  1  0  -0.715037  0  1.598224  0  0  -0.721035  0  1.894953  0  0  -0.742147  0  1.883786  0  0  -0.76865  -0.70808  0  1.90358  0
O  O94  1  0.44554747  0.03668933  0.61945921  1  0  -0.674379  0  1.631554  0  0  -0.681743  0  1.945223  0  0  -0.702974  0  1.934432  0  0  -0.751157  -0.668867  0  1.953004  0
O  O95  1  0.55445609  0.96330825  0.38053769  1  0  -0.674419  0  1.631673  0  0  -0.681682  0  1.945349  0  0  -0.702927  0  1.93459  0  0  -0.751203  -0.668782  0  1.953122  0
O  O96  1  0.24886747  0.20365555  0.45561253  1  0  -0.631969  0  1.980551  0  0  -0.610846  0  2.245053  0  0  -0.644819  0  2.243333  0  0  -0.341952  -0.586999  0  2.245025  0
O  O97  1  0.75113017  0.79634726  0.54438957  1  0  -0.632004  0  1.98062  0  0  -0.610869  0  2.245087  0  0  -0.644845  0  2.243369  0  0  -0.341939  -0.587017  0  2.245054  0
O  O98  1  0.16998859  0.00451381  0.54383269  1  0  -0.623529  0  2.001596  0  0  -0.601961  0  2.261562  0  0  -0.634899  0  2.257537  0  0  -0.352083  -0.578874  0  2.263073  0
O  O99  1  0.83000763  0.99549004  0.45616873  1  0  -0.623596  0  2.001547  0  0  -0.602  0  2.261451  0  0  -0.634937  0  2.257425  0  0  -0.352093  -0.578906  0  2.262952  0
O  O100  1  0.14668312  0.89465390  0.76741129  1  0  -0.606904  0  1.956207  0  0  -0.583241  0  2.205502  0  0  -0.614932  0  2.202775  0  0  -0.339347  -0.56118  0  2.206232  0
O  O101  1  0.85331879  0.10534578  0.23258880  1  0  -0.606933  0  1.956182  0  0  -0.58326  0  2.205481  0  0  -0.614951  0  2.202752  0  0  -0.339357  -0.561191  0  2.206207  0
O  O102  1  0.20860767  0.00393780  0.87380383  1  0  -0.657245  0  2.00268  0  0  -0.639943  0  2.26756  0  0  -0.673953  0  2.264892  0  0  -0.35654  -0.615672  0  2.267909  0
O  O103  1  0.79139447  0.99606083  0.12619644  1  0  -0.657282  0  2.002716  0  0  -0.639951  0  2.26759  0  0  -0.673963  0  2.264919  0  0  -0.356542  -0.615686  0  2.267952  0
