# generated using pymatgen
data_AlH9C14N2O5
_symmetry_space_group_name_H-M   'P 1'
_cell_length_a   6.69492079
_cell_length_b   17.01001910
_cell_length_c   17.00999225
_cell_angle_alpha   91.76531092
_cell_angle_beta   97.86689378
_cell_angle_gamma   97.86708743
_symmetry_Int_Tables_number   1
_chemical_formula_structural   AlH9C14N2O5
_chemical_formula_sum   'Al2 H18 C28 N4 O10'
_cell_volume   1898.39566109
_cell_formula_units_Z   2
loop_
 _symmetry_equiv_pos_site_id
 _symmetry_equiv_pos_as_xyz
  1  'x, y, z'
loop_
 _atom_site_type_symbol
 _atom_site_label
 _atom_site_symmetry_multiplicity
 _atom_site_fract_x
 _atom_site_fract_y
 _atom_site_fract_z
 _atom_site_occupancy
 _atom_site_pbe_bader_charge
 _atom_site_pbe_bader_spin_density
 _atom_site_pbe_cm5_charge
 _atom_site_pbe_ddec_charge
 _atom_site_pbe_ddec_spin_density
 _atom_site_pbe_ddec_sum_bond_order
 _atom_site_pbe_magmom
Al  Al0  1  0.00000091  0.50000113  0.49999800  1  2.484869  0  0.40505  1.656143  0  2.568419  0
Al  Al1  1  0.50000109  0.50000062  0.49999922  1  2.486986  0  0.403351  1.654713  0  2.575316  0
H  H2  1  0.80335467  0.57619578  0.57619505  1  0.609761  0  0.357911  0.434872  0  0.846418  0
H  H3  1  0.19665011  0.42380429  0.42380410  1  0.609737  0  0.357873  0.434892  0  0.846286  0
H  H4  1  0.34536947  0.26090072  0.50210286  1  0.082525  0  0.108271  0.110602  0  1.008644  0
H  H5  1  0.28629149  0.11112941  0.49937967  1  0.108233  0  0.104128  0.10232  0  1.037836  0
H  H6  1  0.92615055  0.10767073  0.49933130  1  0.088608  0  0.108128  0.11032  0  1.011463  0
H  H7  1  0.98494554  0.25792462  0.50218658  1  0.106626  0  0.108839  0.111678  0  1.007257  0
H  H8  1  0.07385616  0.89233051  0.50066739  1  0.08875  0  0.108101  0.110269  0  1.011558  0
H  H9  1  0.71371934  0.88887484  0.50062164  1  0.108127  0  0.104084  0.102269  0  1.037886  0
H  H10  1  0.65464414  0.73910292  0.49789741  1  0.082661  0  0.108251  0.110541  0  1.008638  0
H  H11  1  0.01506396  0.74207601  0.49781107  1  0.106732  0  0.108854  0.11175  0  1.00712  0
H  H12  1  0.65463349  0.49789775  0.73909882  1  0.082503  0  0.108265  0.110599  0  1.008651  0
H  H13  1  0.71370730  0.50061871  0.88886974  1  0.108232  0  0.104096  0.102249  0  1.037994  0
H  H14  1  0.07384993  0.50066692  0.89232887  1  0.088622  0  0.108112  0.110292  0  1.011485  0
H  H15  1  0.01505508  0.49781383  0.74207444  1  0.106637  0  0.108847  0.111703  0  1.007242  0
H  H16  1  0.92614298  0.49933371  0.10766790  1  0.088737  0  0.108089  0.110241  0  1.011549  0
H  H17  1  0.28628130  0.49937834  0.11112615  1  0.108133  0  0.104082  0.102269  0  1.037919  0
H  H18  1  0.34535619  0.50210228  0.26089777  1  0.082721  0  0.108254  0.110559  0  1.008599  0
H  H19  1  0.98493891  0.50218977  0.25792243  1  0.106672  0  0.108867  0.11176  0  1.007086  0
C  C20  1  0.29924961  0.49752408  0.64383286  1  1.55575  0  0.26811  0.638969  0  4.095811  0
C  C21  1  0.29925893  0.64383597  0.49751836  1  1.556217  0  0.268164  0.639293  0  4.09567  0
C  C22  1  0.70074502  0.50248130  0.35616408  1  1.556298  0  0.268205  0.63921  0  4.095729  0
C  C23  1  0.70075141  0.35616700  0.50247702  1  1.555891  0  0.268125  0.639039  0  4.095831  0
C  C24  1  0.66838149  0.26759107  0.50234372  1  0.006071  0  -0.010109  -0.038129  0  3.955192  0
C  C25  1  0.47083810  0.22640617  0.50157467  1  -0.0461  0  -0.077653  -0.078041  0  3.968595  0
C  C26  1  0.43791796  0.14414090  0.50014507  1  -0.039103  0  -0.080108  -0.136325  0  3.944014  0
C  C27  1  0.60405306  0.10159777  0.49960428  1  0.315202  0  0.089366  0.174187  0  4.033819  0
C  C28  1  0.80126816  0.14251212  0.50006922  1  0.047258  0  -0.077401  -0.138136  0  3.946065  0
C  C29  1  0.83326737  0.22507224  0.50161209  1  -0.092734  0  -0.07794  -0.079145  0  3.969406  0
C  C30  1  0.19874179  0.85748973  0.49993024  1  0.047154  0  -0.077444  -0.138223  0  3.946304  0
C  C31  1  0.39595604  0.89840588  0.50039692  1  0.315218  0  0.089368  0.174213  0  4.033529  0
C  C32  1  0.56209393  0.85586216  0.49985568  1  -0.039431  0  -0.080007  -0.136246  0  3.943897  0
C  C33  1  0.52917401  0.77359747  0.49842552  1  -0.046179  0  -0.07773  -0.078022  0  3.968695  0
C  C34  1  0.33163147  0.73241079  0.49765649  1  0.006102  0  -0.010094  -0.03822  0  3.95533  0
C  C35  1  0.16674602  0.77493078  0.49838640  1  -0.092623  0  -0.077881  -0.079089  0  3.969395  0
C  C36  1  0.33162232  0.49765743  0.73240871  1  0.00607  0  -0.010096  -0.038095  0  3.955264  0
C  C37  1  0.52916538  0.49842676  0.77359428  1  -0.046027  0  -0.077668  -0.07807  0  3.968716  0
C  C38  1  0.56208379  0.49985382  0.85585911  1  -0.039165  0  -0.080031  -0.136185  0  3.944085  0
C  C39  1  0.39594923  0.50039401  0.89840231  1  0.315244  0  0.089364  0.174183  0  4.033699  0
C  C40  1  0.19873177  0.49992975  0.85748657  1  0.047282  0  -0.077413  -0.138193  0  3.94609  0
C  C41  1  0.16673577  0.49838865  0.77492745  1  -0.092713  0  -0.077966  -0.079162  0  3.969444  0
C  C42  1  0.80125618  0.50006968  0.14250991  1  0.047152  0  -0.077421  -0.138211  0  3.946417  0
C  C43  1  0.60404238  0.49960304  0.10159374  1  0.315194  0  0.089381  0.174238  0  4.033552  0
C  C44  1  0.43790654  0.50014384  0.14413747  1  -0.039417  0  -0.079982  -0.136189  0  3.943894  0
C  C45  1  0.47082732  0.50157328  0.22640305  1  -0.046208  0  -0.077755  -0.078137  0  3.96859  0
C  C46  1  0.66837081  0.50234380  0.26758867  1  0.006091  0  -0.010136  -0.038191  0  3.95536  0
C  C47  1  0.83325303  0.50161315  0.22506794  1  -0.092559  0  -0.077872  -0.079059  0  3.969478  0
N  N48  1  0.58879649  0.01787194  0.49842457  1  -0.444692  0  -0.147113  -0.135078  0  3.273372  0
N  N49  1  0.41121066  0.98213052  0.50157592  1  -0.486172  0  -0.146991  -0.134834  0  3.273252  0
N  N50  1  0.41120249  0.50157378  0.98212746  1  -0.444713  0  -0.147127  -0.135061  0  3.273347  0
N  N51  1  0.58878783  0.49842387  0.01786912  1  -0.486162  0  -0.146987  -0.134852  0  3.273221  0
O  O52  1  0.11780222  0.49815403  0.60959327  1  -1.253096  0  -0.235919  -0.593702  0  2.341486  0
O  O53  1  0.45680232  0.60930111  0.49806123  1  -1.257099  0  -0.236718  -0.595095  0  2.347233  0
O  O54  1  0.54320124  0.50193775  0.39069867  1  -1.257108  0  -0.236694  -0.595039  0  2.347247  0
O  O55  1  0.88219949  0.39040599  0.50184743  1  -1.253012  0  -0.235954  -0.593764  0  2.341569  0
O  O56  1  0.88219392  0.50185135  0.39040375  1  -1.25338  0  -0.236025  -0.593847  0  2.341502  0
O  O57  1  0.54320586  0.39070007  0.50193342  1  -1.257059  0  -0.236699  -0.594953  0  2.3473  0
O  O58  1  0.45679642  0.49806765  0.60929960  1  -1.257146  0  -0.23671  -0.594942  0  2.34732  0
O  O59  1  0.11781062  0.60959637  0.49814675  1  -1.25327  0  -0.235969  -0.593865  0  2.341477  0
O  O60  1  0.77412331  0.53453406  0.53453447  1  -1.409418  0  -0.449978  -0.999621  0  2.215417  0
O  O61  1  0.22588105  0.46546484  0.46546582  1  -1.409486  0  -0.449946  -0.99965  0  2.215233  0
