# generated using pymatgen
data_Zn2H24C41S2N2(O4F3)2
_symmetry_space_group_name_H-M   'P 1'
_cell_length_a   10.94520859
_cell_length_b   10.94449009
_cell_length_c   20.19615195
_cell_angle_alpha   88.99105793
_cell_angle_beta   78.23405932
_cell_angle_gamma   74.20881237
_symmetry_Int_Tables_number   1
_chemical_formula_structural   Zn2H24C41S2N2(O4F3)2
_chemical_formula_sum   'Zn4 H48 C82 S4 N4 O16 F12'
_cell_volume   2277.22971475
_cell_formula_units_Z   2
loop_
 _symmetry_equiv_pos_site_id
 _symmetry_equiv_pos_as_xyz
  1  'x, y, z'
loop_
 _atom_site_type_symbol
 _atom_site_label
 _atom_site_symmetry_multiplicity
 _atom_site_fract_x
 _atom_site_fract_y
 _atom_site_fract_z
 _atom_site_occupancy
 _atom_site_pbe_bader_charge
 _atom_site_pbe_bader_spin_density
 _atom_site_pbe_cm5_charge
 _atom_site_pbe_ddec_charge
 _atom_site_pbe_ddec_spin_density
 _atom_site_pbe_ddec_sum_bond_order
 _atom_site_pbe_magmom
Zn  Zn0  1  0.32701199  0.34350664  0.77701753  1  1.300621  0  0.678423  0.850926  0  2.373205  0
Zn  Zn1  1  0.67298917  0.65649497  0.22298231  1  1.300492  0  0.678383  0.850857  0  2.373383  0
Zn  Zn2  1  0.27478262  0.35160304  0.92530371  1  1.304268  0  0.678353  0.840456  0  2.3942  0
Zn  Zn3  1  0.72521710  0.64840048  0.07469577  1  1.304282  0  0.678359  0.840445  0  2.394055  0
H  H4  1  0.22832246  0.75124751  0.95136723  1  0.086361  0  0.102851  0.1064  0  1.0305  0
H  H5  1  0.77167274  0.24875892  0.04863370  1  0.086316  0  0.10284  0.106388  0  1.030435  0
H  H6  1  0.71744816  0.33901281  0.75175372  1  0.107485  0  0.096576  0.101425  0  1.018352  0
H  H7  1  0.28255627  0.66097647  0.24824840  1  0.107321  0  0.096527  0.101426  0  1.018374  0
H  H8  1  0.65031432  0.35435602  0.96868348  1  0.101226  0  0.105857  0.110593  0  1.010964  0
H  H9  1  0.34968953  0.64563895  0.03131814  1  0.101246  0  0.105867  0.110599  0  1.010997  0
H  H10  1  0.38983032  0.94119281  0.73706849  1  0.088455  0  0.098063  0.1055  0  1.020922  0
H  H11  1  0.61017442  0.05880590  0.26293051  1  0.088471  0  0.098045  0.10551  0  1.020905  0
H  H12  1  0.36918965  0.71793277  0.73606139  1  0.051633  0  0.096212  0.101648  0  1.023158  0
H  H13  1  0.63081412  0.28206599  0.26394019  1  0.051615  0  0.096206  0.101664  0  1.023191  0
H  H14  1  0.25208340  0.97329500  0.95258461  1  0.121882  0  0.107993  0.115687  0  0.991044  0
H  H15  1  0.74791183  0.02671141  0.04741434  1  0.121957  0  0.107954  0.115631  0  0.991111  0
H  H16  1  0.87587716  0.37012047  0.96297478  1  0.110195  0  0.103048  0.104697  0  1.028281  0
H  H17  1  0.12412668  0.62987450  0.03702733  1  0.11024  0  0.103065  0.104703  0  1.028296  0
H  H18  1  0.73223303  0.11377153  0.61697221  1  0.099303  0  0.108112  0.116206  0  1.009065  0
H  H19  1  0.26776356  0.88622631  0.38302422  1  0.099368  0  0.108113  0.116269  0  1.008953  0
H  H20  1  0.94524245  0.35594039  0.74586133  1  0.059446  0  0.099544  0.107064  0  1.006694  0
H  H21  1  0.05475960  0.64405082  0.25414052  1  0.059421  0  0.09957  0.107061  0  1.006589  0
H  H22  1  0.36498822  0.49835181  0.64707742  1  0.088314  0  0.11422  0.082998  0  1.013857  0
H  H23  1  0.63501429  0.50165170  0.35292473  1  0.088614  0  0.114194  0.082979  0  1.013852  0
H  H24  1  0.53019904  0.13795856  0.70630376  1  0.156399  0  0.125495  0.105291  0  0.996934  0
H  H25  1  0.46979685  0.86203836  0.29369375  1  0.156213  0  0.125515  0.105346  0  0.996854  0
H  H26  1  0.55674966  0.48901587  0.55359368  1  0.109076  0  0.101104  0.11103  0  1.03503  0
H  H27  1  0.44325378  0.51098763  0.44640837  1  0.109072  0  0.101107  0.111057  0  1.035014  0
H  H28  1  0.41487233  0.32426597  0.03770415  1  0.148318  0  0.126751  0.106451  0  0.998148  0
H  H29  1  0.58512630  0.67573470  0.96229351  1  0.148266  0  0.126758  0.106445  0  0.998121  0
H  H30  1  0.92386584  0.23242051  0.59079543  1  0.121145  0  0.113953  0.142476  0  0.983868  0
H  H31  1  0.07613446  0.76757732  0.40920406  1  0.121128  0  0.11395  0.142457  0  0.983847  0
H  H32  1  0.32831206  0.23227782  0.26431159  1  0.070456  0  0.112513  0.1367  0  1.003838  0
H  H33  1  0.67168858  0.76772570  0.73568977  1  0.070485  0  0.112518  0.136692  0  1.003813  0
H  H34  1  0.91271008  0.50697260  0.37794673  1  0.075636  0  0.08888  0.136337  0  1.021366  0
H  H35  1  0.08728298  0.49302439  0.62205356  1  0.075652  0  0.088889  0.136367  0  1.021411  0
H  H36  1  0.05664526  0.46097095  0.41107005  1  0.046874  0  0.089604  0.138033  0  1.003603  0
H  H37  1  0.94334772  0.53902983  0.58893070  1  0.046777  0  0.089608  0.138132  0  1.003546  0
H  H38  1  0.90222815  0.50951681  0.46704229  1  0.073419  0  0.083609  0.129849  0  1.033566  0
H  H39  1  0.09776397  0.49048020  0.53295860  1  0.073409  0  0.083626  0.129936  0  1.03359  0
H  H40  1  0.97372863  0.32100525  0.15082629  1  0.095456  0  0.107672  0.119148  0  1.026594  0
H  H41  1  0.02627235  0.67899352  0.84917311  1  0.095454  0  0.10767  0.11914  0  1.026587  0
H  H42  1  0.06953968  0.04766736  0.31388493  1  0.048314  0  0.095547  0.144608  0  0.988001  0
H  H43  1  0.93046413  0.95233134  0.68611268  1  0.048402  0  0.09553  0.144569  0  0.987986  0
H  H44  1  0.90939246  0.09914923  0.36416728  1  0.079663  0  0.089769  0.135192  0  1.019636  0
H  H45  1  0.09061067  0.90084853  0.63582943  1  0.079656  0  0.08977  0.135143  0  1.019669  0
H  H46  1  0.04468236  0.05317946  0.40417978  1  0.038463  0  0.087355  0.13165  0  1.015839  0
H  H47  1  0.95531983  0.94681833  0.59581802  1  0.038423  0  0.087373  0.131669  0  1.015863  0
H  H48  1  0.03401174  0.35441721  0.02750486  1  0.121321  0  0.126078  0.104446  0  0.999678  0
H  H49  1  0.96598525  0.64558256  0.97249497  1  0.121317  0  0.126088  0.104491  0  0.999683  0
H  H50  1  0.37279956  0.29159642  0.16150945  1  0.085225  0  0.113961  0.121548  0  1.001651  0
H  H51  1  0.62720186  0.70840422  0.83848890  1  0.085207  0  0.11395  0.121506  0  1.001657  0
C  C52  1  0.26456814  0.79338816  0.90485491  1  -0.036361  0  -0.087329  -0.100599  0  3.976773  0
C  C53  1  0.73542851  0.20661635  0.09514539  1  -0.035655  0  -0.087351  -0.100576  0  3.976496  0
C  C54  1  0.32306100  0.96918373  0.84500726  1  -0.049744  0  -0.015263  -0.023553  0  3.961222  0
C  C55  1  0.67693616  0.03081889  0.15499351  1  -0.049603  0  -0.015277  -0.023461  0  3.961131  0
C  C56  1  0.75434581  0.34512877  0.79744660  1  -0.113337  0  -0.092295  -0.103542  0  3.99004  0
C  C57  1  0.24565787  0.65486334  0.20255408  1  -0.112773  0  -0.092249  -0.103641  0  3.989928  0
C  C58  1  0.71607711  0.35296839  0.92013266  1  -0.048499  0  -0.085414  -0.098211  0  3.975662  0
C  C59  1  0.28392631  0.64702469  0.07986853  1  -0.048521  0  -0.085513  -0.098405  0  3.975876  0
C  C60  1  0.53736468  0.33405879  0.86404199  1  1.577048  0  0.2091  0.587933  0  4.190076  0
C  C61  1  0.46263844  0.66593899  0.13595620  1  1.576944  0  0.209058  0.587848  0  4.19012  0
C  C62  1  0.92385347  0.36241603  0.85394580  1  -0.035786  0  -0.019697  -0.030089  0  3.969464  0
C  C63  1  0.07614852  0.63757895  0.14605503  1  -0.035579  0  -0.019671  -0.030143  0  3.969479  0
C  C64  1  0.67237291  0.34331933  0.86046529  1  -0.001436  0  -0.015375  -0.024124  0  3.967468  0
C  C65  1  0.32762864  0.65667376  0.13953560  1  -0.001543  0  -0.015315  -0.02383  0  3.96734  0
C  C66  1  0.35627076  0.89779967  0.78377244  1  -0.007748  0  -0.090431  -0.106651  0  3.992393  0
C  C67  1  0.64373091  0.10220004  0.21622737  1  -0.00776  0  -0.090412  -0.106596  0  3.992432  0
C  C68  1  0.34376618  0.77473469  0.78314369  1  -0.038277  0  -0.094123  -0.109429  0  4.007726  0
C  C69  1  0.65623455  0.22526504  0.21685672  1  -0.038075  0  -0.09409  -0.10941  0  4.007919  0
C  C70  1  0.27776120  0.91615192  0.90559619  1  -0.067698  0  -0.082268  -0.088207  0  3.963919  0
C  C71  1  0.72223452  0.08385261  0.09440372  1  -0.068421  0  -0.082242  -0.088265  0  3.963855  0
C  C72  1  0.32957111  0.10412912  0.84532311  1  1.560448  0  0.214013  0.589155  0  4.182365  0
C  C73  1  0.67042797  0.89587341  0.15467250  1  1.560448  0  0.213852  0.588847  0  4.182619  0
C  C74  1  0.84130044  0.36195600  0.91683030  1  -0.086016  0  -0.086837  -0.098927  0  3.980007  0
C  C75  1  0.15870273  0.63803803  0.08317091  1  -0.086201  0  -0.0868  -0.098846  0  3.980012  0
C  C76  1  0.28434028  0.58930532  0.84319271  1  1.549984  0  0.206728  0.577287  0  4.195736  0
C  C77  1  0.71566227  0.41069813  0.15680449  1  1.550324  0  0.206734  0.577416  0  4.195608  0
C  C78  1  0.29716444  0.72205384  0.84370008  1  -0.008855  0  -0.021668  -0.036688  0  3.983413  0
C  C79  1  0.70283201  0.27794786  0.15630276  1  -0.009133  0  -0.021633  -0.036662  0  3.983353  0
C  C80  1  0.05961173  0.36878216  0.85110218  1  1.556297  0  0.211082  0.582381  0  4.185892  0
C  C81  1  0.94038869  0.63122228  0.14889622  1  1.556269  0  0.211105  0.582501  0  4.185912  0
C  C82  1  0.65312493  0.20075148  0.62197475  1  0.019505  0  -0.07819  -0.163235  0  3.923347  0
C  C83  1  0.34687420  0.79924730  0.37802337  1  0.019233  0  -0.078238  -0.163326  0  3.923361  0
C  C84  1  0.87949123  0.35473483  0.79416048  1  0.024664  0  -0.088375  -0.100574  0  3.99086  0
C  C85  1  0.12051287  0.64525918  0.20584063  1  0.024303  0  -0.088449  -0.100565  0  3.990568  0
C  C86  1  0.44740416  0.41396382  0.63755321  1  0.506899  0  0.054696  0.113176  0  3.935608  0
C  C87  1  0.55259767  0.58603875  0.36244853  1  0.50659  0  0.054666  0.113177  0  3.935688  0
C  C88  1  0.66180255  0.30092418  0.57854793  1  0.022828  0  0.009545  0.114279  0  4.017927  0
C  C89  1  0.33819699  0.69907651  0.42145260  1  0.022854  0  0.009538  0.114269  0  4.017939  0
C  C90  1  0.54135635  0.21271767  0.67114509  1  0.478521  0  0.057828  0.11905  0  3.907154  0
C  C91  1  0.45864183  0.78728113  0.32885363  1  0.478887  0  0.057813  0.119111  0  3.907171  0
C  C92  1  0.00287768  0.25843375  0.48301869  1  0.008963  0  -0.002723  0.086522  0  3.935285  0
C  C93  1  0.99712144  0.74156503  0.51697993  1  0.00895  0  -0.002718  0.086485  0  3.935366  0
C  C94  1  0.55440216  0.40846693  0.58581973  1  -0.021616  0  -0.085351  -0.17986  0  3.940125  0
C  C95  1  0.44560179  0.59153466  0.41418130  1  -0.021614  0  -0.085293  -0.179854  0  3.940125  0
C  C96  1  0.13571230  0.21858346  0.47316460  1  -0.020237  0  -0.044708  -0.156877  0  4.040889  0
C  C97  1  0.86428724  0.78141722  0.52683494  1  -0.02019  0  -0.044748  -0.156887  0  4.040932  0
C  C98  1  0.31891953  0.32268680  0.06545042  1  0.436654  0  0.058633  0.102278  0  3.916367  0
C  C99  1  0.68107814  0.67731390  0.93454833  1  0.436734  0  0.058563  0.102189  0  3.916286  0
C  C100  1  0.16616741  0.23383720  0.34962441  1  -0.0377  0  -0.000249  0.087962  0  3.942013  0
C  C101  1  0.83383188  0.76616444  0.65037564  1  -0.037751  0  -0.000242  0.087986  0  3.942101  0
C  C102  1  0.13690085  0.28296191  0.23967512  1  -0.17236  0  0.017649  0.042845  0  3.979774  0
C  C103  1  0.86310125  0.71703968  0.76032413  1  -0.172228  0  0.017743  0.042937  0  3.979649  0
C  C104  1  0.90474356  0.25752907  0.54074610  1  0.015989  0  -0.100579  -0.211543  0  3.977573  0
C  C105  1  0.09525768  0.74246875  0.45925379  1  0.016016  0  -0.100582  -0.211496  0  3.977585  0
C  C106  1  0.78112586  0.29222536  0.52821824  1  -0.216762  0  0.011661  0.04161  0  3.993303  0
C  C107  1  0.21887512  0.70777342  0.47178166  1  -0.216774  0  0.011666  0.041602  0  3.993322  0
C  C108  1  0.34838731  0.20765204  0.49054768  1  1.166445  0  0.190216  0.250344  0  3.965979  0
C  C109  1  0.65161146  0.79235151  0.50945339  1  1.166512  0  0.190191  0.250451  0  3.965769  0
C  C110  1  0.22429958  0.24692174  0.28177215  1  0.0626  0  -0.096462  -0.201427  0  3.960048  0
C  C111  1  0.77570202  0.75308175  0.71822664  1  0.06247  0  -0.096453  -0.201431  0  3.960062  0
C  C112  1  0.21914548  0.17520490  0.52374607  1  1.10439  0  0.19372  0.377483  0  3.9826  0
C  C113  1  0.78085339  0.82479483  0.47625257  1  1.104392  0  0.193687  0.37736  0  3.982692  0
C  C114  1  0.94707101  0.31954483  0.42251025  1  -0.035481  0  0.01514  0.095885  0  3.737205  0
C  C115  1  0.05292980  0.68045109  0.57748872  1  -0.035437  0  0.015092  0.095809  0  3.737286  0
C  C116  1  0.02229519  0.23821747  0.35827496  1  -0.0322  0  0.012746  0.086664  0  3.752025  0
C  C117  1  0.97770487  0.76178130  0.64172405  1  -0.032155  0  0.012741  0.086657  0  3.752019  0
C  C118  1  0.95513176  0.45828577  0.41918996  1  -0.103788  0  -0.2505  -0.443047  0  3.920767  0
C  C119  1  0.04486505  0.54171117  0.58081041  1  -0.103815  0  -0.250497  -0.443245  0  3.920792  0
C  C120  1  0.07300528  0.32082193  0.12814008  1  0.038062  0  -0.075815  -0.158915  0  3.908242  0
C  C121  1  0.92699477  0.67917685  0.87185943  1  0.03755  0  -0.0758  -0.158862  0  3.908187  0
C  C122  1  0.16833405  0.30230769  0.16738345  1  0.016823  0  0.010557  0.106957  0  4.022131  0
C  C123  1  0.83166575  0.69769203  0.83261557  1  0.016833  0  0.010522  0.106891  0  4.022078  0
C  C124  1  0.01034413  0.10056203  0.36033934  1  -0.072683  0  -0.245574  -0.439662  0  3.91981  0
C  C125  1  0.98965849  0.89943763  0.63965789  1  -0.072758  0  -0.245566  -0.439581  0  3.919755  0
C  C126  1  0.21712169  0.21714372  0.40706964  1  -0.004855  0  -0.047019  -0.157379  0  4.032043  0
C  C127  1  0.78287828  0.78285885  0.59293032  1  -0.004831  0  -0.047032  -0.157501  0  4.03228  0
C  C128  1  0.35535187  0.19550762  0.41252157  1  1.080057  0  0.192692  0.378626  0  3.972315  0
C  C129  1  0.64464758  0.80449687  0.58747941  1  1.080216  0  0.192697  0.378392  0  3.972848  0
C  C130  1  0.10546432  0.33918937  0.05939122  1  0.490776  0  0.060679  0.115215  0  3.900776  0
C  C131  1  0.89453360  0.66081039  0.94060851  1  0.491375  0  0.060637  0.115105  0  3.90089  0
C  C132  1  0.29424989  0.30378170  0.13432473  1  -0.018288  0  -0.069312  -0.150338  0  3.909469  0
C  C133  1  0.70574991  0.69621803  0.86567429  1  -0.01832  0  -0.069289  -0.150206  0  3.909343  0
S  S134  1  0.77300248  0.32473181  0.44437686  1  0.111947  0  0.057859  0.03668  0  2.552323  0
S  S135  1  0.22699670  0.67526320  0.55562328  1  0.111958  0  0.057865  0.036733  0  2.552319  0
S  S136  1  0.97485946  0.30699996  0.28016334  1  0.12775  0  0.066961  0.05332  0  2.589982  0
S  S137  1  0.02514103  0.69300070  0.71983561  1  0.127732  0  0.066927  0.053286  0  2.589997  0
N  N138  1  0.44066034  0.31837186  0.67966476  1  -1.269871  0  -0.32121  -0.21473  0  3.487795  0
N  N139  1  0.55934107  0.68162880  0.32033507  1  -1.269877  0  -0.321164  -0.214675  0  3.487775  0
N  N140  1  0.22629811  0.33997842  0.02840683  1  -1.215226  0  -0.320748  -0.209717  0  3.514942  0
N  N141  1  0.77370050  0.66002227  0.97159231  1  -1.215251  0  -0.32069  -0.209676  0  3.514969  0
O  O142  1  0.46614518  0.33585518  0.92267590  1  -1.171946  0  -0.315001  -0.542368  0  2.335174  0
O  O143  1  0.53385289  0.66414745  0.07732675  1  -1.171939  0  -0.314952  -0.542337  0  2.33545  0
O  O144  1  0.13162486  0.36731265  0.79273892  1  -1.164908  0  -0.319867  -0.548959  0  2.329659  0
O  O145  1  0.86837221  0.63269377  0.20726280  1  -1.164827  0  -0.319894  -0.549018  0  2.329494  0
O  O146  1  0.31008401  0.16027562  0.90253397  1  -1.166227  0  -0.315662  -0.545124  0  2.330715  0
O  O147  1  0.68991215  0.83973078  0.09746537  1  -1.166374  0  -0.31549  -0.544862  0  2.331046  0
O  O148  1  0.50306864  0.32674732  0.80819849  1  -1.175506  0  -0.3157  -0.566471  0  2.37467  0
O  O149  1  0.49693562  0.67324955  0.19180454  1  -1.175359  0  -0.315683  -0.566469  0  2.374552  0
O  O150  1  0.09243696  0.37410407  0.90774405  1  -1.165807  0  -0.313511  -0.555474  0  2.387574  0
O  O151  1  0.90756189  0.62590613  0.09225891  1  -1.165782  0  -0.313517  -0.555497  0  2.387731  0
O  O152  1  0.25902123  0.54068260  0.90036948  1  -1.174695  0  -0.314594  -0.547976  0  2.326694  0
O  O153  1  0.74097710  0.45931908  0.09963265  1  -1.174956  0  -0.314567  -0.548028  0  2.326934  0
O  O154  1  0.35135235  0.15265173  0.78765839  1  -1.171661  0  -0.318903  -0.55273  0  2.356573  0
O  O155  1  0.64864788  0.84734989  0.21234056  1  -1.171582  0  -0.318887  -0.552633  0  2.356316  0
O  O156  1  0.30026768  0.53546678  0.78528601  1  -1.16591  0  -0.322452  -0.562113  0  2.364792  0
O  O157  1  0.69973320  0.46453582  0.21471732  1  -1.165932  0  -0.322496  -0.562225  0  2.364533  0
F  F158  1  0.41549974  0.28091811  0.37807353  1  -0.618964  0  -0.11433  -0.180684  0  1.291183  0
F  F159  1  0.58449751  0.71909114  0.62192764  1  -0.619194  0  -0.114308  -0.180786  0  1.29131  0
F  F160  1  0.24612477  0.04450458  0.53172335  1  -0.604645  0  -0.122875  -0.192095  0  1.269421  0
F  F161  1  0.75387574  0.95549606  0.46827361  1  -0.604658  0  -0.122824  -0.192051  0  1.2695  0
F  F162  1  0.43285037  0.07600495  0.38786207  1  -0.602608  0  -0.111311  -0.183602  0  1.303265  0
F  F163  1  0.56715257  0.92400044  0.61213902  1  -0.602572  0  -0.111316  -0.182723  0  1.30239  0
F  F164  1  0.16902248  0.23077405  0.58745415  1  -0.617916  0  -0.102108  -0.158741  0  1.30094  0
F  F165  1  0.83097407  0.76922384  0.41254575  1  -0.617926  0  -0.102124  -0.158742  0  1.30097  0
F  F166  1  0.45466414  0.13556747  0.51099329  1  -0.610901  0  -0.095487  -0.138514  0  1.409979  0
F  F167  1  0.54533182  0.86443612  0.48900808  1  -0.611124  0  -0.095428  -0.138541  0  1.409781  0
F  F168  1  0.33501998  0.33297932  0.50736842  1  -0.618985  0  -0.103739  -0.17012  0  1.38808  0
F  F169  1  0.66497622  0.66702334  0.49263443  1  -0.619014  0  -0.103769  -0.170194  0  1.387952  0
