# generated using pymatgen
data_ZnH13C14N2O7
_symmetry_space_group_name_H-M   'P 1'
_cell_length_a   9.53068148
_cell_length_b   9.73801027
_cell_length_c   19.08869976
_cell_angle_alpha   95.09124356
_cell_angle_beta   101.25327097
_cell_angle_gamma   111.11593310
_symmetry_Int_Tables_number   1
_chemical_formula_structural   ZnH13C14N2O7
_chemical_formula_sum   'Zn4 H52 C56 N8 O28'
_cell_volume   1596.20939814
_cell_formula_units_Z   4
loop_
 _symmetry_equiv_pos_site_id
 _symmetry_equiv_pos_as_xyz
  1  'x, y, z'
loop_
 _atom_site_type_symbol
 _atom_site_label
 _atom_site_symmetry_multiplicity
 _atom_site_fract_x
 _atom_site_fract_y
 _atom_site_fract_z
 _atom_site_occupancy
 _atom_site_hle17_bader_spin_density
 _atom_site_hle17_ddec_charge
 _atom_site_hle17_ddec_spin_density
 _atom_site_hle17_ddec_sum_bond_order
 _atom_site_hle17_magmom
 _atom_site_hse06_10hf_bader_spin_density
 _atom_site_hse06_10hf_ddec_charge
 _atom_site_hse06_10hf_ddec_spin_density
 _atom_site_hse06_10hf_ddec_sum_bond_order
 _atom_site_hse06_10hf_magmom
 _atom_site_hse06_bader_spin_density
 _atom_site_hse06_ddec_charge
 _atom_site_hse06_ddec_spin_density
 _atom_site_hse06_ddec_sum_bond_order
 _atom_site_hse06_magmom
 _atom_site_pbe_bader_spin_density
 _atom_site_pbe_cm5_charge
 _atom_site_pbe_ddec_charge
 _atom_site_pbe_ddec_spin_density
 _atom_site_pbe_ddec_sum_bond_order
 _atom_site_pbe_magmom
Zn  Zn0  1  0.64308820  0.21077667  0.02299070  1  0  1.108355  0  1.78881  0  0  0.925926  0  2.275912  0  0  0.972715  0  2.216072  0  0  0.706747  0.891175  0  2.318988  0
Zn  Zn1  1  0.35690810  0.78922654  0.97700878  1  0  1.108345  0  1.788886  0  0  0.925908  0  2.275974  0  0  0.972698  0  2.216134  0  0  0.706758  0.891164  0  2.319045  0
Zn  Zn2  1  0.27004781  0.16226929  0.51856616  1  0  1.129888  0  1.744546  0  0  0.946971  0  2.224245  0  0  0.994084  0  2.164986  0  0  0.713966  0.91198  0  2.267114  0
Zn  Zn3  1  0.72995705  0.83772847  0.48143283  1  0  1.129811  0  1.744603  0  0  0.946895  0  2.224297  0  0  0.994003  0  2.165041  0  0  0.713905  0.911896  0  2.267159  0
H  H4  1  0.87536726  0.29747811  0.94215918  1  0  0.298924  0  0.957228  0  0  0.275786  0  1.026906  0  0  0.285815  0  1.018114  0  0  0.306254  0.268747  0  1.033097  0
H  H5  1  0.12463119  0.70252512  0.05784051  1  0  0.298878  0  0.957241  0  0  0.275747  0  1.026925  0  0  0.285779  0  1.018126  0  0  0.306242  0.268712  0  1.033116  0
H  H6  1  0.42982683  0.46006180  0.60196544  1  0  0.296926  0  0.949133  0  0  0.274071  0  1.017073  0  0  0.283353  0  1.009251  0  0  0.313255  0.267575  0  1.022503  0
H  H7  1  0.57017696  0.53993594  0.39803344  1  0  0.296781  0  0.949394  0  0  0.274097  0  1.017076  0  0  0.28338  0  1.009252  0  0  0.313243  0.267594  0  1.022522  0
H  H8  1  0.20314268  0.16358704  0.02838771  1  0  0.111442  0  0.941625  0  0  0.118603  0  1.006308  0  0  0.122895  0  1.002368  0  0  0.109746  0.115397  0  1.009412  0
H  H9  1  0.79684623  0.83640274  0.97160987  1  0  0.111427  0  0.941656  0  0  0.118639  0  1.006285  0  0  0.122933  0  1.002339  0  0  0.1097  0.115416  0  1.009408  0
H  H10  1  0.92771223  0.10549264  0.18514939  1  0  0.115803  0  0.959236  0  0  0.119492  0  1.031852  0  0  0.123734  0  1.027757  0  0  0.110778  0.116712  0  1.034084  0
H  H11  1  0.07229317  0.89452286  0.81485419  1  0  0.115724  0  0.95914  0  0  0.119398  0  1.03179  0  0  0.123641  0  1.027693  0  0  0.110751  0.116616  0  1.034023  0
H  H12  1  0.34493528  0.01614350  0.22599339  1  0  0.102997  0  0.964585  0  0  0.106708  0  1.038999  0  0  0.11041  0  1.035886  0  0  0.109171  0.103929  0  1.041416  0
H  H13  1  0.65505930  0.98386078  0.77400703  1  0  0.103057  0  0.964475  0  0  0.106755  0  1.038915  0  0  0.110459  0  1.035796  0  0  0.109153  0.103976  0  1.041331  0
H  H14  1  0.34563987  0.16798026  0.91818197  1  0  0.132531  0  0.948173  0  0  0.152394  0  1.008475  0  0  0.154779  0  1.007002  0  0  0.098482  0.15054  0  1.009808  0
H  H15  1  0.65435576  0.83201852  0.08181565  1  0  0.132476  0  0.948185  0  0  0.152347  0  1.008481  0  0  0.154732  0  1.007008  0  0  0.098518  0.150491  0  1.009824  0
H  H16  1  0.29309626  0.11168739  0.82247543  1  0  0.130736  0  0.94655  0  0  0.150012  0  1.008741  0  0  0.151835  0  1.008154  0  0  0.099462  0.148698  0  1.009218  0
H  H17  1  0.70690005  0.88831587  0.17752091  1  0  0.130585  0  0.946483  0  0  0.149849  0  1.00875  0  0  0.151672  0  1.008163  0  0  0.099363  0.148536  0  1.009226  0
H  H18  1  0.32866077  0.29726744  0.85893956  1  0  0.116179  0  0.943607  0  0  0.135113  0  1.006509  0  0  0.137244  0  1.005238  0  0  0.092935  0.133603  0  1.007514  0
H  H19  1  0.67134305  0.70273588  0.14105907  1  0  0.116126  0  0.943648  0  0  0.135069  0  1.00654  0  0  0.1372  0  1.00527  0  0  0.092937  0.133562  0  1.007543  0
H  H20  1  0.99352241  0.35864304  0.83055565  1  0  0.118865  0  0.935721  0  0  0.140095  0  0.993053  0  0  0.142106  0  0.992239  0  0  0.097854  0.13857  0  0.993932  0
H  H21  1  0.00647711  0.64136019  0.16944467  1  0  0.118842  0  0.935661  0  0  0.140068  0  0.993007  0  0  0.14208  0  0.992193  0  0  0.097828  0.138543  0  0.993887  0
H  H22  1  0.92710840  0.49406821  0.79652283  1  0  0.119578  0  0.939598  0  0  0.139996  0  0.99972  0  0  0.14163  0  0.999615  0  0  0.096468  0.138983  0  0.999406  0
H  H23  1  0.07289284  0.50593396  0.20347603  1  0  0.119623  0  0.939572  0  0  0.14005  0  0.999678  0  0  0.141684  0  0.999571  0  0  0.096498  0.139036  0  0.999366  0
H  H24  1  0.85790394  0.31205467  0.74495004  1  0  0.130226  0  0.93679  0  0  0.150214  0  0.996007  0  0  0.151466  0  0.997228  0  0  0.101162  0.1494  0  0.995003  0
H  H25  1  0.14209687  0.68794635  0.25505029  1  0  0.130231  0  0.936785  0  0  0.150233  0  0.995982  0  0  0.151477  0  0.997212  0  0  0.101167  0.14942  0  0.994977  0
H  H26  1  0.30671944  0.96285287  0.62128078  1  0  0.136197  0  0.949225  0  0  0.15625  0  1.007126  0  0  0.158814  0  1.005683  0  0  0.100652  0.154432  0  1.008107  0
H  H27  1  0.69327663  0.03714697  0.37872009  1  0  0.136204  0  0.949156  0  0  0.156264  0  1.007055  0  0  0.15883  0  1.005607  0  0  0.100629  0.154445  0  1.008034  0
H  H28  1  0.33726725  0.98589429  0.71736225  1  0  0.130301  0  0.957857  0  0  0.14822  0  1.021696  0  0  0.150293  0  1.02082  0  0  0.096315  0.146303  0  1.023097  0
H  H29  1  0.66272516  0.01410438  0.28263873  1  0  0.130239  0  0.957991  0  0  0.148201  0  1.021774  0  0  0.150278  0  1.020896  0  0  0.096287  0.146286  0  1.023172  0
H  H30  1  0.49159130  0.99329322  0.67695155  1  0  0.124572  0  0.943179  0  0  0.144413  0  1.00507  0  0  0.146597  0  1.003436  0  0  0.095394  0.142222  0  1.0073  0
H  H31  1  0.50839980  0.00670207  0.32305071  1  0  0.124524  0  0.94315  0  0  0.144384  0  1.005024  0  0  0.146567  0  1.003391  0  0  0.095373  0.142179  0  1.007266  0
H  H32  1  0.59129938  0.67044152  0.71160668  1  0  0.121973  0  0.93384  0  0  0.145292  0  0.986395  0  0  0.147058  0  0.985833  0  0  0.098963  0.143761  0  0.987347  0
H  H33  1  0.40870894  0.32955960  0.28839385  1  0  0.121966  0  0.933894  0  0  0.145282  0  0.986442  0  0  0.147047  0  0.98588  0  0  0.098971  0.143755  0  0.987392  0
H  H34  1  0.74606340  0.62913891  0.75995936  1  0  0.113891  0  0.953498  0  0  0.133342  0  1.016849  0  0  0.134018  0  1.018407  0  0  0.09293  0.133147  0  1.014993  0
H  H35  1  0.25394513  0.37085999  0.24004056  1  0  0.113874  0  0.953386  0  0  0.133314  0  1.016771  0  0  0.133985  0  1.018337  0  0  0.092895  0.133119  0  1.014915  0
H  H36  1  0.58517396  0.61212087  0.79691293  1  0  0.129769  0  0.937148  0  0  0.149708  0  0.995885  0  0  0.151249  0  0.996295  0  0  0.099146  0.148729  0  0.99528  0
H  H37  1  0.41483369  0.38787578  0.20308732  1  0  0.129804  0  0.937179  0  0  0.149748  0  0.995891  0  0  0.151299  0  0.996289  0  0  0.09916  0.148769  0  0.995289  0
H  H38  1  0.86984636  0.67664306  0.32874278  1  0  0.11277  0  0.941716  0  0  0.117575  0  1.011135  0  0  0.122002  0  1.00707  0  0  0.111108  0.114419  0  1.013835  0
H  H39  1  0.13016089  0.32335807  0.67125660  1  0  0.112774  0  0.941837  0  0  0.117582  0  1.011234  0  0  0.122007  0  1.007169  0  0  0.111103  0.114427  0  1.013931  0
H  H40  1  0.00241543  0.30170382  0.35730160  1  0  0.12017  0  0.935733  0  0  0.127352  0  0.999533  0  0  0.131436  0  0.995874  0  0  0.112691  0.12425  0  1.002195  0
H  H41  1  0.99758080  0.69828829  0.64269522  1  0  0.120045  0  0.935817  0  0  0.127217  0  0.999639  0  0  0.131301  0  0.995981  0  0  0.112631  0.124116  0  1.0023  0
H  H42  1  0.24097618  0.71675938  0.50837912  1  0  0.114968  0  0.944391  0  0  0.122107  0  1.009272  0  0  0.126316  0  1.005348  0  0  0.113259  0.119178  0  1.011984  0
H  H43  1  0.75902257  0.28322265  0.49162268  1  0  0.115044  0  0.94458  0  0  0.122164  0  1.00944  0  0  0.126373  0  1.005516  0  0  0.113285  0.119235  0  1.012149  0
H  H44  1  0.73411297  0.50660187  0.06798988  1  0  0.432493  0  0.811951  0  0  0.418323  0  0.860095  0  0  0.426187  0  0.851195  0  0  0.330776  0.412611  0  0.866655  0
H  H45  1  0.26588679  0.49340473  0.93200906  1  0  0.432586  0  0.811902  0  0  0.418371  0  0.860114  0  0  0.426237  0  0.851209  0  0  0.330793  0.412658  0  0.866674  0
H  H46  1  0.69615837  0.43051310  0.13691928  1  0  0.433883  0  0.868482  0  0  0.398451  0  0.938683  0  0  0.410213  0  0.921679  0  0  0.292259  0.390068  0  0.950815  0
H  H47  1  0.30383710  0.56949348  0.86307767  1  0  0.433877  0  0.868494  0  0  0.398438  0  0.938697  0  0  0.4102  0  0.921695  0  0  0.292238  0.390056  0  0.950828  0
H  H48  1  0.51741981  0.29920559  0.46158272  1  0  0.431468  0  0.865144  0  0  0.398207  0  0.931415  0  0  0.409112  0  0.915538  0  0  0.292312  0.390293  0  0.942946  0
H  H49  1  0.48258895  0.70079656  0.53842210  1  0  0.431515  0  0.865077  0  0  0.398248  0  0.931363  0  0  0.409153  0  0.915486  0  0  0.292337  0.390335  0  0.942894  0
H  H50  1  0.38752000  0.14759498  0.40965859  1  0  0.434634  0  0.854199  0  0  0.406787  0  0.911567  0  0  0.416486  0  0.897323  0  0  0.301608  0.399685  0  0.922072  0
H  H51  1  0.61248685  0.85241053  0.59034411  1  0  0.434654  0  0.854173  0  0  0.406808  0  0.911535  0  0  0.416507  0  0.897291  0  0  0.301612  0.399706  0  0.92204  0
H  H52  1  0.97526968  0.96873406  0.34874585  1  0  0.413052  0  0.880752  0  0  0.384095  0  0.954955  0  0  0.396057  0  0.938175  0  0  0.307414  0.375607  0  0.964647  0
H  H53  1  0.02473518  0.03126363  0.65125679  1  0  0.413094  0  0.880649  0  0  0.38413  0  0.954895  0  0  0.396091  0  0.938116  0  0  0.307463  0.375642  0  0.964564  0
H  H54  1  0.70778953  0.20634802  0.20313664  1  0  0.422713  0  0.870649  0  0  0.389751  0  0.949046  0  0  0.402477  0  0.930787  0  0  0.3128  0.380984  0  0.961571  0
H  H55  1  0.29220462  0.79365517  0.79686211  1  0  0.422703  0  0.870706  0  0  0.389767  0  0.949024  0  0  0.40249  0  0.93077  0  0  0.312844  0.381  0  0.961546  0
C  C56  1  0.28557814  0.08407996  0.12382200  1  0  -0.078365  0  3.765021  0  0  -0.052127  0  4.005208  0  0  -0.063003  0  4.028192  0  0  -0.017707  -0.045112  0  3.989428  0
C  C57  1  0.71441816  0.91592323  0.87617853  1  0  -0.078466  0  3.7652  0  0  -0.05222  0  4.005387  0  0  -0.063097  0  4.028374  0  0  -0.017716  -0.0452  0  3.989596  0
C  C58  1  0.18172827  0.12968080  0.07935750  1  0  -0.03401  0  3.664491  0  0  -0.074548  0  3.912367  0  0  -0.069176  0  3.929316  0  0  -0.06359  -0.078081  0  3.901539  0
C  C59  1  0.81826454  0.87031346  0.92064120  1  0  -0.034021  0  3.664638  0  0  -0.074608  0  3.912479  0  0  -0.069237  0  3.929429  0  0  -0.063579  -0.078127  0  3.90166  0
C  C60  1  0.05332461  0.13804941  0.10153329  1  0  -0.075954  0  3.749368  0  0  -0.047292  0  3.983808  0  0  -0.058936  0  4.008383  0  0  -0.016271  -0.0403  0  3.967771  0
C  C61  1  0.94667340  0.86195269  0.89846683  1  0  -0.075974  0  3.749458  0  0  -0.047302  0  3.983911  0  0  -0.058947  0  4.008488  0  0  -0.016202  -0.040305  0  3.967866  0
C  C62  1  0.02608544  0.09592698  0.16744202  1  0  -0.044272  0  3.658359  0  0  -0.08375  0  3.905869  0  0  -0.077992  0  3.922293  0  0  -0.065286  -0.086531  0  3.893989  0
C  C63  1  0.97391476  0.90408069  0.83255964  1  0  -0.044215  0  3.658236  0  0  -0.083684  0  3.90577  0  0  -0.077925  0  3.922193  0  0  -0.065314  -0.086464  0  3.893895  0
C  C64  1  0.13045852  0.05060331  0.21210723  1  0  -0.095522  0  3.786915  0  0  -0.067296  0  4.021412  0  0  -0.079085  0  4.045407  0  0  -0.01882  -0.059938  0  4.005194  0
C  C65  1  0.86954016  0.94940325  0.78789317  1  0  -0.095285  0  3.786851  0  0  -0.067082  0  4.021301  0  0  -0.078872  0  4.045297  0  0  -0.018722  -0.059728  0  4.005083  0
C  C66  1  0.26039405  0.04571996  0.19028741  1  0  -0.040067  0  3.689896  0  0  -0.080932  0  3.942549  0  0  -0.075341  0  3.959406  0  0  -0.064361  -0.083921  0  3.930771  0
C  C67  1  0.73960312  0.95428548  0.80971227  1  0  -0.040217  0  3.690076  0  0  -0.081065  0  3.942706  0  0  -0.075473  0  3.959564  0  0  -0.064401  -0.084058  0  3.930935  0
C  C68  1  0.43445701  0.09659215  0.10556747  1  0  0.665562  0  3.899312  0  0  0.610638  0  4.193715  0  0  0.645192  0  4.186699  0  0  0.215609  0.587318  0  4.197298  0
C  C69  1  0.56553866  0.90341213  0.89443357  1  0  0.66582  0  3.899099  0  0  0.610884  0  4.193504  0  0  0.64544  0  4.186485  0  0  0.215735  0.587562  0  4.197089  0
C  C70  1  0.11673819  0.02105427  0.28617006  1  0  0.653142  0  3.833388  0  0  0.604054  0  4.127372  0  0  0.637411  0  4.119585  0  0  0.232163  0.581379  0  4.132013  0
C  C71  1  0.88326134  0.97894897  0.71382973  1  0  0.653047  0  3.833428  0  0  0.604029  0  4.127324  0  0  0.637385  0  4.119535  0  0  0.232185  0.581357  0  4.13196  0
C  C72  1  0.94934139  0.19778665  0.05568043  1  0  0.66029  0  3.902755  0  0  0.609619  0  4.197554  0  0  0.643588  0  4.191414  0  0  0.211792  0.586427  0  4.200928  0
C  C73  1  0.05065424  0.80221209  0.94431929  1  0  0.66032  0  3.902608  0  0  0.609629  0  4.197429  0  0  0.643597  0  4.191287  0  0  0.211749  0.586435  0  4.200792  0
C  C74  1  0.36628209  0.20433035  0.86707584  1  0  -0.354837  0  3.708277  0  0  -0.433083  0  3.946685  0  0  -0.436577  0  3.953054  0  0  -0.234193  -0.430368  0  3.942128  0
C  C75  1  0.63371612  0.79566959  0.13292104  1  0  -0.354484  0  3.708141  0  0  -0.43275  0  3.946522  0  0  -0.436234  0  3.952908  0  0  -0.234097  -0.43004  0  3.941969  0
C  C76  1  0.53235888  0.24988770  0.86602964  1  0  0.254364  0  3.733515  0  0  0.243499  0  4.002266  0  0  0.254872  0  4.020718  0  0  0.107166  0.236211  0  3.989058  0
C  C77  1  0.46764061  0.75011000  0.13396882  1  0  0.254278  0  3.73362  0  0  0.243453  0  4.002297  0  0  0.254789  0  4.020799  0  0  0.107186  0.23617  0  3.989092  0
C  C78  1  0.60281154  0.29325204  0.80858638  1  0  -0.140008  0  3.785104  0  0  -0.132066  0  4.033544  0  0  -0.141214  0  4.059795  0  0  -0.028513  -0.126243  0  4.01577  0
C  C79  1  0.39718903  0.70674564  0.19141324  1  0  -0.140073  0  3.785173  0  0  -0.132116  0  4.033539  0  0  -0.141254  0  4.0598  0  0  -0.028561  -0.126293  0  4.015762  0
C  C80  1  0.76102688  0.32508104  0.83582945  1  0  0.242042  0  3.726808  0  0  0.226373  0  3.997394  0  0  0.237158  0  4.0154  0  0  0.109646  0.219569  0  3.984484  0
C  C81  1  0.23897523  0.67492334  0.16417117  1  0  0.241975  0  3.726872  0  0  0.226351  0  3.997402  0  0  0.237139  0  4.015403  0  0  0.109621  0.219551  0  3.98449  0
C  C82  1  0.89196673  0.37481235  0.80031578  1  0  -0.352317  0  3.729377  0  0  -0.42994  0  3.971556  0  0  -0.433811  0  3.979677  0  0  -0.230312  -0.426916  0  3.965379  0
C  C83  1  0.10803451  0.62518981  0.19968360  1  0  -0.352327  0  3.729306  0  0  -0.429966  0  3.971461  0  0  -0.433833  0  3.97959  0  0  -0.230301  -0.426946  0  3.965288  0
C  C84  1  0.39000857  0.02347838  0.67281425  1  0  -0.359437  0  3.695712  0  0  -0.43634  0  3.930387  0  0  -0.439672  0  3.936202  0  0  -0.238011  -0.433606  0  3.927418  0
C  C85  1  0.60998511  0.97651807  0.32718726  1  0  -0.359347  0  3.695751  0  0  -0.436303  0  3.93038  0  0  -0.439636  0  3.936186  0  0  -0.237932  -0.43356  0  3.927422  0
C  C86  1  0.43700513  0.18750250  0.67681230  1  0  0.252727  0  3.736349  0  0  0.243755  0  4.002095  0  0  0.254464  0  4.020946  0  0  0.111149  0.236502  0  3.989384  0
C  C87  1  0.56299221  0.81249513  0.32318805  1  0  0.252817  0  3.736339  0  0  0.243863  0  4.002066  0  0  0.254573  0  4.020918  0  0  0.111198  0.23661  0  3.989353  0
C  C88  1  0.52931282  0.30462212  0.73574856  1  0  -0.15333  0  3.798937  0  0  -0.146049  0  4.047595  0  0  -0.155456  0  4.074034  0  0  -0.033762  -0.139955  0  4.030126  0
C  C89  1  0.47068882  0.69537558  0.26425116  1  0  -0.153395  0  3.798923  0  0  -0.146111  0  4.047625  0  0  -0.155517  0  4.074063  0  0  -0.033787  -0.140019  0  4.030155  0
C  C90  1  0.53971404  0.43724819  0.70972856  1  0  0.243136  0  3.735864  0  0  0.226924  0  4.007353  0  0  0.238148  0  4.024315  0  0  0.108636  0.219611  0  3.995324  0
C  C91  1  0.46029233  0.56275069  0.29027115  1  0  0.24318  0  3.735644  0  0  0.22682  0  4.007324  0  0  0.238041  0  4.024293  0  0  0.108576  0.219509  0  3.995295  0
C  C92  1  0.61954490  0.59538848  0.74625609  1  0  -0.353449  0  3.743326  0  0  -0.432039  0  3.985817  0  0  -0.435795  0  3.994647  0  0  -0.234142  -0.429073  0  3.979033  0
C  C93  1  0.38046061  0.40460817  0.25374290  1  0  -0.3535  0  3.743223  0  0  -0.432031  0  3.985728  0  0  -0.435788  0  3.994554  0  0  -0.234146  -0.429072  0  3.978955  0
C  C94  1  0.22744454  0.43301475  0.48296058  1  0  0.66914  0  3.877672  0  0  0.613182  0  4.177039  0  0  0.647831  0  4.170487  0  0  0.220002  0.589584  0  4.180817  0
C  C95  1  0.77255881  0.56698184  0.51704029  1  0  0.669182  0  3.877566  0  0  0.613229  0  4.176971  0  0  0.647874  0  4.170417  0  0  0.220062  0.589631  0  4.180754  0
C  C96  1  0.05536194  0.71133473  0.42227547  1  0  -0.071532  0  3.747061  0  0  -0.043151  0  3.9851  0  0  -0.054622  0  4.008554  0  0  -0.013924  -0.035766  0  3.969249  0
C  C97  1  0.94463517  0.28865948  0.57772888  1  0  -0.071739  0  3.747288  0  0  -0.043302  0  3.985177  0  0  -0.054782  0  4.008634  0  0  -0.014011  -0.035922  0  3.96932  0
C  C98  1  0.94356935  0.62797752  0.35925193  1  0  -0.039108  0  3.670198  0  0  -0.082837  0  3.924631  0  0  -0.076963  0  3.941379  0  0  -0.064884  -0.08551  0  3.912369  0
C  C99  1  0.05643249  0.37201792  0.64074979  1  0  -0.039073  0  3.670316  0  0  -0.082818  0  3.924728  0  0  -0.076936  0  3.94147  0  0  -0.064867  -0.085493  0  3.912465  0
C  C100  1  0.92730126  0.48195099  0.33443256  1  0  -0.100337  0  3.786084  0  0  -0.073278  0  4.026949  0  0  -0.086099  0  4.052036  0  0  -0.019768  -0.065534  0  4.010175  0
C  C101  1  0.07269995  0.51804559  0.66556707  1  0  -0.100331  0  3.78595  0  0  -0.073292  0  4.02685  0  0  -0.086113  0  4.051937  0  0  -0.019769  -0.065537  0  4.010063  0
C  C102  1  0.01841779  0.41703516  0.37476715  1  0  -0.034161  0  3.641143  0  0  -0.074594  0  3.888006  0  0  -0.068644  0  3.904964  0  0  -0.063073  -0.077291  0  3.875761  0
C  C103  1  0.98158123  0.58295587  0.62522989  1  0  -0.033966  0  3.64106  0  0  -0.074368  0  3.887906  0  0  -0.068422  0  3.90487  0  0  -0.062984  -0.07707  0  3.875663  0
C  C104  1  0.13156023  0.50130836  0.43780267  1  0  -0.080565  0  3.752653  0  0  -0.0535  0  3.993405  0  0  -0.065495  0  4.018125  0  0  -0.016605  -0.046132  0  3.977035  0
C  C105  1  0.86843729  0.49868151  0.56219574  1  0  -0.080469  0  3.752638  0  0  -0.053454  0  3.993419  0  0  -0.06545  0  4.01814  0  0  -0.016592  -0.046083  0  3.977054  0
C  C106  1  0.15171498  0.64909222  0.46031349  1  0  -0.02296  0  3.640796  0  0  -0.064355  0  3.886657  0  0  -0.058587  0  3.903693  0  0  -0.057863  -0.068257  0  3.875886  0
C  C107  1  0.84827735  0.35089530  0.53968797  1  0  -0.023142  0  3.641119  0  0  -0.064499  0  3.886902  0  0  -0.058723  0  3.903932  0  0  -0.057931  -0.068398  0  3.876129  0
C  C108  1  0.07583903  0.86866318  0.44778499  1  0  0.680889  0  3.88182  0  0  0.619825  0  4.183749  0  0  0.655746  0  4.174479  0  0  0.222083  0.595098  0  4.189487  0
C  C109  1  0.92416408  0.13133003  0.55221779  1  0  0.680709  0  3.881722  0  0  0.619699  0  4.183543  0  0  0.655616  0  4.174285  0  0  0.222002  0.594999  0  4.189243  0
C  C110  1  0.81505839  0.40135957  0.26417495  1  0  0.663456  0  3.811048  0  0  0.611241  0  4.105478  0  0  0.645368  0  4.097537  0  0  0.239731  0.588034  0  4.110749  0
C  C111  1  0.18494114  0.59864368  0.73582484  1  0  0.663452  0  3.811144  0  0  0.611212  0  4.105619  0  0  0.645339  0  4.097677  0  0  0.239694  0.588  0  4.11089  0
N  N112  1  0.64222764  0.25541864  0.92404909  1  0  -0.350989  0  3.239113  0  0  -0.29059  0  3.54816  0  0  -0.309351  0  3.560744  0  0  -0.274811  -0.277687  0  3.539266  0
N  N113  1  0.35777252  0.74458349  0.07595071  1  0  -0.350965  0  3.239141  0  0  -0.290573  0  3.548191  0  0  -0.309323  0  3.56079  0  0  -0.27481  -0.277672  0  3.539301  0
N  N114  1  0.77980885  0.30217324  0.90490392  1  0  -0.217026  0  3.465499  0  0  -0.167264  0  3.705396  0  0  -0.180543  0  3.723041  0  0  -0.28658  -0.158743  0  3.693512  0
N  N115  1  0.22019111  0.69783111  0.09509649  1  0  -0.216913  0  3.465426  0  0  -0.167211  0  3.705355  0  0  -0.180491  0  3.722998  0  0  -0.286566  -0.158692  0  3.693472  0
N  N116  1  0.39495333  0.24710843  0.61930599  1  0  -0.329138  0  3.229289  0  0  -0.272185  0  3.537051  0  0  -0.289692  0  3.54893  0  0  -0.269154  -0.260094  0  3.528597  0
N  N117  1  0.60504703  0.75289147  0.38069424  1  0  -0.329218  0  3.229277  0  0  -0.27231  0  3.537076  0  0  -0.289814  0  3.548953  0  0  -0.2692  -0.260219  0  3.528617  0
N  N118  1  0.45843498  0.39755211  0.64004484  1  0  -0.206505  0  3.470944  0  0  -0.157346  0  3.713343  0  0  -0.170134  0  3.730326  0  0  -0.285509  -0.148712  0  3.70099  0
N  N119  1  0.54157183  0.60244788  0.35995496  1  0  -0.206299  0  3.470935  0  0  -0.157152  0  3.71318  0  0  -0.169941  0  3.730165  0  0  -0.285409  -0.148515  0  3.700822  0
O  O120  1  0.43875264  0.10397628  0.03856410  1  0  -0.668432  0  2.087425  0  0  -0.59033  0  2.371768  0  0  -0.619729  0  2.355144  0  0  -0.325343  -0.569182  0  2.382665  0
O  O121  1  0.56124390  0.89603024  0.96143714  1  0  -0.668538  0  2.087408  0  0  -0.590436  0  2.371778  0  0  -0.619835  0  2.35515  0  0  -0.32542  -0.569298  0  2.382691  0
O  O122  1  0.66838779  0.41663280  0.08213906  1  0  -0.830089  0  1.867214  0  0  -0.767768  0  2.063839  0  0  -0.788068  0  2.031436  0  0  -0.566102  -0.753606  0  2.086919  0
O  O123  1  0.33160983  0.58337380  0.91785863  1  0  -0.830187  0  1.867198  0  0  -0.767809  0  2.063884  0  0  -0.788111  0  2.031473  0  0  -0.566099  -0.753645  0  2.086964  0
O  O124  1  0.44244763  0.19607302  0.46011868  1  0  -0.829753  0  1.873765  0  0  -0.764576  0  2.06474  0  0  -0.785726  0  2.029682  0  0  -0.571788  -0.749528  0  2.089946  0
O  O125  1  0.55756026  0.80392693  0.53988385  1  0  -0.829797  0  1.873661  0  0  -0.764621  0  2.064638  0  0  -0.785769  0  2.029579  0  0  -0.571801  -0.749573  0  2.089844  0
O  O126  1  0.54639562  0.10433554  0.15514938  1  0  -0.620221  0  2.018693  0  0  -0.565622  0  2.250732  0  0  -0.590265  0  2.241105  0  0  -0.306195  -0.547862  0  2.256706  0
O  O127  1  0.45360005  0.89566875  0.84485114  1  0  -0.620276  0  2.018571  0  0  -0.565701  0  2.250638  0  0  -0.590345  0  2.241014  0  0  -0.30623  -0.547938  0  2.256602  0
O  O128  1  0.97690292  0.99431136  0.29742124  1  0  -0.538401  0  2.066182  0  0  -0.484843  0  2.275049  0  0  -0.50815  0  2.259067  0  0  -0.320065  -0.468848  0  2.284958  0
O  O129  1  0.02309832  0.00569075  0.70258076  1  0  -0.538404  0  2.066176  0  0  -0.484873  0  2.275056  0  0  -0.50818  0  2.259073  0  0  -0.320095  -0.468876  0  2.284941  0
O  O130  1  0.22859255  0.02252479  0.33259372  1  0  -0.588699  0  1.955488  0  0  -0.541855  0  2.169266  0  0  -0.563181  0  2.160166  0  0  -0.294927  -0.526744  0  2.17578  0
O  O131  1  0.77140825  0.97747625  0.66740556  1  0  -0.588678  0  1.95555  0  0  -0.541845  0  2.169289  0  0  -0.563172  0  2.160188  0  0  -0.294931  -0.526733  0  2.175803  0
O  O132  1  0.82212495  0.17960855  0.07484036  1  0  -0.660541  0  2.09841  0  0  -0.588657  0  2.386519  0  0  -0.617115  0  2.36887  0  0  -0.330564  -0.56854  0  2.398771  0
O  O133  1  0.17787310  0.82039911  0.92516056  1  0  -0.660538  0  2.098335  0  0  -0.588635  0  2.386421  0  0  -0.617098  0  2.368784  0  0  -0.330549  -0.568528  0  2.398694  0
O  O134  1  0.99215277  0.26029280  0.00416651  1  0  -0.609048  0  1.941224  0  0  -0.564515  0  2.152864  0  0  -0.587057  0  2.143147  0  0  -0.322988  -0.548716  0  2.159029  0
O  O135  1  0.00783702  0.73969921  0.99583127  1  0  -0.609087  0  1.941208  0  0  -0.564547  0  2.152845  0  0  -0.587092  0  2.143125  0  0  -0.323003  -0.548746  0  2.159002  0
O  O136  1  0.17482199  0.28985343  0.47050475  1  0  -0.642121  0  2.076516  0  0  -0.570806  0  2.356487  0  0  -0.599645  0  2.34066  0  0  -0.316147  -0.550619  0  2.367785  0
O  O137  1  0.82518136  0.71014318  0.52949508  1  0  -0.642128  0  2.076594  0  0  -0.570759  0  2.356495  0  0  -0.599599  0  2.340678  0  0  -0.316105  -0.550575  0  2.367806  0
O  O138  1  0.34910007  0.51789592  0.53042032  1  0  -0.63323  0  2.006436  0  0  -0.575375  0  2.227735  0  0  -0.600179  0  2.217343  0  0  -0.308207  -0.557983  0  2.234594  0
O  O139  1  0.65090029  0.48210394  0.46958253  1  0  -0.633249  0  2.006417  0  0  -0.575486  0  2.227704  0  0  -0.600285  0  2.217308  0  0  -0.30826  -0.558088  0  2.234568  0
O  O140  1  0.97305507  0.91638608  0.42116264  1  0  -0.664117  0  2.049924  0  0  -0.611156  0  2.300102  0  0  -0.635003  0  2.285778  0  0  -0.317627  -0.593651  0  2.309531  0
O  O141  1  0.02695322  0.08360946  0.57883813  1  0  -0.664005  0  2.04974  0  0  -0.611089  0  2.299928  0  0  -0.634931  0  2.285605  0  0  -0.317606  -0.593597  0  2.309344  0
O  O142  1  0.20118245  0.94640381  0.49563023  1  0  -0.618894  0  2.086098  0  0  -0.537618  0  2.354412  0  0  -0.567513  0  2.33899  0  0  -0.306107  -0.516306  0  2.364564  0
O  O143  1  0.79882628  0.05359287  0.50436907  1  0  -0.618659  0  2.085977  0  0  -0.537445  0  2.354313  0  0  -0.567337  0  2.338888  0  0  -0.305998  -0.516152  0  2.364474  0
O  O144  1  0.74342584  0.46302326  0.22526180  1  0  -0.586238  0  1.969686  0  0  -0.533645  0  2.183363  0  0  -0.556474  0  2.174299  0  0  -0.2914  -0.518164  0  2.189267  0
O  O145  1  0.25658017  0.53698565  0.77473733  1  0  -0.586244  0  1.969736  0  0  -0.533621  0  2.183399  0  0  -0.556449  0  2.174334  0  0  -0.291307  -0.518141  0  2.189305  0
O  O146  1  0.80059569  0.26153590  0.24634355  1  0  -0.546391  0  2.114545  0  0  -0.49306  0  2.333428  0  0  -0.515886  0  2.315636  0  0  -0.317302  -0.477222  0  2.345067  0
O  O147  1  0.19940276  0.73846736  0.75365457  1  0  -0.546363  0  2.114624  0  0  -0.493036  0  2.333481  0  0  -0.515859  0  2.315687  0  0  -0.317376  -0.477204  0  2.345136  0
