# generated using pymatgen
data_Cd2H32C37N5O11
_symmetry_space_group_name_H-M   'P 1'
_cell_length_a   16.70517297
_cell_length_b   18.47686140
_cell_length_c   19.17604087
_cell_angle_alpha   89.99992753
_cell_angle_beta   90.00000114
_cell_angle_gamma   107.12286344
_symmetry_Int_Tables_number   1
_chemical_formula_structural   Cd2H32C37N5O11
_chemical_formula_sum   'Cd8 H128 C148 N20 O44'
_cell_volume   5656.51084868
_cell_formula_units_Z   4
loop_
 _symmetry_equiv_pos_site_id
 _symmetry_equiv_pos_as_xyz
  1  'x, y, z'
loop_
 _atom_site_type_symbol
 _atom_site_label
 _atom_site_symmetry_multiplicity
 _atom_site_fract_x
 _atom_site_fract_y
 _atom_site_fract_z
 _atom_site_occupancy
 _atom_site_pbe_bader_charge
 _atom_site_pbe_bader_spin_density
 _atom_site_pbe_cm5_charge
 _atom_site_pbe_ddec_charge
 _atom_site_pbe_ddec_spin_density
 _atom_site_pbe_ddec_sum_bond_order
 _atom_site_pbe_magmom
Cd  Cd0  1  0.87311120  0.72251201  0.26724243  1  1.318888  0  0.782412  0.89616  0  2.198745  0
Cd  Cd1  1  0.12688873  0.77748801  0.76724236  1  1.318864  0  0.782415  0.896185  0  2.198725  0
Cd  Cd2  1  0.12688870  0.27748741  0.73275745  1  1.318866  0  0.782423  0.896216  0  2.198705  0
Cd  Cd3  1  0.87311154  0.22251254  0.23275751  1  1.318875  0  0.782396  0.896144  0  2.198776  0
Cd  Cd4  1  0.05325011  0.73931421  0.37785805  1  1.315246  0  0.768193  0.97108  0  2.116347  0
Cd  Cd5  1  0.94674978  0.76068565  0.87785802  1  1.315253  0  0.768177  0.971009  0  2.116431  0
Cd  Cd6  1  0.94674998  0.26068577  0.62214287  1  1.315251  0  0.768191  0.971085  0  2.116331  0
Cd  Cd7  1  0.05325031  0.23931433  0.12214238  1  1.315242  0  0.768191  0.971078  0  2.116332  0
H  H8  1  0.84377417  0.74249811  0.05498849  1  0.555616  0  0.30925  0.272939  0  1.017871  0
H  H9  1  0.15622627  0.75750164  0.55498845  1  0.55541  0  0.309262  0.272926  0  1.017843  0
H  H10  1  0.15622670  0.25750243  0.94501139  1  0.555614  0  0.309239  0.272947  0  1.017866  0
H  H11  1  0.84377442  0.24249834  0.44501143  1  0.555617  0  0.309234  0.272915  0  1.017902  0
H  H12  1  0.47951995  0.71555462  0.93010345  1  0.443355  0  0.321361  0.26948  0  0.943599  0
H  H13  1  0.52048171  0.78444516  0.43010499  1  0.443391  0  0.321381  0.269516  0  0.943624  0
H  H14  1  0.52048014  0.28444536  0.06989591  1  0.443368  0  0.321364  0.269489  0  0.943633  0
H  H15  1  0.47951861  0.21555368  0.56989436  1  0.443418  0  0.321388  0.269505  0  0.943541  0
H  H16  1  0.10601101  0.77343569  0.03565392  1  0.062623  0  0.102247  0.11151  0  1.028999  0
H  H17  1  0.89398902  0.72656466  0.53565341  1  0.0626  0  0.102227  0.111489  0  1.029022  0
H  H18  1  0.89398847  0.22656429  0.96434700  1  0.062598  0  0.10224  0.111477  0  1.029006  0
H  H19  1  0.10601125  0.27343588  0.46434647  1  0.062611  0  0.102237  0.111499  0  1.029007  0
H  H20  1  0.25569406  0.80459977  0.07215413  1  0.076029  0  0.09497  0.099277  0  1.019212  0
H  H21  1  0.74430633  0.69540166  0.57215366  1  0.076022  0  0.094977  0.099288  0  1.019228  0
H  H22  1  0.74430598  0.19540191  0.92784626  1  0.076024  0  0.094976  0.09929  0  1.019226  0
H  H23  1  0.25569473  0.30459945  0.42784621  1  0.076225  0  0.094967  0.099288  0  1.019218  0
H  H24  1  0.29105401  0.80132127  0.19719611  1  0.061458  0  0.102299  0.10853  0  1.017345  0
H  H25  1  0.70894632  0.69867998  0.69719563  1  0.061464  0  0.102296  0.108494  0  1.017384  0
H  H26  1  0.70894566  0.19867928  0.80280429  1  0.06145  0  0.102287  0.108477  0  1.017402  0
H  H27  1  0.29105492  0.30132170  0.30280424  1  0.061422  0  0.102296  0.108507  0  1.01745  0
H  H28  1  0.97233848  0.74278101  0.05435071  1  0.09884  0  0.120574  0.09698  0  1.025491  0
H  H29  1  0.02766196  0.75721875  0.55435015  1  0.098823  0  0.120585  0.096977  0  1.025461  0
H  H30  1  0.02766202  0.25721841  0.94564968  1  0.098829  0  0.120579  0.096989  0  1.025448  0
H  H31  1  0.97233854  0.24278066  0.44564972  1  0.098829  0  0.120585  0.096999  0  1.025468  0
H  H32  1  0.73843358  0.70066881  0.99074841  1  0.080584  0  0.107  0.108145  0  1.035793  0
H  H33  1  0.26156643  0.79933146  0.49074836  1  0.080602  0  0.107008  0.108153  0  1.035774  0
H  H34  1  0.26156531  0.29933117  0.00925147  1  0.080588  0  0.107011  0.108151  0  1.035762  0
H  H35  1  0.73843365  0.20066852  0.50925255  1  0.080589  0  0.106992  0.108133  0  1.03579  0
H  H36  1  0.61148272  0.70641557  0.92800604  1  0.007347  0  0.101995  0.103929  0  1.016553  0
H  H37  1  0.38851810  0.79358535  0.42800706  1  0.007387  0  0.101995  0.10389  0  1.01657  0
H  H38  1  0.38851713  0.29358555  0.07199279  1  0.007386  0  0.102009  0.103941  0  1.016564  0
H  H39  1  0.61148175  0.20641576  0.57199230  1  0.007406  0  0.101961  0.103846  0  1.01658  0
H  H40  1  0.48283241  0.70401577  0.12312822  1  0.127425  0  0.107736  0.127441  0  1.029521  0
H  H41  1  0.51716823  0.79598276  0.62312919  1  0.12725  0  0.10773  0.127448  0  1.029485  0
H  H42  1  0.51716772  0.29598251  0.87687165  1  0.127267  0  0.107741  0.127453  0  1.029481  0
H  H43  1  0.48283426  0.20401722  0.37686912  1  0.127397  0  0.107703  0.127411  0  1.029499  0
H  H44  1  0.61173887  0.69863823  0.18622519  1  0.046146  0  0.105558  0.102638  0  1.01431  0
H  H45  1  0.38826133  0.80136078  0.68622511  1  0.046146  0  0.105559  0.102627  0  1.014308  0
H  H46  1  0.38826126  0.30136006  0.81377468  1  0.046136  0  0.105547  0.102613  0  1.01433  0
H  H47  1  0.61174116  0.19863920  0.31377320  1  0.046095  0  0.105511  0.102575  0  1.014323  0
H  H48  1  0.43589007  0.80129761  0.88161215  1  0.041004  0  0.107928  0.10762  0  1.004272  0
H  H49  1  0.56411046  0.69870054  0.38161276  1  0.040986  0  0.107916  0.107608  0  1.00421  0
H  H50  1  0.56411025  0.19870123  0.11838824  1  0.040978  0  0.10791  0.107595  0  1.004222  0
H  H51  1  0.43589124  0.30129887  0.61838711  1  0.040975  0  0.107945  0.107651  0  1.004221  0
H  H52  1  0.33236813  0.82272265  0.79581445  1  0.141176  0  0.119733  0.097278  0  1.010409  0
H  H53  1  0.66763280  0.67727676  0.29581509  1  0.141528  0  0.119722  0.097268  0  1.010446  0
H  H54  1  0.66763237  0.17727676  0.20418595  1  0.141486  0  0.119716  0.097257  0  1.01042  0
H  H55  1  0.33236931  0.32272209  0.70418583  1  0.141175  0  0.119734  0.097286  0  1.010401  0
H  H56  1  0.13139452  0.69924195  0.91387330  1  0.165086  0  0.118903  0.097914  0  1.030001  0
H  H57  1  0.86860571  0.80075899  0.41387275  1  0.165079  0  0.118903  0.097949  0  1.029904  0
H  H58  1  0.86860534  0.30075916  0.08612709  1  0.165085  0  0.118897  0.097912  0  1.029959  0
H  H59  1  0.13139516  0.19924156  0.58612660  1  0.165097  0  0.118898  0.097922  0  1.029949  0
H  H60  1  0.22639975  0.67004102  0.00432061  1  0.117672  0  0.115667  0.123779  0  1.005021  0
H  H61  1  0.77360053  0.82995824  0.50432102  1  0.117675  0  0.115646  0.123745  0  1.005025  0
H  H62  1  0.77359974  0.32995896  0.99567979  1  0.117681  0  0.115643  0.123746  0  1.005029  0
H  H63  1  0.22640034  0.17004230  0.49567886  1  0.11768  0  0.115659  0.123778  0  1.005029  0
H  H64  1  0.29581858  0.75194747  0.30396948  1  0.057824  0  0.100548  0.096987  0  0.98471  0
H  H65  1  0.70418230  0.74805363  0.80396947  1  0.057778  0  0.100549  0.096982  0  0.984702  0
H  H66  1  0.70418321  0.24805591  0.69603091  1  0.057744  0  0.100565  0.096974  0  0.984722  0
H  H67  1  0.29581894  0.25194805  0.19603041  1  0.057918  0  0.100555  0.096995  0  0.984709  0
H  H68  1  0.25706356  0.78291846  0.38237668  1  0.066976  0  0.107112  0.11238  0  1.022465  0
H  H69  1  0.74293692  0.71708140  0.88237670  1  0.06698  0  0.107103  0.112373  0  1.022483  0
H  H70  1  0.74293726  0.21708379  0.61762371  1  0.066985  0  0.107083  0.112337  0  1.02245  0
H  H71  1  0.25706276  0.28291915  0.11762317  1  0.066971  0  0.107097  0.112367  0  1.022509  0
H  H72  1  0.29349151  0.84866058  0.31197003  1  0.050014  0  0.104521  0.10521  0  0.975088  0
H  H73  1  0.70650997  0.65134051  0.81196909  1  0.050034  0  0.104523  0.105183  0  0.975122  0
H  H74  1  0.70650770  0.15134224  0.68803036  1  0.05007  0  0.10455  0.105215  0  0.975125  0
H  H75  1  0.29349187  0.34866117  0.18802922  1  0.050001  0  0.104512  0.105183  0  0.975117  0
H  H76  1  0.83087728  0.45375996  0.32787033  1  0.116185  0  0.105638  0.111301  0  1.008421  0
H  H77  1  0.16912310  0.04624041  0.82787107  1  0.116208  0  0.105644  0.111301  0  1.008432  0
H  H78  1  0.16912281  0.54624002  0.67212955  1  0.116188  0  0.105647  0.11131  0  1.008419  0
H  H79  1  0.83087639  0.95375957  0.17212933  1  0.116186  0  0.105642  0.111293  0  1.008446  0
H  H80  1  0.83799061  0.34920995  0.40700665  1  0.072477  0  0.097341  0.090194  0  1.059262  0
H  H81  1  0.16200836  0.15078974  0.90700674  1  0.072486  0  0.097348  0.0902  0  1.059258  0
H  H82  1  0.16200810  0.65078947  0.59299323  1  0.072494  0  0.097332  0.090164  0  1.059245  0
H  H83  1  0.83799053  0.84921024  0.09299366  1  0.072482  0  0.097348  0.090171  0  1.059254  0
H  H84  1  0.91699055  0.50807101  0.57532753  1  0.100305  0  0.103248  0.107096  0  1.01654  0
H  H85  1  0.08300868  0.99192871  0.07532777  1  0.100463  0  0.103271  0.107137  0  1.01655  0
H  H86  1  0.08300838  0.49192727  0.42467287  1  0.100482  0  0.103241  0.10709  0  1.016538  0
H  H87  1  0.91699081  0.00807127  0.92467263  1  0.10048  0  0.103241  0.107064  0  1.016572  0
H  H88  1  0.91091348  0.61327001  0.49512269  1  0.062069  0  0.101278  0.104208  0  1.022908  0
H  H89  1  0.08908695  0.88672968  0.99512354  1  0.062044  0  0.101265  0.104192  0  1.022908  0
H  H90  1  0.08908744  0.38672884  0.50487823  1  0.062105  0  0.101263  0.104185  0  1.022952  0
H  H91  1  0.91091254  0.11327030  0.00487686  1  0.062055  0  0.101277  0.104226  0  1.022903  0
H  H92  1  0.92259290  0.86725108  0.53084837  1  0.096211  0  0.100536  0.100969  0  1.043622  0
H  H93  1  0.07740677  0.63274814  0.03084853  1  0.096236  0  0.100558  0.10098  0  1.043597  0
H  H94  1  0.07740857  0.13274946  0.46915255  1  0.096208  0  0.100553  0.100961  0  1.043635  0
H  H95  1  0.92259078  0.36724957  0.96915187  1  0.09617  0  0.100574  0.100983  0  1.043588  0
H  H96  1  0.11793829  0.02436447  0.41540012  1  0.077482  0  0.104617  0.1083  0  1.001526  0
H  H97  1  0.88205990  0.47563464  0.91539879  1  0.077811  0  0.104644  0.1083  0  1.001508  0
H  H98  1  0.88206180  0.97563551  0.58460132  1  0.077526  0  0.104633  0.108278  0  1.001444  0
H  H99  1  0.11793784  0.52436364  0.08459952  1  0.077658  0  0.104627  0.108339  0  1.001486  0
H  H100  1  0.08223208  0.91977916  0.26464739  1  0.094737  0  0.105692  0.173004  0  0.983502  0
H  H101  1  0.91776744  0.58022143  0.76464707  1  0.094718  0  0.105684  0.173019  0  0.983509  0
H  H102  1  0.91776778  0.08022195  0.73535352  1  0.094669  0  0.105695  0.173019  0  0.983516  0
H  H103  1  0.08223163  0.41977912  0.23535281  1  0.094744  0  0.105697  0.173012  0  0.983496  0
H  H104  1  0.05639143  0.97440646  0.19630844  1  0.074515  0  0.10013  0.150378  0  1.016345  0
H  H105  1  0.94360752  0.52559422  0.69630870  1  0.074541  0  0.100148  0.150409  0  1.016328  0
H  H106  1  0.94360843  0.02559465  0.80369196  1  0.074545  0  0.100126  0.150364  0  1.016346  0
H  H107  1  0.05639215  0.47440632  0.30369170  1  0.07453  0  0.10012  0.150356  0  1.016339  0
H  H108  1  0.02230890  0.87324715  0.19225187  1  0.060311  0  0.093492  0.143845  0  1.043566  0
H  H109  1  0.97769065  0.62675354  0.69225149  1  0.060285  0  0.093482  0.143831  0  1.043563  0
H  H110  1  0.97769095  0.12675396  0.80774904  1  0.060266  0  0.093474  0.143801  0  1.043583  0
H  H111  1  0.02230884  0.37324644  0.30774839  1  0.06029  0  0.09348  0.143823  0  1.043583  0
H  H112  1  0.06333189  0.06155575  0.30934380  1  0.080445  0  0.099973  0.111962  0  0.998016  0
H  H113  1  0.93666730  0.43844465  0.80934407  1  0.080414  0  0.099971  0.111945  0  0.998008  0
H  H114  1  0.93666658  0.93844480  0.69065660  1  0.080415  0  0.099967  0.111935  0  0.998015  0
H  H115  1  0.06333117  0.56155590  0.19065632  1  0.080468  0  0.099972  0.111968  0  0.998037  0
H  H116  1  0.97795784  0.09985063  0.29881919  1  0.103548  0  0.106493  0.123447  0  1.020953  0
H  H117  1  0.02204118  0.40014922  0.79881898  1  0.103561  0  0.106464  0.123418  0  1.020966  0
H  H118  1  0.02204045  0.90014935  0.70118121  1  0.103581  0  0.106472  0.12345  0  1.020939  0
H  H119  1  0.97795771  0.59985076  0.20118142  1  0.103546  0  0.10649  0.123442  0  1.020965  0
H  H120  1  0.02033557  0.06746151  0.22472831  1  0.078189  0  0.106304  0.130454  0  1.005134  0
H  H121  1  0.97966307  0.43253901  0.72472859  1  0.078177  0  0.10629  0.130404  0  1.00515  0
H  H122  1  0.97966291  0.93253904  0.77527209  1  0.078159  0  0.106291  0.130411  0  1.005139  0
H  H123  1  0.02033601  0.56746154  0.27527180  1  0.078168  0  0.106298  0.13045  0  1.005143  0
H  H124  1  0.82840278  0.92397208  0.33438807  1  0.086266  0  0.103397  0.122317  0  1.025083  0
H  H125  1  0.17159634  0.57602728  0.83438721  1  0.086305  0  0.103354  0.122219  0  1.025075  0
H  H126  1  0.17159611  0.07602790  0.66561232  1  0.086288  0  0.103383  0.122291  0  1.025047  0
H  H127  1  0.82840296  0.42397214  0.16561266  1  0.086297  0  0.103349  0.122233  0  1.025065  0
H  H128  1  0.83949693  0.02034849  0.31003897  1  0.097851  0  0.104673  0.132414  0  1.001872  0
H  H129  1  0.16050208  0.47965134  0.81003866  1  0.097863  0  0.104681  0.132397  0  1.001867  0
H  H130  1  0.16050196  0.97965149  0.68996143  1  0.097913  0  0.104688  0.132425  0  1.001861  0
H  H131  1  0.83949662  0.52034807  0.18996174  1  0.09784  0  0.104705  0.132439  0  1.001865  0
H  H132  1  0.89073703  0.99993413  0.38685767  1  0.039205  0  0.096359  0.110778  0  1.01109  0
H  H133  1  0.10926225  0.50006572  0.88685742  1  0.039207  0  0.096332  0.110709  0  1.011177  0
H  H134  1  0.10926187  0.00006585  0.61314273  1  0.039209  0  0.096348  0.110765  0  1.011138  0
H  H135  1  0.89073742  0.49993483  0.11314297  1  0.039218  0  0.096316  0.110678  0  1.011071  0
C  C136  1  0.16259652  0.77093777  0.23126155  1  0.442348  0  0.062683  0.127396  0  4.011881  0
C  C137  1  0.83740320  0.72906344  0.73126104  1  0.442315  0  0.062673  0.127277  0  4.011988  0
C  C138  1  0.83740237  0.22906221  0.76873884  1  0.442334  0  0.062686  0.127308  0  4.01192  0
C  C139  1  0.16259744  0.27093824  0.26873883  1  0.442323  0  0.062656  0.127286  0  4.01191  0
C  C140  1  0.07573181  0.75376766  0.21314521  1  0.676183  0  0.088408  0.2316  0  4.092774  0
C  C141  1  0.92426792  0.74623357  0.71314415  1  0.676206  0  0.088428  0.23168  0  4.092772  0
C  C142  1  0.92426764  0.24623402  0.78685571  1  0.676194  0  0.088473  0.231751  0  4.092681  0
C  C143  1  0.07573277  0.25376641  0.28685572  1  0.676486  0  0.088441  0.231709  0  4.092666  0
C  C144  1  0.05677711  0.75524893  0.14048422  1  -0.022763  0  -0.036647  -0.06949  0  4.04784  0
C  C145  1  0.94322288  0.74475127  0.64048317  1  -0.022782  0  -0.036656  -0.069553  0  4.04782  0
C  C146  1  0.94322238  0.24475105  0.85951617  1  -0.0228  0  -0.036661  -0.069567  0  4.047854  0
C  C147  1  0.05677762  0.25524815  0.35951618  1  -0.022766  0  -0.036658  -0.069505  0  4.04781  0
C  C148  1  0.12287869  0.77374403  0.09066319  1  -0.056512  0  -0.100955  -0.138933  0  4.029878  0
C  C149  1  0.87712132  0.72625624  0.59066216  1  -0.056394  0  -0.100927  -0.138887  0  4.029882  0
C  C150  1  0.87712139  0.22625595  0.90933773  1  -0.056385  0  -0.100917  -0.138836  0  4.029795  0
C  C151  1  0.12287896  0.27374431  0.40933720  1  -0.056509  0  -0.100994  -0.138989  0  4.029764  0
C  C152  1  0.20562147  0.79075280  0.11061724  1  -0.0677  0  -0.116444  -0.104716  0  4.105542  0
C  C153  1  0.79437872  0.70924801  0.61061675  1  -0.067847  0  -0.116446  -0.104779  0  4.105593  0
C  C154  1  0.79437880  0.20924774  0.88938315  1  -0.06785  0  -0.116459  -0.104806  0  4.105587  0
C  C155  1  0.20562234  0.29075311  0.38938312  1  -0.067912  0  -0.116375  -0.104675  0  4.105378  0
C  C156  1  0.22569013  0.78902686  0.18173672  1  0.018481  0  -0.108779  -0.1874  0  4.048343  0
C  C157  1  0.77431021  0.71097441  0.68173623  1  0.018501  0  -0.108781  -0.187286  0  4.048328  0
C  C158  1  0.77430954  0.21097368  0.81826420  1  0.018495  0  -0.108775  -0.187289  0  4.048398  0
C  C159  1  0.22569066  0.28902614  0.31826364  1  0.018521  0  -0.108791  -0.187343  0  4.048373  0
C  C160  1  0.97418695  0.74052358  0.11153353  1  0.608237  0  0.068409  0.066163  0  3.91199  0
C  C161  1  0.02581425  0.75947666  0.61153296  1  0.608341  0  0.068448  0.066288  0  3.911881  0
C  C162  1  0.02581296  0.25947583  0.88846687  1  0.608341  0  0.068431  0.066233  0  3.911944  0
C  C163  1  0.97418722  0.24052388  0.38846691  1  0.6083  0  0.068424  0.066186  0  3.911992  0
C  C164  1  0.75755930  0.69968146  0.13621748  1  1.352444  0  0.237227  0.44239  0  4.125837  0
C  C165  1  0.24244129  0.80031874  0.63621739  1  1.352411  0  0.237241  0.442344  0  4.125788  0
C  C166  1  0.24244060  0.30031795  0.86378187  1  1.351958  0  0.237219  0.442336  0  4.125921  0
C  C167  1  0.75755944  0.19967954  0.36378301  1  1.351945  0  0.237233  0.442371  0  4.125844  0
C  C168  1  0.68390424  0.70012435  0.09344327  1  -0.010431  0  -0.02026  -0.042488  0  4.01437  0
C  C169  1  0.31609637  0.79987592  0.59344370  1  -0.010442  0  -0.020307  -0.042555  0  4.01444  0
C  C170  1  0.31609507  0.29987506  0.90655556  1  -0.010429  0  -0.020306  -0.042511  0  4.014367  0
C  C171  1  0.68390510  0.20012463  0.40655565  1  -0.010381  0  -0.020324  -0.042569  0  4.014436  0
C  C172  1  0.68301460  0.70148982  0.02026184  1  -0.082953  0  -0.082659  -0.083025  0  3.995414  0
C  C173  1  0.31698664  0.79851055  0.52026228  1  -0.08294  0  -0.082668  -0.083032  0  3.99547  0
C  C174  1  0.31698627  0.29851073  0.97973751  1  -0.082933  0  -0.082653  -0.082994  0  3.995411  0
C  C175  1  0.68301442  0.20149056  0.47973760  1  -0.08295  0  -0.082627  -0.082998  0  3.995453  0
C  C176  1  0.61167704  0.70481566  0.98496097  1  0.058583  0  -0.1007  -0.198543  0  3.994478  0
C  C177  1  0.38832376  0.79518518  0.48496198  1  0.058586  0  -0.100675  -0.19845  0  3.994519  0
C  C178  1  0.38832203  0.29518488  0.01503786  1  0.058599  0  -0.100676  -0.198522  0  3.994515  0
C  C179  1  0.61167789  0.20481594  0.51503737  1  0.058633  0  -0.100633  -0.198383  0  3.994452  0
C  C180  1  0.53943841  0.70677353  0.02167037  1  0.317515  0  0.103144  0.262321  0  4.031344  0
C  C181  1  0.46056223  0.79322684  0.52167133  1  0.317805  0  0.103094  0.262259  0  4.031388  0
C  C182  1  0.46056126  0.29322701  0.97832899  1  0.317779  0  0.103144  0.262319  0  4.031368  0
C  C183  1  0.53943864  0.20677371  0.47832802  1  0.317821  0  0.103148  0.262302  0  4.031368  0
C  C184  1  0.53902748  0.70354488  0.09490446  1  -0.030262  0  -0.095753  -0.183759  0  3.955246  0
C  C185  1  0.46097355  0.79645481  0.59490543  1  -0.030173  0  -0.095747  -0.183778  0  3.955292  0
C  C186  1  0.46097303  0.29645453  0.90509489  1  -0.030168  0  -0.095771  -0.183779  0  3.955264  0
C  C187  1  0.53902792  0.20354573  0.40509393  1  -0.030272  0  -0.09574  -0.183708  0  3.95521  0
C  C188  1  0.61084613  0.70029194  0.12948199  1  0.083214  0  -0.077777  -0.064869  0  3.985135  0
C  C189  1  0.38915409  0.79970714  0.62948190  1  0.083227  0  -0.077761  -0.064824  0  3.985157  0
C  C190  1  0.38915418  0.29970691  0.87051736  1  0.08323  0  -0.07774  -0.064824  0  3.985132  0
C  C191  1  0.61084720  0.20029284  0.37051641  1  0.083164  0  -0.077672  -0.064778  0  3.985065  0
C  C192  1  0.39392472  0.71612575  0.00559822  1  1.412605  0  0.243636  0.473027  0  4.116297  0
C  C193  1  0.60607639  0.78387238  0.50560077  1  1.413117  0  0.243611  0.473067  0  4.116546  0
C  C194  1  0.60607560  0.28387310  0.99440061  1  1.413118  0  0.243569  0.472926  0  4.116573  0
C  C195  1  0.39392628  0.21612816  0.49440172  1  1.412589  0  0.24354  0.472943  0  4.116355  0
C  C196  1  0.33857958  0.73099810  0.94917359  1  -0.109842  0  -0.000795  0.002687  0  4.002853  0
C  C197  1  0.66142014  0.76899939  0.44917515  1  -0.109712  0  -0.000786  0.002696  0  4.002723  0
C  C198  1  0.66141991  0.26900188  0.05082629  1  -0.109813  0  -0.000743  0.002805  0  4.002745  0
C  C199  1  0.33858037  0.23100002  0.55082368  1  -0.109736  0  -0.000789  0.002695  0  4.002848  0
C  C200  1  0.36901258  0.77507282  0.89011497  1  -0.02341  0  -0.089873  -0.179369  0  3.997564  0
C  C201  1  0.63098817  0.72492419  0.39011554  1  -0.023276  0  -0.089832  -0.179315  0  3.997503  0
C  C202  1  0.63098774  0.22492603  0.10988543  1  -0.023378  0  -0.089838  -0.17933  0  3.997466  0
C  C203  1  0.36901376  0.27507409  0.60988381  1  -0.023321  0  -0.089892  -0.17939  0  3.997479  0
C  C204  1  0.31200540  0.78854370  0.84247009  1  0.498525  0  0.049566  0.095484  0  3.950936  0
C  C205  1  0.68799491  0.71145565  0.34246964  1  0.49815  0  0.049507  0.0954  0  3.95097  0
C  C206  1  0.68799409  0.21145628  0.15753083  1  0.498175  0  0.049575  0.095497  0  3.950956  0
C  C207  1  0.31200619  0.28854377  0.65752971  1  0.498534  0  0.049588  0.095491  0  3.950952  0
C  C208  1  0.19932921  0.71907012  0.90800660  1  0.493147  0  0.058078  0.111337  0  3.899998  0
C  C209  1  0.80067108  0.78092913  0.40800607  1  0.493135  0  0.058097  0.111295  0  3.899994  0
C  C210  1  0.80067088  0.28092986  0.09199380  1  0.493145  0  0.05811  0.111401  0  3.900004  0
C  C211  1  0.19932961  0.21907085  0.59199381  1  0.493171  0  0.058133  0.111432  0  3.899942  0
C  C212  1  0.25184614  0.70313241  0.95817181  1  0.002275  0  -0.071085  -0.138805  0  3.926025  0
C  C213  1  0.74815495  0.79686564  0.45817282  1  0.00211  0  -0.071058  -0.138767  0  3.925935  0
C  C214  1  0.74815436  0.29686700  0.04182806  1  0.002286  0  -0.071075  -0.138817  0  3.92597  0
C  C215  1  0.25184634  0.20313434  0.54182705  1  0.002113  0  -0.071064  -0.138819  0  3.925971  0
C  C216  1  0.26142190  0.78931277  0.32570440  1  0.398111  0  -0.132764  -0.165417  0  3.90745  0
C  C217  1  0.73857819  0.71068773  0.82570390  1  0.398157  0  -0.132728  -0.165328  0  3.907404  0
C  C218  1  0.73857832  0.21068947  0.67429652  1  0.398143  0  -0.132759  -0.165335  0  3.907441  0
C  C219  1  0.26142167  0.28931338  0.17429545  1  0.39804  0  -0.132742  -0.165376  0  3.907508  0
C  C220  1  0.87137821  0.53984476  0.40653354  1  -0.028655  0  -0.012711  -0.018613  0  3.958257  0
C  C221  1  0.12862286  0.96015506  0.90653430  1  -0.02865  0  -0.012731  -0.018634  0  3.958212  0
C  C222  1  0.12862289  0.46015465  0.59346685  1  -0.028673  0  -0.012731  -0.018618  0  3.958307  0
C  C223  1  0.87137663  0.03984492  0.09346610  1  -0.02867  0  -0.012702  -0.018573  0  3.958224  0
C  C224  1  0.84933698  0.46506682  0.38222617  1  -0.043656  0  -0.084106  -0.093044  0  3.962497  0
C  C225  1  0.15066320  0.03493291  0.88222693  1  -0.043749  0  -0.084139  -0.093053  0  3.962579  0
C  C226  1  0.15066352  0.53493259  0.61777370  1  -0.043547  0  -0.084069  -0.09298  0  3.962441  0
C  C227  1  0.84933510  0.96506707  0.11777347  1  -0.043499  0  -0.084116  -0.093039  0  3.962563  0
C  C228  1  0.85307322  0.40675991  0.42682666  1  -0.026643  0  -0.090243  -0.094724  0  3.97491  0
C  C229  1  0.14692694  0.09323975  0.92682682  1  -0.026534  0  -0.090204  -0.094697  0  3.974884  0
C  C230  1  0.14692729  0.59323950  0.57317322  1  -0.026733  0  -0.090253  -0.094742  0  3.97483  0
C  C231  1  0.85307195  0.90676023  0.07317358  1  -0.026796  0  -0.090247  -0.094716  0  3.974927  0
C  C232  1  0.87776197  0.42190804  0.49658505  1  -0.032269  0  -0.018622  -0.033321  0  3.978325  0
C  C233  1  0.12223756  0.07809153  0.99658575  1  -0.032324  0  -0.018607  -0.033257  0  3.978264  0
C  C234  1  0.12223835  0.57809081  0.50341430  1  -0.032371  0  -0.018603  -0.033278  0  3.978305  0
C  C235  1  0.87776133  0.92190845  0.00341464  1  -0.032329  0  -0.018557  -0.033119  0  3.97817  0
C  C236  1  0.89727669  0.49660956  0.52128406  1  -0.071064  0  -0.082328  -0.089242  0  3.967912  0
C  C237  1  0.10272364  0.00339068  0.02128489  1  -0.071184  0  -0.082363  -0.089338  0  3.968003  0
C  C238  1  0.10272381  0.50338985  0.47871634  1  -0.071119  0  -0.082332  -0.089263  0  3.967931  0
C  C239  1  0.89727525  0.99660930  0.97871550  1  -0.071174  0  -0.082401  -0.08938  0  3.968  0
C  C240  1  0.89434849  0.55500254  0.47660587  1  0.014708  0  -0.083564  -0.090806  0  3.963432  0
C  C241  1  0.10565177  0.94499662  0.97660665  1  0.014712  0  -0.08357  -0.090786  0  3.963329  0
C  C242  1  0.10565243  0.44499631  0.52339453  1  0.014644  0  -0.083582  -0.090812  0  3.963433  0
C  C243  1  0.89434694  0.05500280  0.02339375  1  0.014712  0  -0.08356  -0.090811  0  3.963418  0
C  C244  1  0.87324456  0.60316467  0.35735703  1  1.535642  0  0.199677  0.570758  0  4.191426  0
C  C245  1  0.12675594  0.89683522  0.85735735  1  1.535643  0  0.199673  0.57073  0  4.191417  0
C  C246  1  0.12675673  0.39683531  0.64264336  1  1.535221  0  0.199683  0.570703  0  4.191397  0
C  C247  1  0.87324277  0.10316419  0.14264253  1  1.535216  0  0.199737  0.570789  0  4.191276  0
C  C248  1  0.88912509  0.36098517  0.54346755  1  1.520272  0  0.196362  0.562038  0  4.203714  0
C  C249  1  0.11087385  0.13901448  0.04346822  1  1.520328  0  0.196401  0.562087  0  4.20366  0
C  C250  1  0.11087384  0.63901311  0.45653180  1  1.520315  0  0.196387  0.562127  0  4.203583  0
C  C251  1  0.88912504  0.86098550  0.95653270  1  1.520313  0  0.196313  0.5619  0  4.203869  0
C  C252  1  0.02225990  0.93961536  0.46935909  1  -0.055357  0  -0.015482  -0.020725  0  3.962259  0
C  C253  1  0.97773939  0.56038267  0.96935878  1  -0.055347  0  -0.015513  -0.020858  0  3.962377  0
C  C254  1  0.97774042  0.06038348  0.53064027  1  -0.055588  0  -0.015506  -0.020799  0  3.962238  0
C  C255  1  0.02225858  0.43961448  0.03063901  1  -0.055365  0  -0.015496  -0.020703  0  3.962128  0
C  C256  1  0.95582967  0.92563159  0.51726576  1  -0.098379  0  -0.087268  -0.106036  0  3.974219  0
C  C257  1  0.04416941  0.57436765  0.01726599  1  -0.099076  0  -0.087231  -0.105879  0  3.974068  0
C  C258  1  0.04416982  0.07436839  0.48273359  1  -0.098355  0  -0.087286  -0.106012  0  3.974208  0
C  C259  1  0.95582953  0.42563063  0.98273232  1  -0.098382  0  -0.087309  -0.106023  0  3.974009  0
C  C260  1  0.06641981  0.01452029  0.45256786  1  0.030613  0  -0.085203  -0.102813  0  3.986895  0
C  C261  1  0.93357854  0.48547934  0.95256756  1  0.03025  0  -0.085234  -0.102838  0  3.986904  0
C  C262  1  0.93358051  0.98547856  0.54743149  1  0.030687  0  -0.085215  -0.102764  0  3.986854  0
C  C263  1  0.06641879  0.51451951  0.04743179  1  0.03109  0  -0.085244  -0.10296  0  3.986898  0
C  C264  1  0.04410865  0.87492692  0.43502826  1  1.520026  0  0.188304  0.549749  0  4.241355  0
C  C265  1  0.95589103  0.62507229  0.93502788  1  1.520077  0  0.188389  0.549901  0  4.241263  0
C  C266  1  0.95589204  0.12507306  0.56497265  1  1.520051  0  0.188323  0.549798  0  4.241236  0
C  C267  1  0.04410809  0.37492655  0.06497199  1  1.520251  0  0.188316  0.549796  0  4.241367  0
C  C268  1  0.95447512  0.91766364  0.26633336  1  1.341901  0  0.241002  0.521204  0  4.047592  0
C  C269  1  0.04552361  0.58233638  0.76633354  1  1.341893  0  0.240991  0.521268  0  4.047612  0
C  C270  1  0.04552377  0.08233634  0.73366703  1  1.341836  0  0.241013  0.521345  0  4.047611  0
C  C271  1  0.95447546  0.41766417  0.23366738  1  1.341894  0  0.241019  0.521238  0  4.047592  0
C  C272  1  0.03348555  0.92223324  0.22677618  1  -0.095272  0  -0.242139  -0.511238  0  3.898062  0
C  C273  1  0.96651339  0.57776740  0.72677637  1  -0.095281  0  -0.242163  -0.511305  0  3.898056  0
C  C274  1  0.96651371  0.07776787  0.77322422  1  -0.095168  0  -0.242146  -0.511235  0  3.898066  0
C  C275  1  0.03348569  0.42223315  0.27322402  1  -0.095277  0  -0.242135  -0.511216  0  3.898033  0
C  C276  1  0.00531678  0.05650223  0.28014538  1  0.196211  0  -0.136519  -0.270469  0  3.891829  0
C  C277  1  0.99468225  0.44349764  0.78014566  1  0.196213  0  -0.136492  -0.270327  0  3.891793  0
C  C278  1  0.99468230  0.94349831  0.71985501  1  0.196219  0  -0.136482  -0.270303  0  3.891795  0
C  C279  1  0.00531664  0.55650234  0.21985474  1  0.196191  0  -0.136524  -0.270492  0  3.891891  0
C  C280  1  0.87093895  0.98165926  0.33330804  1  0.243282  0  -0.140743  -0.27451  0  3.898466  0
C  C281  1  0.12906017  0.51834010  0.83330778  1  0.243156  0  -0.140687  -0.274275  0  3.898348  0
C  C282  1  0.12905994  0.01834072  0.66669235  1  0.243129  0  -0.140753  -0.274432  0  3.898396  0
C  C283  1  0.87093932  0.48165988  0.16669262  1  0.243159  0  -0.140718  -0.274381  0  3.898264  0
N  N284  1  0.90343608  0.72508217  0.14569805  1  -0.774166  0  -0.239073  -0.148152  0  3.437164  0
N  N285  1  0.09656391  0.77491803  0.64569746  1  -0.774209  0  -0.239117  -0.148305  0  3.437206  0
N  N286  1  0.09656341  0.27491781  0.85430235  1  -0.774217  0  -0.239063  -0.148172  0  3.437137  0
N  N287  1  0.90343678  0.22508195  0.35430241  1  -0.774217  0  -0.239054  -0.148134  0  3.437165  0
N  N288  1  0.83378065  0.71766048  0.10469428  1  -0.908543  0  -0.301499  -0.246067  0  3.614212  0
N  N289  1  0.16622037  0.78233921  0.60469421  1  -0.908336  0  -0.3015  -0.245935  0  3.614094  0
N  N290  1  0.16622004  0.28233950  0.89530508  1  -0.908523  0  -0.301545  -0.246125  0  3.614205  0
N  N291  1  0.83378073  0.21766021  0.39530567  1  -0.908547  0  -0.301512  -0.246074  0  3.614186  0
N  N292  1  0.47105801  0.71305327  0.98259551  1  -1.252488  0  -0.392821  -0.371252  0  3.581007  0
N  N293  1  0.52894380  0.78694701  0.48259601  1  -1.252735  0  -0.392817  -0.371303  0  3.580945  0
N  N294  1  0.52894226  0.28694728  0.01740436  1  -1.252742  0  -0.392857  -0.37132  0  3.581004  0
N  N295  1  0.47105767  0.21305354  0.51740178  1  -1.252813  0  -0.392835  -0.371269  0  3.581014  0
N  N296  1  0.22889397  0.76060376  0.85086391  1  -1.1987  0  -0.309395  -0.205634  0  3.439828  0
N  N297  1  0.77110653  0.73939613  0.35086447  1  -1.198742  0  -0.309368  -0.205566  0  3.439803  0
N  N298  1  0.77110631  0.23939678  0.14913596  1  -1.198698  0  -0.309428  -0.205711  0  3.439975  0
N  N299  1  0.22889439  0.26060271  0.64913644  1  -1.198704  0  -0.309419  -0.20569  0  3.439938  0
N  N300  1  0.94393118  0.98252465  0.29107670  1  -1.167476  0  -0.278187  -0.025991  0  3.641015  0
N  N301  1  0.05606754  0.51747534  0.79107643  1  -1.167362  0  -0.278144  -0.02611  0  3.641031  0
N  N302  1  0.05606711  0.01747533  0.70892370  1  -1.167374  0  -0.278151  -0.026207  0  3.641181  0
N  N303  1  0.94393153  0.48252521  0.20892344  1  -1.167384  0  -0.278147  -0.025946  0  3.640943  0
O  O304  1  0.17703218  0.76749313  0.30173804  1  -1.089003  0  -0.190467  -0.156881  0  2.73016  0
O  O305  1  0.82296810  0.73250798  0.80173700  1  -1.088999  0  -0.190496  -0.156905  0  2.73013  0
O  O306  1  0.82296809  0.23250742  0.69826235  1  -1.089011  0  -0.190494  -0.156908  0  2.730149  0
O  O307  1  0.17703235  0.26749314  0.19826235  1  -1.088999  0  -0.190483  -0.156888  0  2.730159  0
O  O308  1  0.01883613  0.73778462  0.26253184  1  -1.171521  0  -0.341987  -0.53559  0  2.447479  0
O  O309  1  0.98116358  0.76221654  0.76253129  1  -1.171496  0  -0.342018  -0.535596  0  2.447452  0
O  O310  1  0.98116295  0.26221593  0.73746907  1  -1.17149  0  -0.342054  -0.535665  0  2.44742  0
O  O311  1  0.01883725  0.23778571  0.23746858  1  -1.171784  0  -0.34198  -0.535605  0  2.447386  0
O  O312  1  0.74890715  0.68507271  0.20023227  1  -1.151256  0  -0.296825  -0.490865  0  2.293274  0
O  O313  1  0.25109221  0.81492741  0.70023268  1  -1.151226  0  -0.296835  -0.490855  0  2.293209  0
O  O314  1  0.25109160  0.31492501  0.79976604  1  -1.1508  0  -0.296823  -0.490855  0  2.293332  0
O  O315  1  0.74890871  0.18507144  0.29976719  1  -1.150759  0  -0.296862  -0.490875  0  2.293258  0
O  O316  1  0.37062369  0.70821114  0.06692892  1  -1.113393  0  -0.279912  -0.450788  0  2.076575  0
O  O317  1  0.62937577  0.79178747  0.56692781  1  -1.113979  0  -0.279894  -0.45079  0  2.076934  0
O  O318  1  0.62937561  0.29178827  0.93307199  1  -1.113926  0  -0.279868  -0.450712  0  2.076899  0
O  O319  1  0.37062169  0.20821365  0.43306633  1  -1.113487  0  -0.279937  -0.450824  0  2.076335  0
O  O320  1  0.83916300  0.58912894  0.29795062  1  -1.159039  0  -0.321289  -0.538725  0  2.171212  0
O  O321  1  0.16083632  0.91087103  0.79795092  1  -1.159031  0  -0.321267  -0.538691  0  2.171224  0
O  O322  1  0.16083708  0.41087104  0.70205030  1  -1.158656  0  -0.321278  -0.53868  0  2.171174  0
O  O323  1  0.83916299  0.08912838  0.20204948  1  -1.15863  0  -0.321281  -0.538703  0  2.17119  0
O  O324  1  0.91002615  0.67135663  0.37788313  1  -1.171226  0  -0.34154  -0.589547  0  2.352434  0
O  O325  1  0.08997313  0.82864323  0.87788300  1  -1.171231  0  -0.341539  -0.58954  0  2.352381  0
O  O326  1  0.08997393  0.32864335  0.62211779  1  -1.171216  0  -0.341554  -0.589567  0  2.352345  0
O  O327  1  0.91002636  0.17135675  0.12211739  1  -1.171211  0  -0.341589  -0.589607  0  2.352314  0
O  O328  1  0.91844418  0.37809836  0.60439305  1  -1.152161  0  -0.324081  -0.545858  0  2.186357  0
O  O329  1  0.08155492  0.12190176  0.10439322  1  -1.152196  0  -0.324099  -0.545878  0  2.186336  0
O  O330  1  0.08155452  0.62190105  0.39560683  1  -1.152206  0  -0.324065  -0.545893  0  2.186353  0
O  O331  1  0.91844416  0.87809878  0.89560718  1  -1.152155  0  -0.324043  -0.5458  0  2.186432  0
O  O332  1  0.87232293  0.29236307  0.52061251  1  -1.187146  0  -0.332827  -0.594005  0  2.264535  0
O  O333  1  0.12767663  0.20763661  0.02061258  1  -1.187177  0  -0.332837  -0.59404  0  2.264522  0
O  O334  1  0.12767541  0.70763521  0.47938737  1  -1.187126  0  -0.332839  -0.594046  0  2.264511  0
O  O335  1  0.87232286  0.79236337  0.97938782  1  -1.187184  0  -0.332813  -0.593955  0  2.264584  0
O  O336  1  0.99848535  0.80785639  0.45186912  1  -1.155006  0  -0.331566  -0.561332  0  2.28545  0
O  O337  1  0.00151372  0.69214280  0.95186916  1  -1.155011  0  -0.331608  -0.561387  0  2.285463  0
O  O338  1  0.00151474  0.19214359  0.54813128  1  -1.154996  0  -0.331553  -0.561325  0  2.285448  0
O  O339  1  0.99848481  0.30785605  0.04813176  1  -1.155021  0  -0.3316  -0.561374  0  2.285484  0
O  O340  1  0.10294768  0.88663702  0.39110991  1  -1.150498  0  -0.34167  -0.567976  0  2.101027  0
O  O341  1  0.89705142  0.61336225  0.89111006  1  -1.150525  0  -0.341711  -0.568025  0  2.101016  0
O  O342  1  0.89705283  0.11336239  0.60889048  1  -1.150504  0  -0.341697  -0.568013  0  2.10108  0
O  O343  1  0.10294651  0.38663660  0.10888981  1  -1.150691  0  -0.34165  -0.567984  0  2.101062  0
O  O344  1  0.89966524  0.85498508  0.27742797  1  -1.180607  0  -0.327097  -0.555088  0  2.28387  0
O  O345  1  0.10033409  0.64501492  0.77742807  1  -1.180587  0  -0.327082  -0.555089  0  2.28388  0
O  O346  1  0.10033485  0.14501490  0.72257190  1  -1.180581  0  -0.327088  -0.55511  0  2.28383  0
O  O347  1  0.89966499  0.35498562  0.22257233  1  -1.180583  0  -0.327084  -0.555083  0  2.283894  0
