# generated using pymatgen
data_BaH14C5O8
_symmetry_space_group_name_H-M   'P 1'
_cell_length_a   7.65925838
_cell_length_b   12.42318011
_cell_length_c   13.29300000
_cell_angle_alpha   90.00000000
_cell_angle_beta   90.00000000
_cell_angle_gamma   90.00000000
_symmetry_Int_Tables_number   1
_chemical_formula_structural   BaH14C5O8
_chemical_formula_sum   'Ba4 H56 C20 O32'
_cell_volume   1264.86013968
_cell_formula_units_Z   4
loop_
 _symmetry_equiv_pos_site_id
 _symmetry_equiv_pos_as_xyz
  1  'x, y, z'
loop_
 _atom_site_type_symbol
 _atom_site_label
 _atom_site_symmetry_multiplicity
 _atom_site_fract_x
 _atom_site_fract_y
 _atom_site_fract_z
 _atom_site_occupancy
 _atom_site_hle17_bader_spin_density
 _atom_site_hle17_ddec_charge
 _atom_site_hle17_ddec_spin_density
 _atom_site_hle17_ddec_sum_bond_order
 _atom_site_hle17_magmom
 _atom_site_hse06_10hf_bader_spin_density
 _atom_site_hse06_10hf_ddec_charge
 _atom_site_hse06_10hf_ddec_spin_density
 _atom_site_hse06_10hf_ddec_sum_bond_order
 _atom_site_hse06_10hf_magmom
 _atom_site_hse06_bader_spin_density
 _atom_site_hse06_ddec_charge
 _atom_site_hse06_ddec_spin_density
 _atom_site_hse06_ddec_sum_bond_order
 _atom_site_hse06_magmom
 _atom_site_pbe_bader_charge
 _atom_site_pbe_bader_spin_density
 _atom_site_pbe_cm5_charge
 _atom_site_pbe_ddec_charge
 _atom_site_pbe_ddec_spin_density
 _atom_site_pbe_ddec_sum_bond_order
 _atom_site_pbe_magmom
Ba  Ba0  1  0.74999820  0.63769018  0.96205070  1  0  1.667877  0  1.055265  0  0  1.521295  0  1.438753  0  0  1.560725  0  1.393424  0  1.702884  0  0.921297  1.492452  0  1.470446  0
Ba  Ba1  1  0.25000201  0.86231141  0.46204619  1  0  1.667831  0  1.055309  0  0  1.521305  0  1.438695  0  0  1.560689  0  1.393445  0  1.702969  0  0.92126  1.492463  0  1.470389  0
Ba  Ba2  1  0.75000081  0.13769582  0.53794779  1  0  1.667835  0  1.055343  0  0  1.521276  0  1.438781  0  0  1.560713  0  1.393447  0  1.702881  0  0.921255  1.492437  0  1.470472  0
Ba  Ba3  1  0.24999548  0.36230578  0.03795080  1  0  1.667819  0  1.055344  0  0  1.52129  0  1.438728  0  0  1.560685  0  1.393463  0  1.702839  0  0.921278  1.492448  0  1.470422  0
H  H4  1  0.86613216  0.15562843  0.92644625  1  0  0.066315  0  0.930203  0  0  0.085623  0  0.98998  0  0  0.086748  0  0.98989  0  0.055  0  0.098069  0.084709  0  0.990191  0
H  H5  1  0.13387327  0.34437479  0.42644475  1  0  0.066351  0  0.930196  0  0  0.085653  0  0.989979  0  0  0.086779  0  0.989886  0  0.055028  0  0.098072  0.084742  0  0.990185  0
H  H6  1  0.63385902  0.65564050  0.57355601  1  0  0.066285  0  0.930113  0  0  0.085602  0  0.989903  0  0  0.086726  0  0.989816  0  0.054818  0  0.09805  0.084689  0  0.990111  0
H  H7  1  0.36614642  0.84436673  0.07355375  1  0  0.066299  0  0.930193  0  0  0.085595  0  0.99  0  0  0.086722  0  0.9899  0  0.054852  0  0.09806  0.084683  0  0.990206  0
H  H8  1  0.13387327  0.84436593  0.07356052  1  0  0.066276  0  0.930189  0  0  0.085597  0  0.989973  0  0  0.086711  0  0.989885  0  0.054833  0  0.098047  0.084688  0  0.990174  0
H  H9  1  0.86613216  0.65564050  0.57355676  1  0  0.066295  0  0.93018  0  0  0.085597  0  0.98999  0  0  0.086717  0  0.989896  0  0.05486  0  0.098058  0.084685  0  0.990197  0
H  H10  1  0.36613989  0.34437559  0.42645001  1  0  0.066315  0  0.930235  0  0  0.085615  0  0.990025  0  0  0.086737  0  0.989929  0  0.054978  0  0.098058  0.084704  0  0.990233  0
H  H11  1  0.63386163  0.15562521  0.92644851  1  0  0.066326  0  0.930214  0  0  0.085629  0  0.99  0  0  0.086761  0  0.989898  0  0.054996  0  0.098065  0.084715  0  0.990211  0
H  H12  1  0.63601458  0.02761531  0.07376288  1  0  0.106684  0  0.919908  0  0  0.125814  0  0.972803  0  0  0.12756  0  0.972528  0  0.086915  0  0.105508  0.124541  0  0.973085  0
H  H13  1  0.36397649  0.47237583  0.57377266  1  0  0.10667  0  0.919803  0  0  0.125804  0  0.972702  0  0  0.127549  0  0.972424  0  0.086478  0  0.105515  0.124532  0  0.972986  0
H  H14  1  0.86398443  0.52763302  0.42624163  1  0  0.106667  0  0.919891  0  0  0.125736  0  0.972783  0  0  0.127473  0  0.972501  0  0.087005  0  0.105536  0.124461  0  0.97307  0
H  H15  1  0.13601186  0.97236697  0.92623712  1  0  0.1067  0  0.91984  0  0  0.125797  0  0.972737  0  0  0.12754  0  0.97247  0  0.086911  0  0.105545  0.124528  0  0.973019  0
H  H16  1  0.36398171  0.97237099  0.92623561  1  0  0.106693  0  0.919905  0  0  0.125809  0  0.972767  0  0  0.127553  0  0.972497  0  0.086934  0  0.105545  0.124539  0  0.97305  0
H  H17  1  0.63601327  0.52763141  0.42623862  1  0  0.106633  0  0.919855  0  0  0.125727  0  0.97272  0  0  0.127459  0  0.972445  0  0.086953  0  0.105531  0.124456  0  0.973005  0
H  H18  1  0.13600272  0.47237422  0.57376740  1  0  0.106608  0  0.919805  0  0  0.125751  0  0.972708  0  0  0.127493  0  0.972436  0  0.0868  0  0.1055  0.124481  0  0.972991  0
H  H19  1  0.86398443  0.02761853  0.07376138  1  0  0.106688  0  0.919935  0  0  0.125822  0  0.972817  0  0  0.127567  0  0.972544  0  0.086915  0  0.105509  0.124553  0  0.973099  0
H  H20  1  0.86587104  0.23346196  0.10136087  1  0  0.105028  0  0.924234  0  0  0.122306  0  0.979343  0  0  0.1246  0  0.978187  0  0.038108  0  0.112572  0.120595  0  0.980299  0
H  H21  1  0.13412917  0.26653159  0.60135635  1  0  0.105054  0  0.924278  0  0  0.122311  0  0.979409  0  0  0.124601  0  0.978259  0  0.038055  0  0.112558  0.120602  0  0.980363  0
H  H22  1  0.63412797  0.73347081  0.39864064  1  0  0.105055  0  0.924216  0  0  0.122343  0  0.979368  0  0  0.124633  0  0.978217  0  0.038031  0  0.112592  0.120633  0  0.980323  0
H  H23  1  0.36586702  0.76653078  0.89864064  1  0  0.105037  0  0.924232  0  0  0.12231  0  0.97937  0  0  0.124597  0  0.978225  0  0.038179  0  0.112573  0.1206  0  0.980325  0
H  H24  1  0.13412787  0.76653239  0.89864590  1  0  0.105031  0  0.924281  0  0  0.122309  0  0.979419  0  0  0.1246  0  0.978267  0  0.038061  0  0.112555  0.120598  0  0.980376  0
H  H25  1  0.86586451  0.73346759  0.39864064  1  0  0.105044  0  0.924212  0  0  0.122329  0  0.979373  0  0  0.12462  0  0.978219  0  0.038222  0  0.112576  0.120619  0  0.980329  0
H  H26  1  0.36586571  0.26653159  0.60135861  1  0  0.105074  0  0.924229  0  0  0.122329  0  0.979357  0  0  0.124619  0  0.978209  0  0.038183  0  0.112579  0.120618  0  0.980314  0
H  H27  1  0.63412928  0.23346116  0.10136237  1  0  0.105056  0  0.924209  0  0  0.122299  0  0.979359  0  0  0.124593  0  0.978205  0  0.038126  0  0.112565  0.120589  0  0.980314  0
H  H28  1  0.88915658  0.50060612  0.74652449  1  0  0.427559  0  0.869492  0  0  0.395834  0  0.933706  0  0  0.406019  0  0.918779  0  0.654697  0  0.300663  0.38861  0  0.944286  0
H  H29  1  0.11083710  0.99938984  0.24651922  1  0  0.42751  0  0.869533  0  0  0.395773  0  0.933757  0  0  0.405955  0  0.918834  0  0.654634  0  0.300651  0.38855  0  0.944334  0
H  H30  1  0.61084112  0.00060452  0.75347551  1  0  0.427577  0  0.869465  0  0  0.395852  0  0.933669  0  0  0.406034  0  0.918747  0  0.654702  0  0.300684  0.388629  0  0.944247  0
H  H31  1  0.38915909  0.49939468  0.25348228  1  0  0.427432  0  0.869641  0  0  0.395713  0  0.933835  0  0  0.405896  0  0.918912  0  0.654572  0  0.30063  0.38849  0  0.944414  0
H  H32  1  0.11084102  0.49939468  0.25348228  1  0  0.427432  0  0.869643  0  0  0.395714  0  0.933837  0  0  0.405896  0  0.918914  0  0.654573  0  0.30063  0.38849  0  0.944416  0
H  H33  1  0.88915789  0.00060693  0.75347627  1  0  0.427543  0  0.86951  0  0  0.395798  0  0.933757  0  0  0.405984  0  0.918828  0  0.65468  0  0.300655  0.388575  0  0.944335  0
H  H34  1  0.38915778  0.99939548  0.24651922  1  0  0.427437  0  0.869641  0  0  0.395717  0  0.933837  0  0  0.405899  0  0.918915  0  0.654594  0  0.300627  0.388495  0  0.944412  0
H  H35  1  0.61083851  0.50060371  0.74652524  1  0  0.427568  0  0.869483  0  0  0.395844  0  0.933686  0  0  0.406029  0  0.91876  0  0.654711  0  0.300685  0.38862  0  0.944264  0
H  H36  1  0.64744519  0.54799334  0.18548484  1  0  0.415193  0  0.892619  0  0  0.38809  0  0.949848  0  0  0.398969  0  0.933822  0  0.640643  0  0.286471  0.380379  0  0.961192  0
H  H37  1  0.35255763  0.95200825  0.68547958  1  0  0.415181  0  0.892654  0  0  0.388035  0  0.94992  0  0  0.398914  0  0.933896  0  0.640627  0  0.286433  0.380326  0  0.961261  0
H  H38  1  0.85255643  0.04799496  0.31451591  1  0  0.415228  0  0.892571  0  0  0.388122  0  0.949798  0  0  0.399001  0  0.933773  0  0.640644  0  0.286489  0.380412  0  0.96114  0
H  H39  1  0.14744117  0.45200343  0.81451967  1  0  0.415231  0  0.892563  0  0  0.388106  0  0.949822  0  0  0.398985  0  0.933796  0  0.640651  0  0.286478  0.380396  0  0.961165  0
H  H40  1  0.35255372  0.45200262  0.81451967  1  0  0.415218  0  0.892576  0  0  0.388095  0  0.949816  0  0  0.398972  0  0.933792  0  0.640678  0  0.286461  0.380386  0  0.961157  0
H  H41  1  0.64744258  0.04799576  0.31451591  1  0  0.415209  0  0.892598  0  0  0.388098  0  0.949832  0  0  0.398976  0  0.933807  0  0.640644  0  0.286484  0.380387  0  0.961175  0
H  H42  1  0.14744508  0.95200906  0.68547958  1  0  0.415176  0  0.892668  0  0  0.388024  0  0.949946  0  0  0.398902  0  0.933921  0  0.64064  0  0.286429  0.380314  0  0.961288  0
H  H43  1  0.85255643  0.54799415  0.18548484  1  0  0.415183  0  0.89263  0  0  0.388088  0  0.949854  0  0  0.398967  0  0.933828  0  0.640637  0  0.286464  0.380376  0  0.961198  0
H  H44  1  0.91326988  0.45657875  0.85911909  1  0  0.394891  0  0.925603  0  0  0.363434  0  0.992116  0  0  0.374772  0  0.975499  0  0.612324  0  0.293881  0.355416  0  1.003849  0
H  H45  1  0.08672902  0.04341964  0.35911231  1  0  0.394903  0  0.925577  0  0  0.363457  0  0.9921  0  0  0.374798  0  0.975478  0  0.612394  0  0.293871  0.355438  0  1.003837  0
H  H46  1  0.58673044  0.95658679  0.64087941  1  0  0.39487  0  0.925617  0  0  0.363475  0  0.99205  0  0  0.374813  0  0.975434  0  0.612326  0  0.293919  0.355459  0  1.003782  0
H  H47  1  0.41327108  0.54341803  0.14088693  1  0  0.394875  0  0.925615  0  0  0.363475  0  0.992069  0  0  0.374815  0  0.97545  0  0.612371  0  0.2939  0.355458  0  1.003803  0
H  H48  1  0.08673033  0.54341803  0.14088769  1  0  0.394881  0  0.92561  0  0  0.363486  0  0.992054  0  0  0.374826  0  0.975436  0  0.612367  0  0.293908  0.355468  0  1.003789  0
H  H49  1  0.91327249  0.95658277  0.64088242  1  0  0.394881  0  0.925606  0  0  0.363458  0  0.992074  0  0  0.374797  0  0.975457  0  0.612317  0  0.2939  0.355442  0  1.003806  0
H  H50  1  0.41327239  0.04342044  0.35911307  1  0  0.394939  0  0.925545  0  0  0.3635  0  0.992048  0  0  0.374842  0  0.975423  0  0.612349  0  0.293908  0.355482  0  1.003783  0
H  H51  1  0.58672652  0.45657472  0.85911909  1  0  0.394882  0  0.925603  0  0  0.363435  0  0.992097  0  0  0.374774  0  0.97548  0  0.612247  0  0.293904  0.355419  0  1.003827  0
H  H52  1  0.74999167  0.83331079  0.80473934  1  0  0.408811  0  0.908922  0  0  0.370691  0  0.984591  0  0  0.383373  0  0.965817  0  0.658789  0  0.283168  0.361703  0  0.997873  0
H  H53  1  0.25000201  0.66668115  0.30474686  1  0  0.408813  0  0.908889  0  0  0.37071  0  0.984532  0  0  0.383393  0  0.965756  0  0.658744  0  0.283206  0.361717  0  0.997813  0
H  H54  1  0.74999689  0.33331804  0.69525841  1  0  0.40882  0  0.90888  0  0  0.370709  0  0.984542  0  0  0.38339  0  0.965768  0  0.658712  0  0.283186  0.361723  0  0.997825  0
H  H55  1  0.24999940  0.16668115  0.19525389  1  0  0.408808  0  0.908879  0  0  0.370697  0  0.984541  0  0  0.383379  0  0.965767  0  0.658749  0  0.283197  0.361713  0  0.99782  0
H  H56  1  0.75003215  0.74680395  0.71502520  1  0  0.42199  0  0.84976  0  0  0.401219  0  0.901745  0  0  0.40926  0  0.889879  0  0.621196  0  0.313419  0.395512  0  0.910195  0
H  H57  1  0.25002682  0.75318557  0.21503348  1  0  0.421957  0  0.849844  0  0  0.401192  0  0.901796  0  0  0.409232  0  0.889931  0  0.621245  0  0.313402  0.395483  0  0.910249  0
H  H58  1  0.75001517  0.24681040  0.78496953  1  0  0.421906  0  0.849978  0  0  0.401149  0  0.901863  0  0  0.409188  0  0.889999  0  0.621197  0  0.313402  0.395445  0  0.910306  0
H  H59  1  0.25002160  0.25318879  0.28496427  1  0  0.421917  0  0.849775  0  0  0.40116  0  0.901811  0  0  0.409199  0  0.889947  0  0.621268  0  0.313402  0.395454  0  0.910261  0
C  C60  1  0.75000081  0.14765302  0.97478899  1  0  -0.065506  0  3.704851  0  0  -0.11457  0  3.979831  0  0  -0.114398  0  3.993409  0  -0.024734  0  -0.158248  -0.114435  0  3.970313  0
C  C61  1  0.25000201  0.35234698  0.47478823  1  0  -0.065643  0  3.704792  0  0  -0.114683  0  3.979766  0  0  -0.114506  0  3.993323  0  -0.02497  0  -0.158266  -0.114547  0  3.970249  0
C  C62  1  0.74999820  0.64766348  0.52521553  1  0  -0.065392  0  3.704852  0  0  -0.114488  0  3.97987  0  0  -0.114319  0  3.993417  0  -0.023679  0  -0.158238  -0.114352  0  3.970353  0
C  C63  1  0.25000593  0.85234134  0.02521703  1  0  -0.065453  0  3.705126  0  0  -0.114524  0  3.980094  0  0  -0.114336  0  3.993651  0  -0.024122  0  -0.158251  -0.114387  0  3.970578  0
C  C64  1  0.74999820  0.34511373  0.99641766  1  0  0.722824  0  3.850857  0  0  0.676486  0  4.15213  0  0  0.710534  0  4.143194  0  1.532567  0  0.232939  0.653304  0  4.157454  0
C  C65  1  0.24999940  0.15488949  0.49640187  1  0  0.723105  0  3.850345  0  0  0.676537  0  4.151912  0  0  0.710584  0  4.142966  0  1.532191  0  0.233033  0.653354  0  4.157242  0
C  C66  1  0.75000995  0.84511936  0.50357707  1  0  0.722738  0  3.850641  0  0  0.676506  0  4.1518  0  0  0.710551  0  4.14286  0  1.532104  0  0.23298  0.653324  0  4.157126  0
C  C67  1  0.24999940  0.65487982  0.00358911  1  0  0.722839  0  3.850698  0  0  0.676503  0  4.151973  0  0  0.710548  0  4.143035  0  1.532239  0  0.233054  0.653322  0  4.157299  0
C  C68  1  0.75000212  0.03702192  0.02391559  1  0  -0.264346  0  3.670865  0  0  -0.302839  0  3.929374  0  0  -0.308382  0  3.938395  0  -0.112395  0  -0.16043  -0.298919  0  3.922884  0
C  C69  1  0.24999548  0.46297405  0.52392237  1  0  -0.264252  0  3.670428  0  0  -0.302662  0  3.929071  0  0  -0.308201  0  3.938084  0  -0.112044  0  -0.160413  -0.29874  0  3.922587  0
C  C70  1  0.74999820  0.53703480  0.47608741  1  0  -0.264288  0  3.671156  0  0  -0.302498  0  3.929347  0  0  -0.307984  0  3.938298  0  -0.113637  0  -0.160405  -0.29858  0  3.922852  0
C  C71  1  0.24999940  0.96296922  0.97608290  1  0  -0.264592  0  3.671057  0  0  -0.302856  0  3.929555  0  0  -0.308388  0  3.938545  0  -0.113113  0  -0.160526  -0.298937  0  3.923071  0
C  C72  1  0.74999689  0.94103602  0.95246822  1  0  0.733014  0  3.824523  0  0  0.681328  0  4.1339  0  0  0.714133  0  4.127407  0  1.516862  0  0.22401  0.659038  0  4.137513  0
C  C73  1  0.24999809  0.55895913  0.45247499  1  0  0.73348  0  3.823866  0  0  0.681434  0  4.13377  0  0  0.714241  0  4.127264  0  1.51687  0  0.224072  0.659131  0  4.137408  0
C  C74  1  0.74999559  0.44104408  0.54752877  1  0  0.733155  0  3.824454  0  0  0.681353  0  4.133914  0  0  0.714146  0  4.127413  0  1.516713  0  0.224013  0.659059  0  4.137532  0
C  C75  1  0.24999548  0.05896236  0.04752426  1  0  0.733696  0  3.823935  0  0  0.681581  0  4.133853  0  0  0.714387  0  4.127354  0  1.516819  0  0.224204  0.65928  0  4.137491  0
C  C76  1  0.74999820  0.23940730  0.05289400  1  0  -0.274555  0  3.666425  0  0  -0.313607  0  3.921006  0  0  -0.319441  0  3.928477  0  -0.017744  0  -0.149917  -0.30948  0  3.915691  0
C  C77  1  0.24999809  0.26058787  0.55289024  1  0  -0.274674  0  3.666297  0  0  -0.313649  0  3.920947  0  0  -0.319477  0  3.928405  0  -0.017363  0  -0.149983  -0.309524  0  3.915634  0
C  C78  1  0.74999689  0.73941534  0.44710825  1  0  -0.274462  0  3.666245  0  0  -0.313712  0  3.921095  0  0  -0.319537  0  3.928554  0  -0.017374  0  -0.149916  -0.309587  0  3.91578  0
C  C79  1  0.24999940  0.76058625  0.94711126  1  0  -0.274475  0  3.666339  0  0  -0.313601  0  3.921039  0  0  -0.319432  0  3.928508  0  -0.017325  0  -0.149925  -0.309476  0  3.915723  0
O  O80  1  0.75000212  0.84866434  0.99195592  1  0  -0.708628  0  1.909669  0  0  -0.650632  0  2.145917  0  0  -0.677593  0  2.136495  0  -1.220588  0  -0.397578  -0.631619  0  2.151755  0
O  O81  1  0.25000071  0.65133242  0.49196645  1  0  -0.708911  0  1.909229  0  0  -0.65076  0  2.145573  0  0  -0.677719  0  2.136161  0  -1.220657  0  -0.39761  -0.631742  0  2.151418  0
O  O82  1  0.74999167  0.34867159  0.50803807  1  0  -0.708744  0  1.909454  0  0  -0.650713  0  2.145717  0  0  -0.677679  0  2.136308  0  -1.220416  0  -0.397605  -0.631699  0  2.151554  0
O  O83  1  0.24999157  0.15133243  0.00803506  1  0  -0.70894  0  1.90944  0  0  -0.650759  0  2.14578  0  0  -0.677718  0  2.136366  0  -1.220639  0  -0.397615  -0.63174  0  2.151623  0
O  O84  1  0.60331429  0.38602274  0.97051982  1  0  -0.728036  0  1.968083  0  0  -0.659496  0  2.198909  0  0  -0.687898  0  2.189583  0  -1.225296  0  -0.347036  -0.63964  0  2.204813  0
O  O85  1  0.39668462  0.11398370  0.47050478  1  0  -0.728157  0  1.967986  0  0  -0.659527  0  2.198923  0  0  -0.68793  0  2.189594  0  -1.225401  0  -0.347035  -0.639669  0  2.204828  0
O  O86  1  0.89668734  0.88602515  0.52948243  1  0  -0.728012  0  1.968217  0  0  -0.65949  0  2.198987  0  0  -0.687887  0  2.189659  0  -1.224928  0  -0.347067  -0.639635  0  2.204893  0
O  O87  1  0.10332201  0.61396920  0.02948394  1  0  -0.728049  0  1.96806  0  0  -0.659507  0  2.198897  0  0  -0.687907  0  2.18957  0  -1.225469  0  -0.34706  -0.639652  0  2.204802  0
O  O88  1  0.39667548  0.61397645  0.02948845  1  0  -0.728048  0  1.968203  0  0  -0.659494  0  2.199026  0  0  -0.687897  0  2.189704  0  -1.225368  0  -0.347075  -0.639639  0  2.20493  0
O  O89  1  0.60333126  0.88604366  0.52947190  1  0  -0.728058  0  1.967766  0  0  -0.659535  0  2.198519  0  0  -0.687936  0  2.189199  0  -1.225747  0  -0.347053  -0.639678  0  2.20442  0
O  O90  1  0.10332593  0.11398209  0.47050402  1  0  -0.728104  0  1.968106  0  0  -0.659472  0  2.199049  0  0  -0.687875  0  2.189723  0  -1.225358  0  -0.347011  -0.639615  0  2.204953  0
O  O91  1  0.89667428  0.38602274  0.97051832  1  0  -0.727987  0  1.968041  0  0  -0.659438  0  2.198875  0  0  -0.687837  0  2.189553  0  -1.225706  0  -0.347015  -0.639583  0  2.204778  0
O  O92  1  0.75000212  0.95741750  0.85649665  1  0  -0.709126  0  2.001645  0  0  -0.633283  0  2.21935  0  0  -0.660585  0  2.20716  0  -1.187753  0  -0.322326  -0.6142  0  2.227303  0
O  O93  1  0.24999940  0.54258732  0.35650342  1  0  -0.709209  0  2.001559  0  0  -0.633272  0  2.219422  0  0  -0.660569  0  2.207224  0  -1.187559  0  -0.322358  -0.614188  0  2.227382  0
O  O94  1  0.75000342  0.45741831  0.64350260  1  0  -0.709206  0  2.001656  0  0  -0.633372  0  2.219419  0  0  -0.660679  0  2.207232  0  -1.187725  0  -0.322332  -0.614281  0  2.227375  0
O  O95  1  0.24999940  0.04258410  0.14349507  1  0  -0.709356  0  2.001489  0  0  -0.633381  0  2.219371  0  0  -0.66068  0  2.207176  0  -1.187543  0  -0.32248  -0.614302  0  2.227341  0
O  O96  1  0.75000081  0.59132283  0.16456631  1  0  -0.896094  0  1.742717  0  0  -0.841815  0  1.893995  0  0  -0.860879  0  1.861648  0  -1.325667  0  -0.65703  -0.828292  0  1.916647  0
O  O97  1  0.25000071  0.90868038  0.66456180  1  0  -0.896056  0  1.742789  0  0  -0.841681  0  1.894273  0  0  -0.860737  0  1.861931  0  -1.325637  0  -0.656947  -0.828161  0  1.916921  0
O  O98  1  0.74999820  0.09132525  0.33543293  1  0  -0.896142  0  1.742678  0  0  -0.84185  0  1.894021  0  0  -0.860913  0  1.861675  0  -1.325681  0  -0.657062  -0.828329  0  1.91667  0
O  O99  1  0.24999809  0.40867153  0.83543519  1  0  -0.896133  0  1.742645  0  0  -0.84182  0  1.894038  0  0  -0.86088  0  1.861693  0  -1.325705  0  -0.657023  -0.8283  0  1.916686  0
O  O100  1  0.94697027  0.51522959  0.81149477  1  0  -0.860242  0  1.850285  0  0  -0.800006  0  2.007064  0  0  -0.821394  0  1.976048  0  -1.281258  0  -0.594797  -0.784822  0  2.028685  0
O  O101  1  0.05302472  0.98476718  0.31148875  1  0  -0.860148  0  1.85025  0  0  -0.79994  0  2.006998  0  0  -0.821319  0  1.975988  0  -1.273449  0  -0.594758  -0.784756  0  2.028616  0
O  O102  1  0.55302613  0.01523201  0.68850673  1  0  -0.86019  0  1.850301  0  0  -0.800029  0  2.007027  0  0  -0.821413  0  1.976014  0  -1.273414  0  -0.594845  -0.784848  0  2.028646  0
O  O103  1  0.44697147  0.48476879  0.18851125  1  0  -0.860062  0  1.850419  0  0  -0.799904  0  2.007111  0  0  -0.821286  0  1.9761  0  -1.281226  0  -0.59476  -0.784721  0  2.028731  0
O  O104  1  0.05302733  0.48476960  0.18851125  1  0  -0.860066  0  1.850431  0  0  -0.799904  0  2.007117  0  0  -0.821286  0  1.976106  0  -1.273374  0  -0.594759  -0.78472  0  2.028738  0
O  O105  1  0.94697158  0.01523281  0.68850824  1  0  -0.860175  0  1.850263  0  0  -0.799958  0  2.007001  0  0  -0.821345  0  1.975984  0  -1.281267  0  -0.594799  -0.784777  0  2.028619  0
O  O106  1  0.44697147  0.98477040  0.31148875  1  0  -0.860133  0  1.850339  0  0  -0.799942  0  2.007102  0  0  -0.821324  0  1.97609  0  -1.281239  0  -0.594789  -0.784759  0  2.028717  0
O  O107  1  0.55302352  0.51522476  0.81149552  1  0  -0.860236  0  1.850308  0  0  -0.800025  0  2.007134  0  0  -0.821393  0  1.97608  0  -1.27339  0  -0.59484  -0.784844  0  2.028752  0
O  O108  1  0.74997992  0.75464816  0.78759949  1  0  -0.89115  0  1.798274  0  0  -0.837564  0  1.969455  0  0  -0.855598  0  1.936807  0  -1.313068  0  -0.639977  -0.82474  0  1.992337  0
O  O109  1  0.24999809  0.74534619  0.28760400  1  0  -0.89111  0  1.798281  0  0  -0.837542  0  1.969423  0  0  -0.855569  0  1.936776  0  -1.313049  0  -0.640006  -0.824709  0  1.992324  0
O  O110  1  0.74999167  0.25465380  0.71240051  1  0  -0.891036  0  1.798396  0  0  -0.837468  0  1.969487  0  0  -0.855502  0  1.936841  0  -1.31297  0  -0.639975  -0.824651  0  1.992353  0
O  O111  1  0.24999940  0.24534620  0.21239525  1  0  -0.891038  0  1.798224  0  0  -0.837486  0  1.969457  0  0  -0.855514  0  1.936812  0  -1.31306  0  -0.639993  -0.824668  0  1.992325  0
