# generated using pymatgen
data_Cu3H4C8IN8
_symmetry_space_group_name_H-M   'P 1'
_cell_length_a   7.90352181
_cell_length_b   9.34474468
_cell_length_c   9.34477185
_cell_angle_alpha   85.39838428
_cell_angle_beta   64.38631489
_cell_angle_gamma   64.38664283
_symmetry_Int_Tables_number   1
_chemical_formula_structural   Cu3H4C8IN8
_chemical_formula_sum   'Cu6 H8 C16 I2 N16'
_cell_volume   556.34195571
_cell_formula_units_Z   2
loop_
 _symmetry_equiv_pos_site_id
 _symmetry_equiv_pos_as_xyz
  1  'x, y, z'
loop_
 _atom_site_type_symbol
 _atom_site_label
 _atom_site_symmetry_multiplicity
 _atom_site_fract_x
 _atom_site_fract_y
 _atom_site_fract_z
 _atom_site_occupancy
 _atom_site_hle17_bader_spin_density
 _atom_site_hle17_ddec_charge
 _atom_site_hle17_ddec_spin_density
 _atom_site_hle17_ddec_sum_bond_order
 _atom_site_hle17_magmom
 _atom_site_hse06_10hf_bader_spin_density
 _atom_site_hse06_10hf_ddec_charge
 _atom_site_hse06_10hf_ddec_spin_density
 _atom_site_hse06_10hf_ddec_sum_bond_order
 _atom_site_hse06_10hf_magmom
 _atom_site_hse06_bader_spin_density
 _atom_site_hse06_ddec_charge
 _atom_site_hse06_ddec_spin_density
 _atom_site_hse06_ddec_sum_bond_order
 _atom_site_hse06_magmom
 _atom_site_pbe_bader_spin_density
 _atom_site_pbe_cm5_charge
 _atom_site_pbe_ddec_charge
 _atom_site_pbe_ddec_spin_density
 _atom_site_pbe_ddec_sum_bond_order
 _atom_site_pbe_magmom
Cu  Cu0  1  0.50000018  0.68888029  0.31111185  1  0  0.425758  0  1.800876  0  0  0.316738  0  2.246922  0  0  0.32619  0  2.20009  0  0  0.472203  0.313146  0  2.277109  0
Cu  Cu1  1  0.50000020  0.31111902  0.68888723  1  0  0.42575  0  1.800893  0  0  0.316723  0  2.246936  0  0  0.326174  0  2.200093  0  0  0.472191  0.313133  0  2.277098  0
Cu  Cu2  1  0.99999701  0.63463843  0.36536627  1  0  0.376711  0  1.972955  0  0  0.280003  0  2.449626  0  0  0.281388  0  2.403654  0  0  0.394249  0.28374  0  2.477534  0
Cu  Cu3  1  0.00000129  0.36536208  0.63463562  1  0  0.376664  0  1.973023  0  0  0.279928  0  2.44969  0  0  0.281335  0  2.403731  0  0  0.394222  0.283688  0  2.477595  0
Cu  Cu4  1  0.59917326  0.29765319  0.29765353  1  0  0.382961  0  1.84794  0  0  0.263353  0  2.30979  0  0  0.26865  0  2.264064  0  0  0.467828  0.262877  0  2.338537  0
Cu  Cu5  1  0.40082571  0.70234613  0.70234607  1  0  0.382961  0  1.847921  0  0  0.263358  0  2.309757  0  0  0.268653  0  2.264037  0  0  0.467849  0.262884  0  2.338528  0
H  H6  1  0.28106866  0.29853861  0.29854203  1  0  0.068585  0  1.045487  0  0  0.070867  0  1.133193  0  0  0.077592  0  1.123708  0  0  0.074405  0.065818  0  1.140015  0
H  H7  1  0.71893036  0.70146309  0.70145843  1  0  0.068603  0  1.04554  0  0  0.070894  0  1.133237  0  0  0.077637  0  1.123734  0  0  0.074412  0.06585  0  1.140054  0
H  H8  1  0.20667235  0.88373237  0.22206853  1  0  0.088491  0  0.984973  0  0  0.085242  0  1.077037  0  0  0.091091  0  1.069402  0  0  0.092858  0.080857  0  1.082727  0
H  H9  1  0.79333460  0.77791653  0.11626122  1  0  0.08851  0  0.984957  0  0  0.085232  0  1.077042  0  0  0.091078  0  1.069409  0  0  0.092849  0.080854  0  1.082729  0
H  H10  1  0.79332876  0.11626813  0.77793233  1  0  0.088483  0  0.98499  0  0  0.085232  0  1.077058  0  0  0.09108  0  1.069423  0  0  0.092857  0.080837  0  1.082753  0
H  H11  1  0.20666645  0.22208158  0.88373665  1  0  0.088591  0  0.985018  0  0  0.085325  0  1.077067  0  0  0.091173  0  1.069433  0  0  0.09287  0.080936  0  1.082759  0
H  H12  1  0.18588223  0.97152539  0.97151451  1  0  0.092102  0  0.968226  0  0  0.093462  0  1.048731  0  0  0.097738  0  1.044799  0  0  0.09896  0.090318  0  1.051694  0
H  H13  1  0.81411816  0.02847392  0.02848671  1  0  0.092105  0  0.968272  0  0  0.093456  0  1.048768  0  0  0.097731  0  1.044837  0  0  0.098956  0.090313  0  1.051731  0
C  C14  1  0.25801703  0.03610338  0.42583257  1  0  0.29478  0  3.73144  0  0  0.271611  0  3.983096  0  0  0.281964  0  4.001633  0  0  0.22307  0.264654  0  3.971085  0
C  C15  1  0.74199125  0.57415419  0.96388789  1  0  0.294817  0  3.731385  0  0  0.27151  0  3.983215  0  0  0.281862  0  4.001752  0  0  0.223089  0.264572  0  3.971178  0
C  C16  1  0.74198336  0.96389593  0.57416759  1  0  0.294778  0  3.731468  0  0  0.271577  0  3.983173  0  0  0.281927  0  4.001709  0  0  0.223043  0.264627  0  3.971154  0
C  C17  1  0.25800563  0.42584633  0.03611239  1  0  0.294755  0  3.731411  0  0  0.271505  0  3.983169  0  0  0.281855  0  4.001708  0  0  0.223106  0.26457  0  3.971137  0
C  C18  1  0.24536032  0.08584707  0.27747817  1  0  0.002418  0  3.793052  0  0  0.023681  0  4.019014  0  0  0.020272  0  4.042639  0  0  -0.013673  0.025779  0  4.003339  0
C  C19  1  0.75465220  0.72251487  0.91415716  1  0  0.00221  0  3.793211  0  0  0.023555  0  4.019162  0  0  0.020145  0  4.04279  0  0  -0.013709  0.025647  0  4.003489  0
C  C20  1  0.75464438  0.91415699  0.72252214  1  0  0.002523  0  3.793154  0  0  0.023813  0  4.019104  0  0  0.020406  0  4.042735  0  0  -0.01359  0.02591  0  4.003428  0
C  C21  1  0.24534757  0.27748802  0.08584614  1  0  0.002376  0  3.792956  0  0  0.023676  0  4.01893  0  0  0.020268  0  4.042555  0  0  -0.013654  0.025771  0  4.003257  0
C  C22  1  0.25784028  0.22770275  0.22770459  1  0  -0.102448  0  3.709829  0  0  -0.127162  0  3.946028  0  0  -0.127417  0  3.962342  0  0  -0.092843  -0.127089  0  3.935631  0
C  C23  1  0.74216564  0.77229176  0.77229177  1  0  -0.102474  0  3.709703  0  0  -0.127208  0  3.945879  0  0  -0.127476  0  3.962177  0  0  -0.092853  -0.127139  0  3.935484  0
C  C24  1  0.22076206  0.99300912  0.18376747  1  0  -0.077139  0  3.706295  0  0  -0.102114  0  3.959274  0  0  -0.102053  0  3.978113  0  0  -0.083981  -0.102011  0  3.946716  0
C  C25  1  0.77924123  0.81621446  0.00698617  1  0  -0.077083  0  3.706655  0  0  -0.10204  0  3.959608  0  0  -0.101983  0  3.978459  0  0  -0.083973  -0.101946  0  3.947055  0
C  C26  1  0.77923689  0.00699020  0.81623000  1  0  -0.07715  0  3.706463  0  0  -0.102145  0  3.95946  0  0  -0.102079  0  3.978284  0  0  -0.084003  -0.102037  0  3.946912  0
C  C27  1  0.22075554  0.18378129  0.99301026  1  0  -0.077329  0  3.706651  0  0  -0.102273  0  3.959597  0  0  -0.102214  0  3.978439  0  0  -0.084035  -0.102172  0  3.947049  0
C  C28  1  0.20859993  0.04243184  0.04242441  1  0  -0.049867  0  3.742302  0  0  -0.060911  0  3.99476  0  0  -0.065441  0  4.018123  0  0  -0.085797  -0.057922  0  3.979099  0
C  C29  1  0.79139634  0.95757226  0.95758008  1  0  -0.049938  0  3.742143  0  0  -0.060964  0  3.994595  0  0  -0.065491  0  4.017957  0  0  -0.085801  -0.057977  0  3.978942  0
I  I30  1  0.23967998  0.52233989  0.52233933  1  0  -0.455213  0  2.054897  0  0  -0.399998  0  2.627757  0  0  -0.402365  0  2.557117  0  0  -0.152781  -0.401009  0  2.673519  0
I  I31  1  0.76031972  0.47766062  0.47766098  1  0  -0.455238  0  2.054944  0  0  -0.400027  0  2.627815  0  0  -0.40239  0  2.557175  0  0  -0.15279  -0.401037  0  2.673582  0
N  N32  1  0.34892255  0.88298631  0.45012870  1  0  -0.287865  0  3.326113  0  0  -0.225326  0  3.629776  0  0  -0.237973  0  3.637071  0  0  -0.292632  -0.217764  0  3.625475  0
N  N33  1  0.65108551  0.54986598  0.11700584  1  0  -0.287778  0  3.32609  0  0  -0.225195  0  3.629748  0  0  -0.23784  0  3.637039  0  0  -0.292682  -0.217637  0  3.625441  0
N  N34  1  0.65107714  0.11701420  0.54987054  1  0  -0.287865  0  3.326117  0  0  -0.225317  0  3.629789  0  0  -0.23796  0  3.637077  0  0  -0.292631  -0.217753  0  3.625473  0
N  N35  1  0.34891210  0.45013573  0.88299514  1  0  -0.287767  0  3.32619  0  0  -0.225187  0  3.629806  0  0  -0.237831  0  3.637098  0  0  -0.292664  -0.217624  0  3.625491  0
N  N36  1  0.32617234  0.88980831  0.60204969  1  0  -0.066873  0  3.35688  0  0  -0.015096  0  3.679775  0  0  -0.016459  0  3.684665  0  0  -0.170799  -0.015063  0  3.677055  0
N  N37  1  0.67383113  0.39794694  0.11018671  1  0  -0.066935  0  3.356962  0  0  -0.015134  0  3.67981  0  0  -0.016496  0  3.684697  0  0  -0.170724  -0.015102  0  3.677083  0
N  N38  1  0.67383017  0.11019218  0.39794851  1  0  -0.0669  0  3.356936  0  0  -0.015131  0  3.679839  0  0  -0.016496  0  3.684726  0  0  -0.170807  -0.015095  0  3.677105  0
N  N39  1  0.32616924  0.60205237  0.88981131  1  0  -0.066896  0  3.357084  0  0  -0.01509  0  3.679925  0  0  -0.016451  0  3.684813  0  0  -0.170728  -0.015057  0  3.677211  0
N  N40  1  0.22803084  0.03944648  0.66813051  1  0  -0.045327  0  2.898043  0  0  -0.03334  0  3.179259  0  0  -0.031096  0  3.189632  0  0  -0.081771  -0.03481  0  3.172902  0
N  N41  1  0.77197400  0.33186027  0.96055228  1  0  -0.045249  0  2.898064  0  0  -0.033242  0  3.179225  0  0  -0.030999  0  3.189598  0  0  -0.081723  -0.03471  0  3.172868  0
N  N42  1  0.77197095  0.96055283  0.33186805  1  0  -0.045285  0  2.898003  0  0  -0.033283  0  3.179206  0  0  -0.031037  0  3.189575  0  0  -0.081754  -0.034752  0  3.172847  0
N  N43  1  0.22802637  0.66813904  0.03944574  1  0  -0.04541  0  2.89809  0  0  -0.033441  0  3.179319  0  0  -0.031199  0  3.189689  0  0  -0.081819  -0.03491  0  3.172967  0
N  N44  1  0.18303228  0.13385995  0.56039626  1  0  -0.277738  0  3.246864  0  0  -0.222789  0  3.569077  0  0  -0.233879  0  3.57491  0  0  -0.261187  -0.216551  0  3.565759  0
N  N45  1  0.81698046  0.43959088  0.86613521  1  0  -0.277746  0  3.24687  0  0  -0.222792  0  3.569181  0  0  -0.233882  0  3.575015  0  0  -0.261238  -0.216561  0  3.565862  0
N  N46  1  0.81696883  0.86614055  0.43960353  1  0  -0.277792  0  3.246888  0  0  -0.222858  0  3.569152  0  0  -0.233939  0  3.574968  0  0  -0.261204  -0.216616  0  3.565827  0
N  N47  1  0.18301711  0.56040844  0.13386598  1  0  -0.277628  0  3.246694  0  0  -0.222678  0  3.568963  0  0  -0.233762  0  3.574785  0  0  -0.261167  -0.216437  0  3.565636  0
