# generated using pymatgen
data_TlH3C4S(NO)2
_symmetry_space_group_name_H-M   'P 1'
_cell_length_a   4.18411065
_cell_length_b   11.20414949
_cell_length_c   14.75155353
_cell_angle_alpha   101.38611800
_cell_angle_beta   89.99994646
_cell_angle_gamma   90.00006135
_symmetry_Int_Tables_number   1
_chemical_formula_structural   TlH3C4S(NO)2
_chemical_formula_sum   'Tl4 H12 C16 S4 N8 O8'
_cell_volume   677.93374403
_cell_formula_units_Z   4
loop_
 _symmetry_equiv_pos_site_id
 _symmetry_equiv_pos_as_xyz
  1  'x, y, z'
loop_
 _atom_site_type_symbol
 _atom_site_label
 _atom_site_symmetry_multiplicity
 _atom_site_fract_x
 _atom_site_fract_y
 _atom_site_fract_z
 _atom_site_occupancy
 _atom_site_hle17_bader_spin_density
 _atom_site_hle17_ddec_charge
 _atom_site_hle17_ddec_spin_density
 _atom_site_hle17_ddec_sum_bond_order
 _atom_site_hle17_magmom
 _atom_site_hse06_10hf_bader_spin_density
 _atom_site_hse06_10hf_ddec_charge
 _atom_site_hse06_10hf_ddec_spin_density
 _atom_site_hse06_10hf_ddec_sum_bond_order
 _atom_site_hse06_10hf_magmom
 _atom_site_hse06_bader_spin_density
 _atom_site_hse06_ddec_charge
 _atom_site_hse06_ddec_spin_density
 _atom_site_hse06_ddec_sum_bond_order
 _atom_site_hse06_magmom
 _atom_site_pbe_bader_spin_density
 _atom_site_pbe_cm5_charge
 _atom_site_pbe_ddec_charge
 _atom_site_pbe_ddec_spin_density
 _atom_site_pbe_ddec_sum_bond_order
 _atom_site_pbe_magmom
Tl  Tl0  1  0.05125281  0.49999945  0.75000028  1  0  0.742354  0  0.857236  0  0  0.629371  0  1.160383  0  0  0.661041  0  1.138908  0  0  0.352518  0.604483  0  1.176657  0
Tl  Tl1  1  0.94874428  0.50000078  0.25000013  1  0  0.742365  0  0.857226  0  0  0.62937  0  1.160381  0  0  0.661038  0  1.138905  0  0  0.35252  0.60448  0  1.176652  0
Tl  Tl2  1  0.57572677  0.00000064  0.75000035  1  0  0.723546  0  0.868746  0  0  0.603612  0  1.177987  0  0  0.636203  0  1.156165  0  0  0.327106  0.58152  0  1.192227  0
Tl  Tl3  1  0.42427372  0.00000086  0.25000018  1  0  0.723533  0  0.868765  0  0  0.603594  0  1.17802  0  0  0.636181  0  1.156202  0  0  0.327093  0.581496  0  1.192254  0
H  H4  1  0.98170615  0.07634293  0.45100152  1  0  0.324218  0  0.920718  0  0  0.299465  0  0.991558  0  0  0.310007  0  0.982511  0  0  0.302322  0.29183  0  0.998356  0
H  H5  1  0.98170563  0.92365585  0.04899633  1  0  0.3242  0  0.920706  0  0  0.299425  0  0.991567  0  0  0.309966  0  0.98252  0  0  0.302303  0.291791  0  0.998366  0
H  H6  1  0.01829333  0.92365729  0.54899890  1  0  0.324199  0  0.92074  0  0  0.299452  0  0.991579  0  0  0.309994  0  0.982532  0  0  0.302314  0.291816  0  0.99838  0
H  H7  1  0.01829385  0.07634340  0.95100125  1  0  0.324299  0  0.920581  0  0  0.299527  0  0.991461  0  0  0.310068  0  0.982413  0  0  0.302341  0.291854  0  0.998328  0
H  H8  1  0.33651098  0.42023365  0.44869245  1  0  0.330034  0  0.907933  0  0  0.305385  0  0.977632  0  0  0.316089  0  0.968084  0  0  0.304437  0.29778  0  0.98454  0
H  H9  1  0.33651189  0.57976680  0.05130918  1  0  0.330024  0  0.907947  0  0  0.305377  0  0.977631  0  0  0.31608  0  0.968086  0  0  0.304451  0.297772  0  0.984539  0
H  H10  1  0.66348851  0.57976752  0.55130946  1  0  0.32995  0  0.908053  0  0  0.305329  0  0.977713  0  0  0.316031  0  0.968166  0  0  0.304459  0.297724  0  0.98462  0
H  H11  1  0.66348998  0.42023250  0.94869043  1  0  0.330081  0  0.907854  0  0  0.30543  0  0.977571  0  0  0.316134  0  0.968023  0  0  0.304458  0.297824  0  0.984481  0
H  H12  1  0.54052025  0.25565551  0.67666267  1  0  0.141855  0  0.983118  0  0  0.15062  0  1.048022  0  0  0.154715  0  1.047934  0  0  0.099133  0.147932  0  1.047887  0
H  H13  1  0.54051350  0.74434263  0.82333632  1  0  0.141824  0  0.983138  0  0  0.150609  0  1.04801  0  0  0.154702  0  1.047923  0  0  0.099136  0.147918  0  1.047877  0
H  H14  1  0.45947923  0.74434383  0.32333830  1  0  0.141825  0  0.983129  0  0  0.150595  0  1.047982  0  0  0.154689  0  1.047896  0  0  0.099132  0.147902  0  1.047846  0
H  H15  1  0.45947881  0.25565758  0.17666342  1  0  0.141832  0  0.983118  0  0  0.150625  0  1.047983  0  0  0.154719  0  1.047894  0  0  0.099146  0.147934  0  1.047846  0
C  C16  1  0.13493865  0.24859555  0.43803007  1  0  0.499492  0  3.788684  0  0  0.449935  0  4.086483  0  0  0.479326  0  4.091359  0  0  0.249373  0.430085  0  4.082876  0
C  C17  1  0.13494239  0.75140387  0.06196943  1  0  0.499438  0  3.788819  0  0  0.449837  0  4.086608  0  0  0.479247  0  4.091457  0  0  0.249356  0.42999  0  4.082996  0
C  C18  1  0.86506083  0.75140471  0.56197171  1  0  0.49948  0  3.788637  0  0  0.449982  0  4.086374  0  0  0.479404  0  4.091202  0  0  0.249401  0.430135  0  4.082762  0
C  C19  1  0.86506187  0.24859633  0.93802963  1  0  0.499424  0  3.788786  0  0  0.449931  0  4.086512  0  0  0.479317  0  4.091397  0  0  0.249384  0.430079  0  4.082907  0
C  C20  1  0.45818528  0.35352989  0.56651324  1  0  0.590396  0  3.900922  0  0  0.547736  0  4.179681  0  0  0.577758  0  4.183757  0  0  0.204375  0.527684  0  4.175701  0
C  C21  1  0.45818504  0.64647004  0.93348601  1  0  0.59041  0  3.900856  0  0  0.547744  0  4.179604  0  0  0.577759  0  4.183691  0  0  0.204386  0.527693  0  4.175626  0
C  C22  1  0.54181420  0.64647036  0.43348785  1  0  0.590384  0  3.900862  0  0  0.547727  0  4.179617  0  0  0.577753  0  4.18369  0  0  0.204383  0.527675  0  4.175633  0
C  C23  1  0.54181444  0.35353193  0.06651126  1  0  0.590447  0  3.900738  0  0  0.547741  0  4.179571  0  0  0.577759  0  4.183654  0  0  0.204366  0.527688  0  4.175594  0
C  C24  1  0.42213917  0.25423103  0.61075539  1  0  -0.516656  0  3.70785  0  0  -0.530118  0  3.968649  0  0  -0.554871  0  3.986498  0  0  -0.155321  -0.513476  0  3.955972  0
C  C25  1  0.42212981  0.74576706  0.88924362  1  0  -0.516697  0  3.707931  0  0  -0.53016  0  3.968778  0  0  -0.554911  0  3.986626  0  0  -0.155324  -0.513519  0  3.956106  0
C  C26  1  0.57786748  0.74576833  0.38924694  1  0  -0.516606  0  3.707852  0  0  -0.530009  0  3.968681  0  0  -0.554768  0  3.986529  0  0  -0.155285  -0.513372  0  3.956001  0
C  C27  1  0.57787206  0.25423130  0.11075451  1  0  -0.516618  0  3.707857  0  0  -0.530058  0  3.968691  0  0  -0.554809  0  3.986539  0  0  -0.155263  -0.513412  0  3.956016  0
C  C28  1  0.24570018  0.15112499  0.56885812  1  0  0.619904  0  3.855928  0  0  0.575761  0  4.134917  0  0  0.607394  0  4.136158  0  0  0.212875  0.554432  0  4.133424  0
C  C29  1  0.24569334  0.84887300  0.93113888  1  0  0.619993  0  3.855851  0  0  0.575772  0  4.134919  0  0  0.607407  0  4.136157  0  0  0.212847  0.554445  0  4.133426  0
C  C30  1  0.75430409  0.84887524  0.43114230  1  0  0.619934  0  3.855901  0  0  0.575745  0  4.13498  0  0  0.607383  0  4.136217  0  0  0.21287  0.554417  0  4.13348  0
C  C31  1  0.75430375  0.15112809  0.06885962  1  0  0.619862  0  3.85599  0  0  0.575675  0  4.13507  0  0  0.60731  0  4.13631  0  0  0.212816  0.554345  0  4.133573  0
S  S32  1  0.96252688  0.24278429  0.33344398  1  0  -0.522342  0  1.93109  0  0  -0.483409  0  2.260538  0  0  -0.506276  0  2.258393  0  0  -0.174024  -0.467293  0  2.26257  0
S  S33  1  0.96253027  0.75721727  0.16655628  1  0  -0.522334  0  1.931064  0  0  -0.483411  0  2.260526  0  0  -0.506285  0  2.258367  0  0  -0.174043  -0.467293  0  2.262553  0
S  S34  1  0.03747260  0.75721779  0.66655805  1  0  -0.52234  0  1.931098  0  0  -0.483418  0  2.260514  0  0  -0.506295  0  2.25835  0  0  -0.174045  -0.467306  0  2.262545  0
S  S35  1  0.03747638  0.24278202  0.83344265  1  0  -0.522334  0  1.931108  0  0  -0.483402  0  2.260506  0  0  -0.506268  0  2.258362  0  0  -0.174046  -0.467285  0  2.262545  0
N  N36  1  0.10939657  0.15412111  0.48252734  1  0  -0.471011  0  3.293167  0  0  -0.401283  0  3.528872  0  0  -0.426002  0  3.533725  0  0  -0.37964  -0.384971  0  3.526117  0
N  N37  1  0.10939117  0.84587829  0.01747148  1  0  -0.470972  0  3.2931  0  0  -0.401123  0  3.528726  0  0  -0.425849  0  3.533574  0  0  -0.379562  -0.384814  0  3.525975  0
N  N38  1  0.89060530  0.84587915  0.51747444  1  0  -0.471014  0  3.293161  0  0  -0.401328  0  3.528918  0  0  -0.426057  0  3.533758  0  0  -0.379642  -0.385014  0  3.526158  0
N  N39  1  0.89060831  0.15412100  0.98252745  1  0  -0.471  0  3.293016  0  0  -0.401274  0  3.528722  0  0  -0.425991  0  3.533576  0  0  -0.379612  -0.384946  0  3.526039  0
N  N40  1  0.30682948  0.34579221  0.48091460  1  0  -0.452275  0  3.295151  0  0  -0.384079  0  3.531633  0  0  -0.407568  0  3.535072  0  0  -0.377588  -0.36832  0  3.529036  0
N  N41  1  0.30682832  0.65420911  0.01908579  1  0  -0.45231  0  3.295221  0  0  -0.384091  0  3.531692  0  0  -0.407582  0  3.535126  0  0  -0.377637  -0.368336  0  3.529098  0
N  N42  1  0.69317239  0.65420805  0.51908717  1  0  -0.452218  0  3.295205  0  0  -0.384073  0  3.53171  0  0  -0.407572  0  3.53514  0  0  -0.377653  -0.368318  0  3.529113  0
N  N43  1  0.69317594  0.34579108  0.98091327  1  0  -0.452366  0  3.2953  0  0  -0.384189  0  3.531795  0  0  -0.407677  0  3.535236  0  0  -0.377635  -0.368428  0  3.529206  0
O  O44  1  0.61166600  0.45122245  0.59848367  1  0  -0.645591  0  1.990091  0  0  -0.580845  0  2.222879  0  0  -0.607394  0  2.217444  0  0  -0.314977  -0.561622  0  2.225911  0
O  O45  1  0.61167278  0.54877760  0.90151827  1  0  -0.645593  0  1.990054  0  0  -0.580847  0  2.222862  0  0  -0.607392  0  2.21742  0  0  -0.314983  -0.561623  0  2.225895  0
O  O46  1  0.38833109  0.54877690  0.40151798  1  0  -0.645594  0  1.990042  0  0  -0.580836  0  2.222829  0  0  -0.607386  0  2.21739  0  0  -0.314959  -0.561612  0  2.225858  0
O  O47  1  0.38832909  0.45122353  0.09848159  1  0  -0.645601  0  1.990009  0  0  -0.580827  0  2.222824  0  0  -0.607369  0  2.217376  0  0  -0.314974  -0.561605  0  2.225858  0
O  O48  1  0.19889195  0.05592834  0.60175413  1  0  -0.630952  0  1.982147  0  0  -0.56565  0  2.2106  0  0  -0.59179  0  2.204307  0  0  -0.310778  -0.547048  0  2.214204  0
O  O49  1  0.19888549  0.94406875  0.89824411  1  0  -0.630975  0  1.98216  0  0  -0.565663  0  2.210657  0  0  -0.591802  0  2.204363  0  0  -0.310754  -0.547042  0  2.21427  0
O  O50  1  0.80110753  0.94407187  0.39824560  1  0  -0.630972  0  1.982142  0  0  -0.565658  0  2.210629  0  0  -0.591796  0  2.204334  0  0  -0.310785  -0.547055  0  2.214229  0
O  O51  1  0.80110921  0.05592872  0.10175457  1  0  -0.63093  0  1.982154  0  0  -0.565621  0  2.210639  0  0  -0.591763  0  2.204346  0  0  -0.310767  -0.547015  0  2.214243  0
