# generated using pymatgen
data_Zn5P2H20(C13O7)2
_symmetry_space_group_name_H-M   'P 1'
_cell_length_a   5.34906208
_cell_length_b   7.76782059
_cell_length_c   16.74538295
_cell_angle_alpha   102.39102239
_cell_angle_beta   99.23569694
_cell_angle_gamma   90.01578046
_symmetry_Int_Tables_number   1
_chemical_formula_structural   Zn5P2H20(C13O7)2
_chemical_formula_sum   'Zn5 P2 H20 C26 O14'
_cell_volume   670.32769482
_cell_formula_units_Z   1
loop_
 _symmetry_equiv_pos_site_id
 _symmetry_equiv_pos_as_xyz
  1  'x, y, z'
loop_
 _atom_site_type_symbol
 _atom_site_label
 _atom_site_symmetry_multiplicity
 _atom_site_fract_x
 _atom_site_fract_y
 _atom_site_fract_z
 _atom_site_occupancy
 _atom_site_hle17_bader_spin_density
 _atom_site_hle17_ddec_charge
 _atom_site_hle17_ddec_spin_density
 _atom_site_hle17_ddec_sum_bond_order
 _atom_site_hle17_magmom
 _atom_site_hse06_10hf_bader_spin_density
 _atom_site_hse06_10hf_ddec_charge
 _atom_site_hse06_10hf_ddec_spin_density
 _atom_site_hse06_10hf_ddec_sum_bond_order
 _atom_site_hse06_10hf_magmom
 _atom_site_hse06_bader_spin_density
 _atom_site_hse06_ddec_charge
 _atom_site_hse06_ddec_spin_density
 _atom_site_hse06_ddec_sum_bond_order
 _atom_site_hse06_magmom
 _atom_site_pbe_bader_spin_density
 _atom_site_pbe_cm5_charge
 _atom_site_pbe_ddec_charge
 _atom_site_pbe_ddec_spin_density
 _atom_site_pbe_ddec_sum_bond_order
 _atom_site_pbe_magmom
Zn  Zn0  1  0.29221251  0.14967953  0.07378647  1  0  1.200462  0  1.808142  0  0  1.046115  0  2.270464  0  0  1.091747  0  2.206401  0  0  0.654985  1.013858  0  2.314662  0
Zn  Zn1  1  0.21818621  0.85036855  0.92624683  1  0  1.198279  0  1.810709  0  0  1.043712  0  2.273231  0  0  1.089367  0  2.209141  0  0  0.654238  1.011421  0  2.317485  0
Zn  Zn2  1  0.79132367  0.85623230  0.08243420  1  0  1.213751  0  1.728117  0  0  1.046846  0  2.200374  0  0  1.095946  0  2.133299  0  0  0.676697  1.011894  0  2.247109  0
Zn  Zn3  1  0.70878345  0.14389779  0.91749895  1  0  1.214117  0  1.726714  0  0  1.047943  0  2.198514  0  0  1.097084  0  2.131451  0  0  0.677333  1.012972  0  2.24527  0
Zn  Zn4  1  0.00385861  0.50007159  0.99996750  1  0  1.267968  0  1.675843  0  0  1.115741  0  2.1073  0  0  1.161167  0  2.047964  0  0  0.679644  1.083331  0  2.148386  0
P  P5  1  0.55942716  0.52297495  0.12604726  1  0  1.490684  0  4.818472  0  0  1.324116  0  5.300817  0  0  1.375659  0  5.264278  0  0  0.351042  1.288148  0  5.325473  0
P  P6  1  0.43266576  0.47706280  0.87391924  1  0  1.488365  0  4.821393  0  0  1.32199  0  5.303926  0  0  1.373451  0  5.267688  0  0  0.349482  1.285979  0  5.328534  0
H  H7  1  0.34897508  0.81415818  0.08092219  1  0  0.411954  0  0.899985  0  0  0.382464  0  0.96373  0  0  0.392615  0  0.949014  0  0  0.281215  0.375265  0  0.974137  0
H  H8  1  0.26791233  0.18579804  0.91904288  1  0  0.411809  0  0.900447  0  0  0.382873  0  0.963089  0  0  0.392993  0  0.948425  0  0  0.282466  0.375671  0  0.973494  0
H  H9  1  0.83992354  0.25723588  0.06224743  1  0  0.417011  0  0.901989  0  0  0.384871  0  0.968816  0  0  0.395945  0  0.952898  0  0  0.279772  0.37702  0  0.980075  0
H  H10  1  0.77725717  0.74292080  0.93770987  1  0  0.417108  0  0.901428  0  0  0.384467  0  0.969091  0  0  0.395552  0  0.953154  0  0  0.27971  0.376602  0  0.98037  0
H  H11  1  0.26895040  0.74211181  0.24309626  1  0  0.104318  0  0.954668  0  0  0.112573  0  1.018531  0  0  0.115274  0  1.01784  0  0  0.103055  0.110613  0  1.019105  0
H  H12  1  0.02516034  0.25753851  0.75655951  1  0  0.103734  0  0.95537  0  0  0.112421  0  1.018568  0  0  0.11528  0  1.017693  0  0  0.102839  0.110298  0  1.019365  0
H  H13  1  0.34444582  0.83597065  0.39401471  1  0  0.083773  0  0.987446  0  0  0.094397  0  1.051462  0  0  0.096474  0  1.05216  0  0  0.096214  0.092908  0  1.051108  0
H  H14  1  0.95032258  0.16364869  0.60563748  1  0  0.084984  0  0.986621  0  0  0.095682  0  1.050571  0  0  0.097802  0  1.051091  0  0  0.096533  0.094153  0  1.050359  0
H  H15  1  0.04370583  0.55460721  0.40359268  1  0  0.083367  0  0.991781  0  0  0.094018  0  1.056144  0  0  0.096176  0  1.056653  0  0  0.096142  0.092498  0  1.055861  0
H  H16  1  0.64054160  0.44540357  0.59674970  1  0  0.084399  0  0.991083  0  0  0.094331  0  1.056126  0  0  0.096419  0  1.056794  0  0  0.096654  0.092862  0  1.0557  0
H  H17  1  0.97073925  0.46810709  0.25309203  1  0  0.100315  0  0.952944  0  0  0.110243  0  1.014866  0  0  0.11269  0  1.014307  0  0  0.104492  0.108444  0  1.015415  0
H  H18  1  0.71732349  0.53217826  0.74726354  1  0  0.099847  0  0.953308  0  0  0.109735  0  1.015524  0  0  0.112168  0  1.014966  0  0  0.104495  0.10792  0  1.016081  0
H  H19  1  0.40248103  0.90556845  0.51347865  1  0  0.088924  0  0.983936  0  0  0.098986  0  1.047663  0  0  0.101495  0  1.047677  0  0  0.096978  0.097201  0  1.047787  0
H  H20  1  0.88921848  0.09433829  0.48624132  1  0  0.086085  0  0.985083  0  0  0.097397  0  1.047836  0  0  0.099841  0  1.047865  0  0  0.096072  0.095692  0  1.047836  0
H  H21  1  0.47589942  0.99094043  0.66522987  1  0  0.100883  0  0.960656  0  0  0.109259  0  1.024635  0  0  0.111698  0  1.024396  0  0  0.10247  0.107496  0  1.024829  0
H  H22  1  0.81105344  0.00919280  0.33449696  1  0  0.100578  0  0.960384  0  0  0.109331  0  1.024038  0  0  0.111775  0  1.023896  0  0  0.102461  0.107591  0  1.024124  0
H  H23  1  0.15472904  0.69433649  0.67495145  1  0  0.104276  0  0.954662  0  0  0.112403  0  1.018445  0  0  0.11482  0  1.018308  0  0  0.104526  0.110628  0  1.018642  0
H  H24  1  0.48108639  0.30572324  0.32538857  1  0  0.102194  0  0.956756  0  0  0.111065  0  1.019876  0  0  0.113486  0  1.019768  0  0  0.103811  0.109327  0  1.019986  0
H  H25  1  0.09332198  0.61535809  0.52317424  1  0  0.088139  0  0.982337  0  0  0.098455  0  1.04587  0  0  0.100893  0  1.045878  0  0  0.097309  0.096755  0  1.045898  0
H  H26  1  0.57128138  0.38440979  0.47718112  1  0  0.089423  0  0.980711  0  0  0.09933  0  1.044547  0  0  0.101824  0  1.044532  0  0  0.097693  0.097574  0  1.044639  0
C  C27  1  0.61340360  0.59792483  0.23714174  1  0  -0.236615  0  3.756692  0  0  -0.197278  0  4.001162  0  0  -0.206761  0  4.021938  0  0  -0.025326  -0.190918  0  3.987311  0
C  C28  1  0.37569057  0.40204966  0.76284932  1  0  -0.234925  0  3.759807  0  0  -0.195909  0  4.004671  0  0  -0.205484  0  4.025637  0  0  -0.023563  -0.189418  0  3.990592  0
C  C29  1  0.44038235  0.70265684  0.27846310  1  0  -0.035854  0  3.743904  0  0  -0.058401  0  3.989624  0  0  -0.058027  0  4.010682  0  0  -0.080075  -0.058555  0  3.975357  0
C  C30  1  0.16144504  0.29709985  0.72134397  1  0  -0.035639  0  3.744796  0  0  -0.058141  0  3.990398  0  0  -0.057864  0  4.011476  0  0  -0.080279  -0.058238  0  3.976135  0
C  C31  1  0.48395434  0.75433256  0.36465401  1  0  -0.108373  0  3.716635  0  0  -0.125535  0  3.962844  0  0  -0.129338  0  3.984557  0  0  -0.088479  -0.122942  0  3.948069  0
C  C32  1  0.11921237  0.24535297  0.63515160  1  0  -0.111743  0  3.717329  0  0  -0.129514  0  3.963944  0  0  -0.133284  0  3.985812  0  0  -0.090867  -0.126937  0  3.949044  0
C  C33  1  0.69941625  0.70209723  0.41270603  1  0  0.044167  0  3.768562  0  0  0.060497  0  3.997658  0  0  0.061165  0  4.02055  0  0  -0.00656  0.060074  0  3.982079  0
C  C34  1  0.28696767  0.29768463  0.58730264  1  0  0.044457  0  3.767391  0  0  0.061122  0  3.995052  0  0  0.061759  0  4.018027  0  0  -0.005751  0.060736  0  3.979395  0
C  C35  1  0.87285182  0.59831361  0.36999914  1  0  -0.111303  0  3.719787  0  0  -0.128957  0  3.966393  0  0  -0.132895  0  3.988368  0  0  -0.089874  -0.126272  0  3.951461  0
C  C36  1  0.50307703  0.40167027  0.63020522  1  0  -0.11059  0  3.718164  0  0  -0.127817  0  3.964679  0  0  -0.131752  0  3.986678  0  0  -0.089006  -0.125123  0  3.949723  0
C  C37  1  0.83183745  0.54776780  0.28401217  1  0  -0.027547  0  3.734093  0  0  -0.049875  0  3.979873  0  0  -0.049268  0  4.00063  0  0  -0.077634  -0.050212  0  3.965843  0
C  C38  1  0.54762983  0.45227523  0.71617660  1  0  -0.02776  0  3.737305  0  0  -0.050123  0  3.983375  0  0  -0.049428  0  4.004079  0  0  -0.078894  -0.050484  0  3.969301  0
C  C39  1  0.74156337  0.75296731  0.50457317  1  0  0.055254  0  3.765283  0  0  0.066121  0  4.000215  0  0  0.068635  0  4.021771  0  0  -0.003859  0.064561  0  3.985543  0
C  C40  1  0.23759069  0.24684109  0.49543750  1  0  0.055162  0  3.766378  0  0  0.067547  0  3.998851  0  0  0.070012  0  4.020512  0  0  -0.003086  0.066013  0  3.984114  0
C  C41  1  0.57026638  0.85901861  0.54745951  1  0  -0.125466  0  3.731762  0  0  -0.142479  0  3.982834  0  0  -0.147035  0  4.003134  0  0  -0.092859  -0.139506  0  3.969079  0
C  C42  1  0.02325892  0.14087315  0.45239084  1  0  -0.121716  0  3.729334  0  0  -0.140277  0  3.979876  0  0  -0.144733  0  4.000235  0  0  -0.091407  -0.137356  0  3.966105  0
C  C43  1  0.60962485  0.90752127  0.63354601  1  0  -0.054649  0  3.731179  0  0  -0.077477  0  3.976381  0  0  -0.075727  0  3.996545  0  0  -0.079931  -0.078416  0  3.962674  0
C  C44  1  0.97658930  0.09253784  0.36630161  1  0  -0.054687  0  3.73111  0  0  -0.078124  0  3.977377  0  0  -0.07644  0  3.997444  0  0  -0.080346  -0.079054  0  3.963725  0
C  C45  1  0.81969562  0.84777853  0.68019987  1  0  -0.079102  0  3.759408  0  0  -0.053947  0  3.98817  0  0  -0.064067  0  4.011673  0  0  -0.017602  -0.047308  0  3.972312  0
C  C46  1  0.14026583  0.15238749  0.31981977  1  0  -0.080747  0  3.761182  0  0  -0.055965  0  3.990646  0  0  -0.066077  0  4.014152  0  0  -0.019384  -0.049312  0  3.974786  0
C  C47  1  0.99112247  0.74111249  0.63884513  1  0  -0.057827  0  3.729302  0  0  -0.080829  0  3.97603  0  0  -0.079233  0  3.996268  0  0  -0.081172  -0.081688  0  3.962253  0
C  C48  1  0.35331901  0.25892460  0.36135126  1  0  -0.053308  0  3.728259  0  0  -0.076737  0  3.974218  0  0  -0.07515  0  3.994478  0  0  -0.078378  -0.077605  0  3.960435  0
C  C49  1  0.95381710  0.69645670  0.55276683  1  0  -0.120681  0  3.72999  0  0  -0.137626  0  3.980421  0  0  -0.142014  0  4.000726  0  0  -0.090543  -0.134757  0  3.966683  0
C  C50  1  0.40201153  0.30339549  0.44744214  1  0  -0.123737  0  3.730692  0  0  -0.140889  0  3.981083  0  0  -0.14535  0  4.001348  0  0  -0.092683  -0.137982  0  3.967372  0
C  C51  1  0.86339191  0.89565146  0.77247562  1  0  0.68678  0  3.875324  0  0  0.634779  0  4.1624  0  0  0.671291  0  4.153184  0  0  0.227798  0.609877  0  4.16796  0
C  C52  1  0.09172685  0.10457727  0.22754252  1  0  0.68666  0  3.876452  0  0  0.634591  0  4.163477  0  0  0.671106  0  4.154256  0  0  0.229017  0.609677  0  4.169043  0
O  O53  1  0.77851975  0.60238313  0.09301126  1  0  -0.893046  0  2.123645  0  0  -0.783245  0  2.426445  0  0  -0.815198  0  2.400193  0  0  -0.377426  -0.76053  0  2.443862  0
O  O54  1  0.68488618  0.39781007  0.90706565  1  0  -0.893799  0  2.125387  0  0  -0.783501  0  2.427782  0  0  -0.815767  0  2.401935  0  0  -0.378104  -0.760689  0  2.445108  0
O  O55  1  0.30103703  0.58860219  0.09306910  1  0  -0.878337  0  2.05596  0  0  -0.780713  0  2.33361  0  0  -0.809651  0  2.309835  0  0  -0.369038  -0.760282  0  2.349542  0
O  O56  1  0.20724037  0.41137170  0.90679653  1  0  -0.875974  0  2.054886  0  0  -0.779106  0  2.33273  0  0  -0.807866  0  2.309085  0  0  -0.367264  -0.758635  0  2.348485  0
O  O57  1  0.58269467  0.32071330  0.10559793  1  0  -0.85672  0  2.058828  0  0  -0.752905  0  2.33559  0  0  -0.783154  0  2.311673  0  0  -0.37031  -0.73153  0  2.351588  0
O  O58  1  0.47645041  0.67936139  0.89433693  1  0  -0.856819  0  2.059896  0  0  -0.752874  0  2.336887  0  0  -0.783136  0  2.313004  0  0  -0.371193  -0.731425  0  2.352778  0
O  O59  1  0.74684320  0.02941700  0.80607131  1  0  -0.656966  0  2.081769  0  0  -0.580975  0  2.365707  0  0  -0.61048  0  2.346573  0  0  -0.317229  -0.560355  0  2.378267  0
O  O60  1  0.94091382  0.97109812  0.19387144  1  0  -0.657205  0  2.083944  0  0  -0.580232  0  2.366852  0  0  -0.609702  0  2.347676  0  0  -0.317186  -0.559663  0  2.379498  0
O  O61  1  0.01217037  0.80192865  0.81041164  1  0  -0.639915  0  2.086717  0  0  -0.57128  0  2.3527  0  0  -0.598872  0  2.337226  0  0  -0.309066  -0.552103  0  2.362776  0
O  O62  1  0.20338551  0.19801084  0.18969780  1  0  -0.640775  0  2.085368  0  0  -0.572452  0  2.351758  0  0  -0.600052  0  2.336291  0  0  -0.310648  -0.55327  0  2.361829  0
O  O63  1  0.42749829  0.90767549  0.06012281  1  0  -0.999262  0  1.930483  0  0  -0.891347  0  2.231862  0  0  -0.925818  0  2.190714  0  0  -0.571067  -0.866878  0  2.259902  0
O  O64  1  0.36738431  0.09230917  0.93982330  1  0  -0.998543  0  1.929725  0  0  -0.891712  0  2.230929  0  0  -0.926067  0  2.189695  0  0  -0.572789  -0.86728  0  2.259043  0
O  O65  1  0.95724679  0.22678569  0.02062395  1  0  -1.025335  0  1.939601  0  0  -0.920482  0  2.255089  0  0  -0.954835  0  2.210505  0  0  -0.563746  -0.896072  0  2.285527  0
O  O66  1  0.93631728  0.77342871  0.97937246  1  0  -1.02426  0  1.93907  0  0  -0.918696  0  2.254654  0  0  -0.953084  0  2.210102  0  0  -0.562518  -0.894262  0  2.285079  0
