# generated using pymatgen
data_CuH6C5BrN2
_symmetry_space_group_name_H-M   'P 1'
_cell_length_a   4.01873449
_cell_length_b   12.44816320
_cell_length_c   12.83570040
_cell_angle_alpha   90.00009539
_cell_angle_beta   89.99812092
_cell_angle_gamma   98.93099538
_symmetry_Int_Tables_number   1
_chemical_formula_structural   CuH6C5BrN2
_chemical_formula_sum   'Cu4 H24 C20 Br4 N8'
_cell_volume   634.33197820
_cell_formula_units_Z   4
loop_
 _symmetry_equiv_pos_site_id
 _symmetry_equiv_pos_as_xyz
  1  'x, y, z'
loop_
 _atom_site_type_symbol
 _atom_site_label
 _atom_site_symmetry_multiplicity
 _atom_site_fract_x
 _atom_site_fract_y
 _atom_site_fract_z
 _atom_site_occupancy
 _atom_site_hle17_bader_spin_density
 _atom_site_hle17_ddec_charge
 _atom_site_hle17_ddec_spin_density
 _atom_site_hle17_ddec_sum_bond_order
 _atom_site_hle17_magmom
 _atom_site_hse06_10hf_bader_spin_density
 _atom_site_hse06_10hf_ddec_charge
 _atom_site_hse06_10hf_ddec_spin_density
 _atom_site_hse06_10hf_ddec_sum_bond_order
 _atom_site_hse06_10hf_magmom
 _atom_site_hse06_bader_spin_density
 _atom_site_hse06_ddec_charge
 _atom_site_hse06_ddec_spin_density
 _atom_site_hse06_ddec_sum_bond_order
 _atom_site_hse06_magmom
 _atom_site_pbe_bader_spin_density
 _atom_site_pbe_cm5_charge
 _atom_site_pbe_ddec_charge
 _atom_site_pbe_ddec_spin_density
 _atom_site_pbe_ddec_sum_bond_order
 _atom_site_pbe_magmom
Cu  Cu0  1  0.45766832  0.66957042  0.30525592  1  0  0.430967  0  1.933367  0  0  0.32426  0  2.405108  0  0  0.317613  0  2.367148  0  0  0.444427  0.33158  0  2.428183  0
Cu  Cu1  1  0.45767828  0.16957544  0.19474670  1  0  0.430939  0  1.933347  0  0  0.324254  0  2.405108  0  0  0.3176  0  2.367155  0  0  0.444449  0.331582  0  2.428202  0
Cu  Cu2  1  0.54236092  0.33042701  0.69474476  1  0  0.430969  0  1.933406  0  0  0.324262  0  2.405175  0  0  0.317657  0  2.367252  0  0  0.444422  0.331587  0  2.428207  0
Cu  Cu3  1  0.54233101  0.83042189  0.80525399  1  0  0.430955  0  1.933448  0  0  0.32424  0  2.405198  0  0  0.317621  0  2.367263  0  0  0.444446  0.331569  0  2.428253  0
H  H4  1  0.72693257  0.63817561  0.68632135  1  0  0.088103  0  0.98318  0  0  0.096119  0  1.050102  0  0  0.099248  0  1.048021  0  0  0.103514  0.093655  0  1.052032  0
H  H5  1  0.72695688  0.13818449  0.81367682  1  0  0.088094  0  0.98324  0  0  0.096145  0  1.050155  0  0  0.099272  0  1.048078  0  0  0.10354  0.093682  0  1.052088  0
H  H6  1  0.27305637  0.36182648  0.31368089  1  0  0.088146  0  0.983173  0  0  0.096159  0  1.050095  0  0  0.099289  0  1.048014  0  0  0.103522  0.093695  0  1.052028  0
H  H7  1  0.27304558  0.86182010  0.18631919  1  0  0.088071  0  0.983276  0  0  0.096127  0  1.050188  0  0  0.099251  0  1.048113  0  0  0.103528  0.093666  0  1.052126  0
H  H8  1  0.72917819  0.58882277  0.49906858  1  0  0.0929  0  0.962581  0  0  0.096665  0  1.034212  0  0  0.10034  0  1.031319  0  0  0.105637  0.093933  0  1.036497  0
H  H9  1  0.72919543  0.08882746  0.00093033  1  0  0.092851  0  0.962577  0  0  0.096606  0  1.034215  0  0  0.100291  0  1.031312  0  0  0.105613  0.09387  0  1.036503  0
H  H10  1  0.27082672  0.41118751  0.50093756  1  0  0.092915  0  0.962336  0  0  0.09659  0  1.034085  0  0  0.100278  0  1.031182  0  0  0.105634  0.093856  0  1.036367  0
H  H11  1  0.27078143  0.91116969  0.99906256  1  0  0.092978  0  0.962354  0  0  0.09662  0  1.03411  0  0  0.100309  0  1.031206  0  0  0.105677  0.093885  0  1.036395  0
H  H12  1  0.26286917  0.90564462  0.61430993  1  0  0.087869  0  0.981746  0  0  0.096263  0  1.047791  0  0  0.099699  0  1.045801  0  0  0.102332  0.09371  0  1.049432  0
H  H13  1  0.26290097  0.40565338  0.88569417  1  0  0.08776  0  0.981905  0  0  0.096187  0  1.047891  0  0  0.099622  0  1.045901  0  0  0.102315  0.093635  0  1.049533  0
H  H14  1  0.73710979  0.09435741  0.38569309  1  0  0.087873  0  0.981882  0  0  0.096255  0  1.047913  0  0  0.099687  0  1.045922  0  0  0.102352  0.0937  0  1.049561  0
H  H15  1  0.73709970  0.59435283  0.11430107  1  0  0.087822  0  0.981911  0  0  0.09619  0  1.047989  0  0  0.09962  0  1.046004  0  0  0.102329  0.093638  0  1.049628  0
H  H16  1  0.14316145  0.94646604  0.43574222  1  0  0.115775  0  0.947717  0  0  0.138484  0  1.005254  0  0  0.139288  0  1.006287  0  0  0.089634  0.137885  0  1.00459  0
H  H17  1  0.14317137  0.44647460  0.06426477  1  0  0.115758  0  0.947752  0  0  0.138489  0  1.005244  0  0  0.139294  0  1.006271  0  0  0.089645  0.13789  0  1.004579  0
H  H18  1  0.85682216  0.05353521  0.56425535  1  0  0.115763  0  0.947727  0  0  0.138501  0  1.005223  0  0  0.139304  0  1.006249  0  0  0.089652  0.137894  0  1.004566  0
H  H19  1  0.85682076  0.55352912  0.93573981  1  0  0.115821  0  0.947742  0  0  0.138535  0  1.005241  0  0  0.139343  0  1.006266  0  0  0.089647  0.137934  0  1.004577  0
H  H20  1  0.04850806  0.82975971  0.35442103  1  0  0.116749  0  0.97098  0  0  0.124625  0  1.061929  0  0  0.130363  0  1.054459  0  0  0.086997  0.120519  0  1.066905  0
H  H21  1  0.04849318  0.32976471  0.14558371  1  0  0.11672  0  0.971014  0  0  0.124579  0  1.062004  0  0  0.13032  0  1.054533  0  0  0.086991  0.120474  0  1.066976  0
H  H22  1  0.95149699  0.17023354  0.64557809  1  0  0.116749  0  0.970956  0  0  0.124637  0  1.061889  0  0  0.130371  0  1.054429  0  0  0.087027  0.120533  0  1.066852  0
H  H23  1  0.95150648  0.67023338  0.85441853  1  0  0.11675  0  0.971005  0  0  0.124605  0  1.061989  0  0  0.130341  0  1.054523  0  0  0.087011  0.120498  0  1.06696  0
H  H24  1  0.44982627  0.91206675  0.34696008  1  0  0.124153  0  0.963182  0  0  0.142314  0  1.032097  0  0  0.144626  0  1.031104  0  0  0.089289  0.140512  0  1.032892  0
H  H25  1  0.44981490  0.41207013  0.15304287  1  0  0.124155  0  0.96323  0  0  0.142328  0  1.032114  0  0  0.144641  0  1.031119  0  0  0.089312  0.140528  0  1.032904  0
H  H26  1  0.55017874  0.08793217  0.65303671  1  0  0.124152  0  0.963208  0  0  0.142314  0  1.032119  0  0  0.144628  0  1.031122  0  0  0.089296  0.140513  0  1.032909  0
H  H27  1  0.55019045  0.58792961  0.84695704  1  0  0.124178  0  0.963214  0  0  0.142342  0  1.032114  0  0  0.144655  0  1.03112  0  0  0.08933  0.140547  0  1.032899  0
C  C28  1  0.62290123  0.68809862  0.62906131  1  0  0.071525  0  3.675608  0  0  0.037652  0  3.934457  0  0  0.041742  0  3.945709  0  0  0.032569  0.03454  0  3.927738  0
C  C29  1  0.62292174  0.18810654  0.87093411  1  0  0.071546  0  3.675383  0  0  0.037505  0  3.93431  0  0  0.041609  0  3.945571  0  0  0.032477  0.034367  0  3.927592  0
C  C30  1  0.37710661  0.31190113  0.37093781  1  0  0.071471  0  3.67561  0  0  0.037564  0  3.934488  0  0  0.041656  0  3.945745  0  0  0.032555  0.034453  0  3.927778  0
C  C31  1  0.37707967  0.81189562  0.12906658  1  0  0.071541  0  3.675443  0  0  0.037497  0  3.934368  0  0  0.041602  0  3.94563  0  0  0.032479  0.034354  0  3.927672  0
C  C32  1  0.62557110  0.66033301  0.52454887  1  0  0.089349  0  3.659788  0  0  0.057059  0  3.915532  0  0  0.06246  0  3.925985  0  0  0.038822  0.053073  0  3.909376  0
C  C33  1  0.62558502  0.16034471  0.97545272  1  0  0.089376  0  3.65944  0  0  0.05716  0  3.915118  0  0  0.062548  0  3.925568  0  0  0.038907  0.053171  0  3.908974  0
C  C34  1  0.37444278  0.33966921  0.47545259  1  0  0.089367  0  3.659153  0  0  0.057136  0  3.914898  0  0  0.062525  0  3.925351  0  0  0.038833  0.053153  0  3.908731  0
C  C35  1  0.37440537  0.83965495  0.02454485  1  0  0.089304  0  3.659279  0  0  0.057142  0  3.914947  0  0  0.06253  0  3.925401  0  0  0.038819  0.053162  0  3.908794  0
C  C36  1  0.37649188  0.80972129  0.48186073  1  0  0.249887  0  3.713731  0  0  0.26526  0  3.946446  0  0  0.269241  0  3.966995  0  0  0.109805  0.262176  0  3.933186  0
C  C37  1  0.37649837  0.30973399  0.01814289  1  0  0.249696  0  3.713923  0  0  0.265039  0  3.946693  0  0  0.269017  0  3.967235  0  0  0.109694  0.261953  0  3.933435  0
C  C38  1  0.62352240  0.19027607  0.51813996  1  0  0.249735  0  3.713985  0  0  0.265136  0  3.946645  0  0  0.269075  0  3.967253  0  0  0.109682  0.262059  0  3.933377  0
C  C39  1  0.62349771  0.69026732  0.98185546  1  0  0.249837  0  3.71401  0  0  0.265108  0  3.94681  0  0  0.26909  0  3.967357  0  0  0.109723  0.262024  0  3.933547  0
C  C40  1  0.37129065  0.83558317  0.58717018  1  0  0.006385  0  3.650964  0  0  -0.027891  0  3.895244  0  0  -0.026667  0  3.909957  0  0  0.029575  -0.029134  0  3.886317  0
C  C41  1  0.37130182  0.33559094  0.91282882  1  0  0.006598  0  3.651396  0  0  -0.027716  0  3.895626  0  0  -0.026477  0  3.910352  0  0  0.029643  -0.028978  0  3.88669  0
C  C42  1  0.62871720  0.16441658  0.41283129  1  0  0.006408  0  3.651146  0  0  -0.027875  0  3.895405  0  0  -0.026625  0  3.910116  0  0  0.029567  -0.029111  0  3.88648  0
C  C43  1  0.62870388  0.66440962  0.08717031  1  0  0.006519  0  3.651384  0  0  -0.027769  0  3.895639  0  0  -0.02653  0  3.910361  0  0  0.029653  -0.029017  0  3.886707  0
C  C44  1  0.24711322  0.87842227  0.40099714  1  0  -0.375812  0  3.728009  0  0  -0.461027  0  3.968289  0  0  -0.464366  0  3.974217  0  0  -0.247709  -0.458298  0  3.964393  0
C  C45  1  0.24712064  0.37842749  0.09900713  1  0  -0.37567  0  3.728487  0  0  -0.460887  0  3.968758  0  0  -0.464242  0  3.974717  0  0  -0.247649  -0.458159  0  3.964858  0
C  C46  1  0.75288215  0.12157742  0.59900355  1  0  -0.375689  0  3.728231  0  0  -0.460935  0  3.968485  0  0  -0.464267  0  3.974442  0  0  -0.247692  -0.458219  0  3.964591  0
C  C47  1  0.75287973  0.62157222  0.90099434  1  0  -0.375801  0  3.728543  0  0  -0.460953  0  3.968781  0  0  -0.464295  0  3.974712  0  0  -0.247683  -0.458232  0  3.964876  0
Br  Br48  1  0.92402566  0.53815015  0.30392898  1  0  -0.553251  0  1.197275  0  0  -0.486511  0  1.563242  0  0  -0.506065  0  1.536268  0  0  -0.265713  -0.472284  0  1.581001  0
Br  Br49  1  0.92403412  0.03814623  0.19606783  1  0  -0.553203  0  1.197093  0  0  -0.486487  0  1.563082  0  0  -0.506053  0  1.536131  0  0  -0.265703  -0.472243  0  1.580832  0
Br  Br50  1  0.07596582  0.46184627  0.69606859  1  0  -0.553191  0  1.197285  0  0  -0.486476  0  1.563282  0  0  -0.50606  0  1.536342  0  0  -0.265679  -0.472267  0  1.581036  0
Br  Br51  1  0.07594917  0.96184852  0.80393519  1  0  -0.553197  0  1.197163  0  0  -0.486484  0  1.563196  0  0  -0.506062  0  1.536251  0  0  -0.265697  -0.472237  0  1.580878  0
N  N52  1  0.49475655  0.77626989  0.66215878  1  0  -0.243916  0  3.395151  0  0  -0.174453  0  3.69753  0  0  -0.175011  0  3.69936  0  0  -0.362463  -0.174808  0  3.696353  0
N  N53  1  0.49476584  0.27628431  0.83784353  1  0  -0.244115  0  3.395533  0  0  -0.17454  0  3.697861  0  0  -0.175137  0  3.699724  0  0  -0.362546  -0.174843  0  3.696624  0
N  N54  1  0.50525024  0.22372742  0.33783956  1  0  -0.243933  0  3.395153  0  0  -0.174435  0  3.697502  0  0  -0.174997  0  3.699318  0  0  -0.362463  -0.174804  0  3.696356  0
N  N55  1  0.50524126  0.72371949  0.16215249  1  0  -0.244065  0  3.395493  0  0  -0.174477  0  3.69779  0  0  -0.175067  0  3.699631  0  0  -0.362521  -0.174798  0  3.696589  0
N  N56  1  0.50355434  0.71980417  0.44979398  1  0  -0.300679  0  3.328889  0  0  -0.228837  0  3.607123  0  0  -0.232518  0  3.611487  0  0  -0.356728  -0.227084  0  3.604246  0
N  N57  1  0.50355894  0.21981436  0.05021055  1  0  -0.300553  0  3.328721  0  0  -0.228687  0  3.606916  0  0  -0.232353  0  3.611264  0  0  -0.356667  -0.226934  0  3.604044  0
N  N58  1  0.49646638  0.28019078  0.55021138  1  0  -0.300676  0  3.328515  0  0  -0.22879  0  3.606667  0  0  -0.232462  0  3.61107  0  0  -0.356728  -0.227037  0  3.603767  0
N  N59  1  0.49643718  0.78018127  0.94978702  1  0  -0.300726  0  3.328922  0  0  -0.228721  0  3.606978  0  0  -0.232412  0  3.611371  0  0  -0.356731  -0.22697  0  3.604087  0
