# generated using pymatgen
data_CoH18C27(N2O3)2
_symmetry_space_group_name_H-M   'P 1'
_cell_length_a   7.87333950
_cell_length_b   15.47445305
_cell_length_c   21.93636997
_cell_angle_alpha   90.72040548
_cell_angle_beta   99.20200297
_cell_angle_gamma   89.80844025
_symmetry_Int_Tables_number   1
_chemical_formula_structural   CoH18C27(N2O3)2
_chemical_formula_sum   'Co4 H72 C108 N16 O24'
_cell_volume   2638.02538636
_cell_formula_units_Z   4
loop_
 _symmetry_equiv_pos_site_id
 _symmetry_equiv_pos_as_xyz
  1  'x, y, z'
loop_
 _atom_site_type_symbol
 _atom_site_label
 _atom_site_symmetry_multiplicity
 _atom_site_fract_x
 _atom_site_fract_y
 _atom_site_fract_z
 _atom_site_occupancy
 _atom_site_pbe_bader_charge
 _atom_site_pbe_bader_spin_density
 _atom_site_pbe_cm5_charge
 _atom_site_pbe_ddec_charge
 _atom_site_pbe_ddec_spin_density
 _atom_site_pbe_ddec_sum_bond_order
 _atom_site_pbe_magmom
Co  Co0  1  0.07956975  0.17599018  0.80336076  1  1.213038  2.564087  0.668348  0.81485  2.801075  2.504186  2.511
Co  Co1  1  0.91609978  0.67136964  0.69788928  1  1.212686  2.557736  0.67302  0.81491  2.794904  2.534614  2.506
Co  Co2  1  0.91262642  0.82849855  0.20093249  1  1.213694  2.560432  0.673029  0.814909  2.803133  2.525727  2.51
Co  Co3  1  0.09761291  0.33232797  0.30743444  1  1.097894  -0.958663  0.635355  0.639239  -1.066806  2.920555  -0.944
H  H4  1  0.43900464  0.97262830  0.53982953  1  0.659936  2e-06  0.299926  0.352495  3e-06  0.993712  0.0
H  H5  1  0.55461885  0.47545254  0.95794690  1  0.652473  2e-06  0.29944  0.352159  2e-06  0.998919  0.0
H  H6  1  0.55100222  0.02301670  0.45964454  1  0.645739  2e-06  0.299482  0.352912  3e-06  0.993259  0.0
H  H7  1  0.43740517  0.52295757  0.03831314  1  0.645125  1e-06  0.299336  0.352  1e-06  0.998463  0.0
H  H8  1  0.71659970  0.84301511  0.84673541  1  0.120673  0.000601  0.104439  0.110534  0.000281  1.000776  0.0
H  H9  1  0.27447052  0.34154698  0.65239799  1  0.101247  0.000599  0.104526  0.10958  0.000279  1.000111  0.0
H  H10  1  0.27717881  0.15856124  0.15326079  1  0.088374  -0.000473  0.10535  0.110513  -0.000332  1.004641  0.0
H  H11  1  0.71074284  0.65464700  0.34773582  1  0.096959  0.000508  0.103519  0.108361  0.000254  1.001098  0.0
H  H12  1  0.49673498  0.93759877  0.88554973  1  0.054444  0.000129  0.105488  0.111018  1.8e-05  0.983432  0.0
H  H13  1  0.49373434  0.43373142  0.61336118  1  0.033914  0.000134  0.105348  0.110278  1.7e-05  0.9832  0.0
H  H14  1  0.49995256  0.06354724  0.11646247  1  0.085444  0.000104  0.10622  0.111714  8e-06  0.981407  0.0
H  H15  1  0.49674955  0.55139293  0.37975169  1  0.093  -8.7e-05  0.107887  0.114731  -4.2e-05  0.983683  0.0
H  H16  1  0.38245769  0.81506526  0.67332142  1  0.102839  0.000454  0.102177  0.107265  0.000255  1.027596  0.0
H  H17  1  0.61324583  0.31481364  0.82441051  1  0.091203  0.000476  0.103614  0.109068  0.000264  1.024502  0.0
H  H18  1  0.60473350  0.19195005  0.32772859  1  0.074054  5e-05  0.102869  0.10716  3.9e-05  1.020378  0.0
H  H19  1  0.38069831  0.68880269  0.17428202  1  0.11683  0.000442  0.105419  0.111286  0.000265  1.022376  0.0
H  H20  1  0.95066367  0.91435728  0.75973098  1  0.09215  0.00012  0.107038  0.117366  -3.6e-05  1.004159  0.0
H  H21  1  0.04250010  0.41440692  0.73797698  1  0.099933  0.000138  0.106797  0.116558  -3.7e-05  1.005438  0.0
H  H22  1  0.03685203  0.09093589  0.24208155  1  0.08763  -8.6e-05  0.108188  0.11811  -0.0001  1.008783  0.0
H  H23  1  0.95496389  0.58738565  0.25693192  1  0.076377  0.000145  0.104175  0.109038  4.6e-05  1.003011  0.0
H  H24  1  0.69550214  0.94626800  0.68200486  1  0.102199  6e-05  0.099119  0.094492  -2e-06  1.046235  0.0
H  H25  1  0.29737475  0.44714222  0.81619522  1  0.097181  6.3e-05  0.099674  0.095844  -4e-06  1.047368  0.0
H  H26  1  0.29234728  0.05366831  0.31801453  1  0.088633  8.5e-05  0.099531  0.095024  4.7e-05  1.047066  0.0
H  H27  1  0.69677713  0.55502887  0.17960343  1  0.068962  -7e-06  0.099315  0.096634  -4.1e-05  1.042121  0.0
H  H28  1  0.02008904  0.96864025  0.54208980  1  0.111078  5e-06  0.099717  0.100288  3e-06  1.051997  0.0
H  H29  1  0.97383075  0.46612744  0.95694292  1  0.118296  2e-06  0.099991  0.099137  -0.0  1.052998  0.0
H  H30  1  0.97149387  0.03007377  0.45905154  1  0.090396  1.4e-05  0.099105  0.097666  6e-06  1.053339  0.0
H  H31  1  0.01603610  0.53300076  0.03760968  1  0.081687  2e-06  0.100352  0.099904  1e-06  1.053394  0.0
H  H32  1  0.27365244  0.93459672  0.61942246  1  0.077897  2e-06  0.100473  0.107726  -1.4e-05  1.02972  0.0
H  H33  1  0.72024308  0.43212079  0.87911424  1  0.052171  -1e-06  0.102676  0.110469  -1.9e-05  1.026941  0.0
H  H34  1  0.71777733  0.07001053  0.38345582  1  0.07597  2.2e-05  0.100626  0.107939  6e-06  1.029143  0.0
H  H35  1  0.27230911  0.56755925  0.11460708  1  0.098836  -7e-06  0.103288  0.111646  -1.7e-05  1.02652  0.0
H  H36  1  0.82386018  0.22928263  0.68252442  1  0.1514  0.000388  0.142086  0.112969  -3.7e-05  0.991998  0.0
H  H37  1  0.17358377  0.72653732  0.81642868  1  0.15883  0.000454  0.142415  0.112545  -1e-05  0.992828  0.001
H  H38  1  0.17186350  0.77581583  0.31795855  1  0.127085  0.000434  0.141247  0.110851  -2e-05  0.993928  0.001
H  H39  1  0.86041965  0.27683093  0.19403099  1  0.164314  8.9e-05  0.14436  0.122333  0.000144  1.003517  0.0
H  H40  1  0.45658989  0.05608563  0.73570290  1  0.167125  0.000784  0.125142  0.128994  0.000299  1.042385  0.0
H  H41  1  0.53999531  0.55179270  0.76093304  1  0.147368  0.000888  0.125173  0.128694  0.000336  1.048744  0.0
H  H42  1  0.53810547  0.94734541  0.26243218  1  0.167463  0.000908  0.12437  0.129319  0.000369  1.050998  0.0
H  H43  1  0.48231802  0.45053105  0.24182605  1  0.153583  9.2e-05  0.121781  0.119545  5.7e-05  1.065315  0.0
H  H44  1  0.75017745  0.05790949  0.82368811  1  0.152362  0.001026  0.125483  0.119732  0.000416  0.994303  0.001
H  H45  1  0.24194158  0.54973428  0.67483256  1  0.091721  0.001098  0.125608  0.119649  0.000423  0.995879  0.001
H  H46  1  0.23693209  0.94988840  0.17756837  1  0.172234  0.000997  0.126836  0.121192  0.00039  0.993137  0.001
H  H47  1  0.77202923  0.45516605  0.33232713  1  0.109326  -8.3e-05  0.126469  0.122063  -1.6e-05  0.994699  0.0
H  H48  1  0.26496711  0.11868067  0.67020096  1  0.14835  -5e-06  0.116935  0.132748  -0.000101  1.001166  0.0
H  H49  1  0.73249988  0.61514224  0.82734876  1  0.123859  -4e-06  0.117364  0.130981  -9.5e-05  1.002448  0.0
H  H50  1  0.73103820  0.88637525  0.32866242  1  0.135614  -1.1e-05  0.117214  0.133128  -9.4e-05  1.004169  0.0
H  H51  1  0.29550743  0.38783865  0.17825318  1  0.15589  3.4e-05  0.114423  0.134732  6.3e-05  1.025949  0.0
H  H52  1  0.06523000  0.15462368  0.57610104  1  0.084768  9e-06  0.110868  0.116884  -8e-06  0.994336  0.0
H  H53  1  0.93118636  0.65494756  0.92171418  1  0.099084  3.1e-05  0.112046  0.11719  6e-06  0.994578  0.0
H  H54  1  0.93150053  0.84612191  0.42183090  1  0.057283  3.7e-05  0.111077  0.116211  7e-06  0.99736  0.0
H  H55  1  0.09761969  0.34937634  0.08455479  1  0.08249  6.4e-05  0.111511  0.117697  3.1e-05  0.992514  0.0
H  H56  1  0.48556737  0.26024097  0.49648073  1  0.077137  0.000117  0.114816  0.123701  5.3e-05  0.984547  0.0
H  H57  1  0.50824055  0.76417092  0.00029058  1  0.082509  4e-05  0.115954  0.124236  9e-06  0.983116  0.0
H  H58  1  0.51135247  0.73649368  0.49940698  1  0.081017  3.8e-05  0.116017  0.124956  8e-06  0.983438  0.0
H  H59  1  0.51539906  0.23427251  0.00634148  1  0.067781  3.1e-05  0.11444  0.122562  -3e-06  0.986069  0.0
H  H60  1  0.68835282  0.21544931  0.58765976  1  0.048912  -1.1e-05  0.1093  0.110673  -2.1e-05  1.005839  0.0
H  H61  1  0.30679738  0.71511467  0.90923747  1  0.076345  8e-06  0.109079  0.109933  -7e-06  1.008848  0.0
H  H62  1  0.30827533  0.78576710  0.40972522  1  0.080486  6e-06  0.108076  0.107746  -8e-06  1.011271  0.0
H  H63  1  0.71854288  0.28025400  0.09803822  1  0.07175  0.000105  0.109567  0.112472  3.9e-05  1.003967  0.0
H  H64  1  0.31190960  0.22657221  0.40715894  1  0.175663  -5.3e-05  0.138757  0.111217  7.6e-05  1.021151  0.0
H  H65  1  0.67978133  0.73803146  0.08925807  1  0.184668  0.000505  0.141133  0.118387  6e-05  1.021077  0.0
H  H66  1  0.68270819  0.76071650  0.58823564  1  0.209579  0.000492  0.141663  0.119441  6.2e-05  1.024865  0.0
H  H67  1  0.33452707  0.26154890  0.91445677  1  0.199003  0.000443  0.141377  0.119735  3.9e-05  1.019631  0.0
H  H68  1  0.91195473  0.26571326  0.51345032  1  0.101605  -5.5e-05  0.125679  0.125058  -3.2e-05  1.003874  0.0
H  H69  1  0.08252389  0.76724001  0.98336064  1  0.135907  0.000837  0.127582  0.127266  0.000321  1.005432  0.0
H  H70  1  0.08706108  0.73652791  0.48197907  1  0.104535  0.00083  0.125038  0.123514  0.000309  1.010413  0.0
H  H71  1  0.94228417  0.23893979  0.02568992  1  0.128672  0.000758  0.126865  0.12613  0.000286  1.008629  0.0
H  H72  1  0.79576784  0.30808160  0.39145566  1  0.123132  -6.2e-05  0.123237  0.116439  2.3e-05  1.006176  0.0
H  H73  1  0.19609818  0.81701067  0.10515269  1  0.079092  0.000789  0.125271  0.118528  0.000188  0.999323  0.001
H  H74  1  0.20121623  0.68493817  0.60253075  1  0.103948  0.000788  0.125703  0.12088  0.000193  0.9961  0.001
H  H75  1  0.81526451  0.19033194  0.90472975  1  0.100749  0.000766  0.125583  0.119374  0.0002  0.992169  0.001
C  C76  1  0.68345084  0.76611894  0.73060043  1  1.519299  -0.001559  0.193014  0.547063  -8.4e-05  4.205213  -0.004
C  C77  1  0.31089366  0.26691557  0.76841211  1  1.520908  -0.001652  0.194729  0.548281  -0.000128  4.208094  -0.004
C  C78  1  0.29495357  0.23621263  0.26379085  1  1.504973  0.005161  0.194807  0.53382  0.002655  4.171616  0.005
C  C79  1  0.68255950  0.73384171  0.23310838  1  1.540122  -0.002601  0.194516  0.547623  -0.00071  4.202785  -0.004
C  C80  1  0.56154203  0.82367020  0.75723738  1  -0.066416  0.005373  -0.023388  -0.040351  0.002878  4.009945  0.003
C  C81  1  0.43184454  0.32302029  0.74131861  1  -0.060909  0.005536  -0.025014  -0.042514  0.002968  4.011924  0.003
C  C82  1  0.42837269  0.18047018  0.24272323  1  -0.058964  0.002407  -0.023083  -0.039134  0.001224  4.016723  0.001
C  C83  1  0.55952016  0.67607716  0.25802212  1  -0.106669  0.001606  -0.020357  -0.032071  0.000909  3.994335  0.001
C  C84  1  0.59518335  0.85800114  0.81737155  1  -0.091401  -0.000374  -0.084822  -0.093673  -0.000163  3.98023  0.0
C  C85  1  0.39661680  0.35637954  0.68152292  1  -0.03777  -0.000458  -0.08366  -0.09138  -0.000198  3.979597  0.0
C  C86  1  0.39821691  0.14430218  0.18301520  1  -0.009387  0.000633  -0.084541  -0.094324  0.000221  3.986379  0.0
C  C87  1  0.59167087  0.63923893  0.31684497  1  -0.011131  0.000288  -0.085379  -0.099285  0.000207  3.97842  0.0
C  C88  1  0.47268698  0.91072617  0.83874702  1  -0.002599  0.003938  -0.089001  -0.115954  0.001915  3.993999  0.003
C  C89  1  0.51892139  0.40780866  0.65996120  1  -0.013474  0.004059  -0.09025  -0.115901  0.001967  3.994924  0.003
C  C90  1  0.52200688  0.09155733  0.16294242  1  -0.080334  0.003182  -0.087448  -0.110983  0.001617  3.997673  0.002
C  C91  1  0.47230984  0.58219717  0.33471522  1  -0.059328  -0.000553  -0.086567  -0.108973  -0.000377  3.985609  0.0
C  C92  1  0.31972869  0.93324991  0.80016638  1  0.012891  0.003492  -0.004933  -0.042268  0.001765  3.902435  0.003
C  C93  1  0.67308306  0.43025637  0.69818595  1  -0.020662  0.003198  -0.00585  -0.046001  0.001592  3.90827  0.002
C  C94  1  0.67344177  0.07045785  0.20281416  1  -0.044124  0.006332  -0.005242  -0.046791  0.003287  3.905018  0.004
C  C95  1  0.32331062  0.55875600  0.29378738  1  -0.05134  -0.00026  -0.008553  -0.060183  -0.000107  3.927747  0.0
C  C96  1  0.28571267  0.89955801  0.73919308  1  -0.051866  0.002683  -0.008013  0.023621  0.001349  3.991017  0.002
C  C97  1  0.70816338  0.39782497  0.75888873  1  -0.050296  0.002851  -0.00864  0.022377  0.001432  3.998859  0.002
C  C98  1  0.70451180  0.10597730  0.26328850  1  0.023732  0.001815  -0.005376  0.02932  0.000942  3.980946  0.001
C  C99  1  0.28704698  0.59855505  0.23548300  1  0.018757  1.7e-05  -0.005514  0.034053  1e-06  3.993104  0.0
C  C100  1  0.40663445  0.84391285  0.71942431  1  -0.018062  0.000348  -0.082915  -0.140197  0.000237  3.956658  0.0
C  C101  1  0.58778569  0.34306613  0.77865385  1  -0.021746  0.000327  -0.081115  -0.137192  0.000224  3.960274  0.0
C  C102  1  0.58204899  0.16215737  0.28188119  1  -0.012006  0.001003  -0.082457  -0.140076  0.000565  3.944375  0.0
C  C103  1  0.40548657  0.65718372  0.21893946  1  -0.050341  0.00045  -0.079165  -0.136846  0.000275  3.945551  0.001
C  C104  1  0.13047205  0.92204354  0.69497547  1  -0.01085  0.00052  0.005625  0.095541  0.000301  3.970091  0.0
C  C105  1  0.86331087  0.42072994  0.80316438  1  0.00623  0.000655  0.003314  0.091111  0.000413  3.97573  0.0
C  C106  1  0.85919404  0.08272856  0.30745222  1  0.029336  0.000248  0.005676  0.095487  0.000103  3.968564  0.0
C  C107  1  0.13095980  0.57886145  0.19085246  1  -0.017576  0.000139  0.004019  0.093883  0.000165  3.979936  0.0
C  C108  1  0.96633988  0.92694259  0.71223151  1  -0.008868  0.000531  -0.083055  -0.115481  0.000187  3.930564  0.0
C  C109  1  0.02693766  0.42657999  0.78573929  1  -0.020592  0.000839  -0.083087  -0.113983  0.000377  3.937085  0.0
C  C110  1  0.02221645  0.07663682  0.28939963  1  -0.044909  0.00012  -0.082657  -0.109228  -1.9e-05  3.923955  0.0
C  C111  1  0.96806659  0.57487668  0.20895032  1  -0.027794  0.000661  -0.081215  -0.1069  0.000449  3.943354  0.0
C  C112  1  0.82267604  0.94457503  0.66863335  1  -0.035939  -0.000207  -0.082388  -0.074257  -0.000216  3.961104  0.0
C  C113  1  0.17031223  0.44458262  0.82954273  1  -0.025155  -0.000198  -0.083762  -0.077257  -0.000211  3.969234  0.0
C  C114  1  0.16595692  0.05602213  0.33201086  1  -0.007374  -3.8e-05  -0.085584  -0.080226  -5e-05  3.968013  0.0
C  C115  1  0.82336072  0.55710280  0.16581182  1  0.03005  0.000257  -0.081974  -0.076674  8.2e-05  3.963494  0.0
C  C116  1  0.84034186  0.96001923  0.60703447  1  -0.013281  0.000283  -0.031127  -0.080233  0.000131  4.039512  0.0
C  C117  1  0.15241687  0.45920814  0.89143165  1  -0.031288  0.00034  -0.031531  -0.079752  0.000151  4.047773  0.0
C  C118  1  0.14909710  0.03851958  0.39339009  1  -0.067359  0.000221  -0.033228  -0.085365  0.000117  4.049024  0.0
C  C119  1  0.84003293  0.54112966  0.10392629  1  -0.082127  0.000631  -0.030081  -0.077735  0.00032  4.043327  0.0
C  C120  1  0.68952737  0.97790074  0.55989861  1  1.484347  4.1e-05  0.228845  0.574153  2.2e-05  4.132752  0.0
C  C121  1  0.30299021  0.47779887  0.93852177  1  1.466536  4.7e-05  0.233023  0.578249  2.4e-05  4.131742  0.0
C  C122  1  0.30012902  0.01823885  0.43978247  1  1.467038  0.0001  0.23137  0.576703  6.1e-05  4.130509  0.0
C  C123  1  0.68894531  0.52136195  0.05734426  1  1.486885  0.000291  0.23055  0.576199  0.000163  4.136628  0.0
C  C124  1  0.00422303  0.95681294  0.58963923  1  -0.084062  2.6e-05  -0.089054  -0.090974  -1.8e-05  3.993532  0.0
C  C125  1  0.98923516  0.45497142  0.90907860  1  -0.124689  -1.5e-05  -0.086424  -0.086448  -5.4e-05  3.997195  0.0
C  C126  1  0.98635885  0.04315249  0.41158352  1  -0.02877  0.000278  -0.085172  -0.084377  0.000148  3.991139  0.0
C  C127  1  0.00232326  0.54496497  0.08553482  1  -0.020243  -2.8e-05  -0.086347  -0.087787  -4.2e-05  3.990123  0.0
C  C128  1  0.14669460  0.93711586  0.63306257  1  -0.068091  0.000182  -0.089309  -0.129607  4.8e-05  3.958629  0.0
C  C129  1  0.84695432  0.43520338  0.86539302  1  0.041401  0.000238  -0.090702  -0.13209  9.1e-05  3.959883  0.0
C  C130  1  0.84385756  0.06619123  0.36916379  1  -0.032586  9.8e-05  -0.090803  -0.132728  5e-05  3.96179  0.0
C  C131  1  0.14590583  0.56488403  0.12860142  1  0.002187  0.000484  -0.089536  -0.127716  0.000205  3.952684  0.0
C  C132  1  0.20491130  0.00169736  0.82187076  1  1.603139  0.000991  0.194955  0.568023  0.002011  4.262577  0.001
C  C133  1  0.78740007  0.49784587  0.67671394  1  1.599846  0.001233  0.196815  0.571157  0.002144  4.256636  0.001
C  C134  1  0.78753706  0.00051035  0.18285085  1  1.596175  0.001175  0.199677  0.569864  0.002061  4.255732  0.001
C  C135  1  0.22088129  0.48233120  0.30854189  1  1.53944  0.002528  0.193027  0.539391  0.00094  4.213625  0.003
C  C136  1  0.76673185  0.18083512  0.70812878  1  0.953627  0.002029  0.147148  0.100767  0.001757  3.888824  0.002
C  C137  1  0.22980414  0.67696665  0.79060849  1  0.949045  0.000568  0.147246  0.098302  0.000959  3.896201  0.001
C  C138  1  0.22796255  0.82447224  0.29227432  1  0.99962  0.000905  0.144215  0.094465  0.0012  3.905276  0.002
C  C139  1  0.79812913  0.32540054  0.21868900  1  0.964934  0.008909  0.144441  0.090269  0.004972  3.838146  0.006
C  C140  1  0.57660197  0.09042144  0.73704349  1  0.276249  0.005557  0.012306  -0.071977  0.002818  3.867534  0.004
C  C141  1  0.41944251  0.58574328  0.76036090  1  0.328976  0.005998  0.014134  -0.070177  0.003061  3.864723  0.004
C  C142  1  0.41697259  0.91436770  0.26210545  1  0.296097  0.006121  0.014993  -0.068952  0.003115  3.859026  0.004
C  C143  1  0.60322446  0.41639464  0.24534925  1  0.300896  -0.001175  0.009494  -0.079055  -0.000558  3.897267  -0.001
C  C144  1  0.72082643  0.09351394  0.78106096  1  0.387766  0.000603  0.010051  -0.0156  0.000604  3.96786  0.0
C  C145  1  0.27312630  0.58700881  0.71727452  1  0.419135  0.000479  0.008901  -0.017287  0.000663  3.964166  0.0
C  C146  1  0.26946092  0.91310894  0.21954546  1  0.366724  0.000392  0.009734  -0.01469  0.000573  3.957064  0.0
C  C147  1  0.74593145  0.41694076  0.29021077  1  0.413615  0.002926  0.003586  -0.038918  0.001467  3.968227  0.002
C  C148  1  0.49106180  0.16452044  0.63560813  1  0.344657  0.002087  0.097415  0.161904  0.001147  4.01149  0.002
C  C149  1  0.50618198  0.66300286  0.86172920  1  0.246401  0.001411  0.100327  0.16299  0.000751  4.016627  0.001
C  C150  1  0.50602179  0.83784915  0.36250196  1  0.229644  0.00138  0.099383  0.164687  0.00073  4.014875  0.001
C  C151  1  0.52227348  0.33717421  0.14487627  1  0.313645  0.001009  0.101548  0.16786  0.000605  3.996266  0.001
C  C152  1  0.31514636  0.14765029  0.63178779  1  -0.043381  0.000278  -0.078187  -0.133711  0.000116  3.945526  0.0
C  C153  1  0.68201326  0.64595697  0.86560135  1  0.065448  -6.2e-05  -0.075322  -0.124934  -6.3e-05  3.938104  0.0
C  C154  1  0.68157526  0.85509556  0.36637584  1  0.081841  -6.6e-05  -0.076855  -0.12852  -6.8e-05  3.936489  0.0
C  C155  1  0.34680963  0.35631612  0.14034866  1  -0.024934  0.000254  -0.079644  -0.13461  0.000155  3.928399  0.0
C  C156  1  0.20130297  0.16987002  0.57902342  1  -0.002953  0.000935  -0.08275  -0.140444  0.000469  3.964221  0.001
C  C157  1  0.79499120  0.67048698  0.91837154  1  0.031429  0.001228  -0.080272  -0.138883  0.000648  3.965026  0.001
C  C158  1  0.79556297  0.83040488  0.41846317  1  0.026582  0.001206  -0.080264  -0.136871  0.000635  3.964291  0.001
C  C159  1  0.23307566  0.33247267  0.08760630  1  0.011184  0.001115  -0.080843  -0.134716  0.000595  3.959179  0.001
C  C160  1  0.26099134  0.21098332  0.53014537  1  0.298367  0.00028  0.095856  0.159529  0.000218  4.017418  0.0
C  C161  1  0.73359856  0.71397916  0.96663775  1  0.245713  -0.000388  0.095309  0.158924  -0.000137  4.022943  0.0
C  C162  1  0.73564531  0.78669920  0.46613041  1  0.246614  -0.000418  0.094945  0.157274  -0.000149  4.023793  0.0
C  C163  1  0.29190171  0.28772704  0.03926721  1  0.28357  0.000955  0.095003  0.157763  0.000603  4.014072  0.001
C  C164  1  0.43746171  0.22713609  0.53379540  1  -0.008406  0.001619  -0.085318  -0.149845  0.000834  3.986043  0.001
C  C165  1  0.55711196  0.72975344  0.96308574  1  -0.003808  0.001163  -0.08517  -0.149169  0.000583  3.991533  0.001
C  C166  1  0.55933172  0.77081848  0.46263768  1  0.022418  0.00111  -0.085099  -0.147638  0.000552  3.990868  0.001
C  C167  1  0.46781232  0.26969019  0.04340411  1  0.018254  0.000691  -0.086211  -0.15158  0.000354  3.988612  0.0
C  C168  1  0.55172445  0.20274115  0.58573810  1  0.056686  -0.000636  -0.087577  -0.151473  -0.000345  4.008797  -0.001
C  C169  1  0.44381361  0.70295035  0.91133681  1  0.03888  -0.000672  -0.086096  -0.150932  -0.000364  4.010507  0.0
C  C170  1  0.44512737  0.79766730  0.41157819  1  0.041095  -0.000708  -0.089258  -0.154172  -0.000384  4.014943  0.0
C  C171  1  0.58242760  0.29523530  0.09552164  1  0.008299  0.000781  -0.08774  -0.152757  0.000407  3.998239  0.0
C  C172  1  0.18784241  0.24326138  0.41912149  1  0.961932  0.010762  0.141701  0.096518  0.006159  3.866408  0.007
C  C173  1  0.80382678  0.75336413  0.07693729  1  0.971352  0.006798  0.151365  0.111304  0.003688  3.881677  0.005
C  C174  1  0.80702529  0.74622814  0.57547253  1  0.948314  0.006942  0.15234  0.112055  0.003754  3.878451  0.005
C  C175  1  0.21157552  0.24801289  0.92833714  1  0.958904  0.005913  0.150897  0.112348  0.003182  3.868608  0.004
C  C176  1  0.97483024  0.26175909  0.47309418  1  0.312564  -0.000844  0.00285  -0.101552  -0.000417  3.916815  -0.001
C  C177  1  0.01861167  0.76708543  0.02350716  1  0.355315  0.001809  0.004285  -0.099771  0.000975  3.908094  0.001
C  C178  1  0.02249049  0.73484847  0.52191871  1  0.237954  0.001848  0.002188  -0.103311  0.00093  3.917522  0.001
C  C179  1  0.00240408  0.23780792  0.98465499  1  0.282299  0.001936  0.003403  -0.100881  0.000981  3.911635  0.001
C  C180  1  0.92018136  0.28395183  0.41279890  1  0.397121  0.001714  0.004671  -0.026546  0.000813  3.979112  0.001
C  C181  1  0.07169850  0.79268578  0.08356129  1  0.380988  0.004815  0.008345  -0.014873  0.002843  3.989837  0.004
C  C182  1  0.07611644  0.70862036  0.58136766  1  0.490664  0.0046  0.010105  -0.015294  0.002782  3.988903  0.004
C  C183  1  0.94238500  0.21286546  0.92492228  1  0.424266  0.004218  0.007295  -0.019548  0.002568  3.999697  0.004
N  N184  1  0.83804844  0.15035947  0.76272442  1  -1.21374  0.058243  -0.358668  -0.303408  0.031381  3.655363  0.038
N  N185  1  0.15641269  0.64434568  0.73656287  1  -1.210717  0.061058  -0.361329  -0.301307  0.032904  3.672033  0.04
N  N186  1  0.15317919  0.85652477  0.23879703  1  -1.231063  0.060741  -0.361216  -0.300128  0.032763  3.673532  0.04
N  N187  1  0.86633664  0.35973782  0.27323907  1  -1.165805  0.008193  -0.357828  -0.23399  0.003799  3.696456  0.005
N  N188  1  0.60686157  0.14553479  0.69039590  1  -1.261145  0.003153  -0.220236  0.007348  0.001228  3.781653  0.002
N  N189  1  0.39052353  0.64244526  0.80718558  1  -1.250715  0.002921  -0.222081  0.008332  0.001154  3.791801  0.002
N  N190  1  0.38917274  0.85847849  0.30858586  1  -1.269714  0.003011  -0.220585  0.007102  0.001179  3.791878  0.002
N  N191  1  0.63711302  0.35869116  0.19988328  1  -1.279994  0.001914  -0.22135  0.006175  0.000808  3.782419  0.001
N  N192  1  0.14557554  0.23630392  0.47682161  1  -1.272795  0.001949  -0.225033  0.007965  0.000775  3.806374  0.001
N  N193  1  0.84760782  0.74247339  0.01977404  1  -1.277466  0.006568  -0.219509  0.013907  0.003114  3.801471  0.005
N  N194  1  0.85068228  0.75830297  0.51860477  1  -1.265125  0.006461  -0.221894  0.012632  0.003066  3.802682  0.005
N  N195  1  0.17428898  0.25990453  0.98646716  1  -1.25441  0.006197  -0.219306  0.014934  0.002917  3.785462  0.005
N  N196  1  0.05468630  0.27295450  0.37947496  1  -1.178782  0.003836  -0.359062  -0.250614  0.000939  3.679433  0.004
N  N197  1  0.93627662  0.78409225  0.11635174  1  -1.213936  0.061209  -0.355211  -0.3  0.032922  3.648747  0.037
N  N198  1  0.94018173  0.71577663  0.61421491  1  -1.21038  0.060625  -0.355333  -0.297663  0.032532  3.644626  0.036
N  N199  1  0.07398402  0.21929105  0.89020184  1  -1.202594  0.058784  -0.351885  -0.298408  0.031599  3.635501  0.035
O  O200  1  0.13120347  0.99112107  0.86725518  1  -1.169171  0.007493  -0.351582  -0.564891  0.003414  2.023788  0.005
O  O201  1  0.86114625  0.48612062  0.63125852  1  -1.166759  0.00762  -0.35167  -0.565176  0.003474  2.019632  0.005
O  O202  1  0.86404656  0.00864910  0.13793643  1  -1.164174  0.009707  -0.347352  -0.559625  0.004551  2.026569  0.007
O  O203  1  0.18293654  0.47025788  0.36114761  1  -1.148839  -0.045137  -0.326787  -0.53481  -0.024469  2.066378  -0.037
O  O204  1  0.20065665  0.07034987  0.78813506  1  -1.137679  0.097408  -0.327841  -0.555585  0.050532  2.403186  0.077
O  O205  1  0.79132562  0.56737525  0.71082847  1  -1.135476  0.098262  -0.328573  -0.558479  0.051104  2.4131  0.077
O  O206  1  0.78712300  0.93228402  0.21694781  1  -1.140378  0.098812  -0.32882  -0.558181  0.051463  2.407283  0.078
O  O207  1  0.18406376  0.42654983  0.26341672  1  -1.082131  0.003313  -0.303888  -0.490019  0.001286  2.361081  0.003
O  O208  1  0.83615339  0.75220519  0.76095014  1  -1.135389  0.103105  -0.326306  -0.548073  0.053678  2.248486  0.083
O  O209  1  0.15701540  0.25327463  0.73892214  1  -1.135464  0.102567  -0.326409  -0.547749  0.053273  2.251445  0.082
O  O210  1  0.14532735  0.24111582  0.23235932  1  -1.148655  -0.068288  -0.302037  -0.519692  -0.037217  2.212354  -0.059
O  O211  1  0.83533218  0.74680779  0.26362650  1  -1.152079  0.098139  -0.32744  -0.553021  0.051198  2.244601  0.079
O  O212  1  0.63762466  0.73167150  0.67801054  1  -1.159276  0.056437  -0.31232  -0.541571  0.029006  2.203534  0.049
O  O213  1  0.35863839  0.23382056  0.82073999  1  -1.154974  0.057693  -0.310267  -0.540219  0.029563  2.212669  0.05
O  O214  1  0.33019779  0.27979150  0.31516190  1  -1.100585  0.012285  -0.307482  -0.493264  0.00608  2.275609  0.01
O  O215  1  0.63690211  0.76863590  0.18121982  1  -1.158223  0.056153  -0.309364  -0.537741  0.028946  2.207071  0.049
O  O216  1  0.70520112  0.00749579  0.50810119  1  -1.173478  3.4e-05  -0.289928  -0.507436  1.1e-05  2.232873  0.0
O  O217  1  0.28612234  0.50709968  0.99089832  1  -1.171605  3.8e-05  -0.29329  -0.509223  1.7e-05  2.238922  0.0
O  O218  1  0.28487247  0.98590329  0.49077566  1  -1.16988  3.8e-05  -0.292237  -0.508527  1.1e-05  2.227842  0.0
O  O219  1  0.70548384  0.49144202  0.00515010  1  -1.170795  0.000267  -0.289587  -0.504705  0.000128  2.24247  0.0
O  O220  1  0.53876720  0.95968077  0.57588197  1  -1.182219  3.2e-05  -0.325048  -0.476804  9e-06  2.340293  0.0
O  O221  1  0.45356907  0.46098218  0.92192577  1  -1.1761  2.5e-05  -0.325832  -0.479619  2e-06  2.340318  0.0
O  O222  1  0.45076968  0.03766153  0.42408269  1  -1.168233  6.7e-05  -0.327101  -0.482208  2.5e-05  2.342925  0.0
O  O223  1  0.53852395  0.53794341  0.07417106  1  -1.170173  8.2e-05  -0.32523  -0.480064  2.4e-05  2.343114  0.0
