# generated using pymatgen
data_NiH14C10N2O5
_symmetry_space_group_name_H-M   'P 1'
_cell_length_a   5.90043584
_cell_length_b   9.26183355
_cell_length_c   11.83094955
_cell_angle_alpha   89.99953573
_cell_angle_beta   89.99971034
_cell_angle_gamma   100.56425958
_symmetry_Int_Tables_number   1
_chemical_formula_structural   NiH14C10N2O5
_chemical_formula_sum   'Ni2 H28 C20 N4 O10'
_cell_volume   635.58879409
_cell_formula_units_Z   2
loop_
 _symmetry_equiv_pos_site_id
 _symmetry_equiv_pos_as_xyz
  1  'x, y, z'
loop_
 _atom_site_type_symbol
 _atom_site_label
 _atom_site_symmetry_multiplicity
 _atom_site_fract_x
 _atom_site_fract_y
 _atom_site_fract_z
 _atom_site_occupancy
 _atom_site_pbe_cm5_charge
 _atom_site_pbe_ddec_charge
 _atom_site_pbe_ddec_spin_density
 _atom_site_pbe_ddec_sum_bond_order
 _atom_site_pbe_magmom
Ni  Ni0  1  0.02808678  0.02594840  0.50994627  1  0.613956  0.756067  1.772134  2.344823  1.559
Ni  Ni1  1  0.97190670  0.97405512  0.00993822  1  0.613936  0.756216  1.772145  2.344753  1.558
H  H2  1  0.89201890  0.24925983  0.59107903  1  0.290544  0.258822  -0.000605  1.004655  -0.001
H  H3  1  0.10797810  0.75075809  0.09108491  1  0.290539  0.258745  -0.000604  1.00473  -0.001
H  H4  1  0.34023485  0.83678908  0.40270005  1  0.118557  0.094315  0.000707  1.034936  0.001
H  H5  1  0.65975768  0.16321735  0.90271056  1  0.118563  0.094294  0.000707  1.034993  0.001
H  H6  1  0.33880474  0.57361131  0.36862245  1  0.10623  0.110516  0.000485  1.024088  0.0
H  H7  1  0.66118984  0.42640103  0.86863218  1  0.106274  0.110531  0.000485  1.024166  0.0
H  H8  1  0.70265392  0.47557182  0.55669590  1  0.103402  0.111903  0.000551  1.061348  0.0
H  H9  1  0.29732381  0.52442568  0.05669757  1  0.103379  0.111882  0.000551  1.061404  0.0
H  H10  1  0.72132972  0.74709806  0.57655989  1  0.12014  0.100746  0.000465  1.001125  0.001
H  H11  1  0.27865115  0.25289919  0.07657003  1  0.120085  0.100693  0.000465  1.00094  0.001
H  H12  1  0.83906295  0.29041294  0.40047889  1  0.112169  0.097412  -9.9e-05  0.970226  0.0
H  H13  1  0.16094720  0.70959566  0.90048407  1  0.112153  0.097351  -9.9e-05  0.970239  0.0
H  H14  1  0.14007037  0.32269288  0.37635153  1  0.107605  0.097694  0.000409  0.98585  0.001
H  H15  1  0.85993661  0.67732153  0.87635917  1  0.107594  0.097671  0.000409  0.985861  0.001
H  H16  1  0.34189774  0.40950171  0.55436205  1  0.109552  0.066929  0.000418  1.00109  0.0
H  H17  1  0.65810390  0.59050784  0.05436230  1  0.109563  0.066925  0.000418  1.001098  0.0
H  H18  1  0.08564715  0.45931275  0.70950872  1  0.090204  0.129774  9.1e-05  1.009792  0.0
H  H19  1  0.91435537  0.54068722  0.20950518  1  0.090166  0.129726  9.1e-05  1.00989  0.0
H  H20  1  0.35415826  0.42423941  0.76208327  1  0.088451  0.122301  0.000382  1.026128  0.001
H  H21  1  0.64583980  0.57574124  0.26208365  1  0.088447  0.122287  0.000382  1.026043  0.001
H  H22  1  0.10070727  0.28730533  0.77201731  1  0.090045  0.125796  -9.5e-05  1.034718  0.0
H  H23  1  0.89928825  0.71267850  0.27201783  1  0.09001  0.125765  -9.4e-05  1.034714  0.0
H  H24  1  0.89253507  0.97219274  0.27045757  1  0.105111  0.010545  0.000658  1.018528  0.002
H  H25  1  0.10748385  0.02778995  0.77046032  1  0.105283  0.010729  0.000657  1.018472  0.002
H  H26  1  0.56627478  0.01949317  0.50951531  1  0.296448  0.394284  0.000148  0.943732  0.0
H  H27  1  0.43371789  0.98049607  0.00951633  1  0.296479  0.394349  0.000147  0.943643  0.0
H  H28  1  0.61628877  0.04449890  0.38064723  1  0.316878  0.395184  0.001116  0.889949  0.002
H  H29  1  0.38375153  0.95550217  0.88065027  1  0.316826  0.395053  0.001117  0.890137  0.002
C  C30  1  0.20062310  0.75417659  0.43525917  1  0.048137  0.102533  -0.005333  3.924066  -0.003
C  C31  1  0.79937177  0.24582724  0.93526540  1  0.048151  0.102544  -0.005341  3.923813  -0.003
C  C32  1  0.19960211  0.60545125  0.41778259  1  -0.083653  -0.182095  0.003814  3.956403  0.005
C  C33  1  0.80039121  0.39455830  0.91778199  1  -0.083678  -0.182014  0.003814  3.956259  0.005
C  C34  1  0.01709558  0.50071237  0.45843502  1  0.007567  0.133164  -0.003409  3.94405  -0.001
C  C35  1  0.98289788  0.49929888  0.95843157  1  0.007488  0.132963  -0.003414  3.943859  -0.001
C  C36  1  0.84369148  0.55269523  0.51856750  1  -0.089561  -0.183638  0.003642  3.942451  0.005
C  C37  1  0.15630979  0.44730047  0.01857004  1  -0.08951  -0.183438  0.003642  3.942289  0.005
C  C38  1  0.85460807  0.70278328  0.53176715  1  0.043322  0.093671  -0.003912  3.93775  -0.002
C  C39  1  0.14537466  0.29721891  0.03176049  1  0.043365  0.093609  -0.00391  3.938  -0.002
C  C40  1  0.00677037  0.33856651  0.43748962  1  -0.066988  -0.088731  -0.000345  3.921184  -0.001
C  C41  1  0.99323084  0.66144167  0.93749529  1  -0.066931  -0.088676  -0.000345  3.92106  -0.001
C  C42  1  0.24788213  0.31663046  0.60372875  1  -0.002829  0.045363  0.000119  3.860763  -0.001
C  C43  1  0.75211461  0.68336972  0.10372986  1  -0.002844  0.045334  0.000119  3.860473  -0.001
C  C44  1  0.41840141  0.21066324  0.61491982  1  0.209441  0.560597  -0.000104  4.14304  0.0
C  C45  1  0.58159044  0.78933791  0.11492837  1  0.209413  0.560746  -0.000102  4.143037  0.0
C  C46  1  0.19395413  0.37566099  0.71900088  1  -0.244882  -0.400108  0.001052  3.922356  0.001
C  C47  1  0.80604270  0.62432568  0.21899882  1  -0.244848  -0.400078  0.001053  3.922309  0.001
C  C48  1  0.07725753  0.02259857  0.26043285  1  0.137597  0.472071  -0.00421  4.227353  -0.004
C  C49  1  0.92277476  0.97740619  0.76040974  1  0.137511  0.471979  -0.004216  4.227085  -0.004
N  N50  1  0.03009367  0.80334584  0.49036811  1  -0.326269  -0.234992  0.035797  3.56605  0.056
N  N51  1  0.96990389  0.19665731  0.99036740  1  -0.326372  -0.235096  0.035793  3.566351  0.056
N  N52  1  0.03652809  0.25307417  0.54042156  1  -0.476841  -0.353813  0.04149  3.470333  0.064
N  N53  1  0.96347672  0.74693995  0.04042507  1  -0.476917  -0.353716  0.041489  3.470115  0.064
O  O54  1  0.35369787  0.07645754  0.58170406  1  -0.310669  -0.544491  0.042386  2.363884  0.071
O  O55  1  0.64628947  0.92353303  0.08170737  1  -0.310656  -0.544592  0.042374  2.364063  0.071
O  O56  1  0.61337806  0.26259758  0.65418167  1  -0.316691  -0.529627  0.006666  2.177649  0.01
O  O57  1  0.38662361  0.73739207  0.15419784  1  -0.316694  -0.529699  0.006664  2.177568  0.01
O  O58  1  0.19007539  0.06890604  0.34916930  1  -0.324554  -0.525038  0.040759  2.354048  0.066
O  O59  1  0.80990660  0.93110327  0.84919581  1  -0.324791  -0.525458  0.040796  2.352465  0.066
O  O60  1  0.16086390  0.03031456  0.16197823  1  -0.308372  -0.487042  0.041434  2.397746  0.068
O  O61  1  0.83916355  0.96966503  0.66199428  1  -0.308142  -0.4866  0.041412  2.399101  0.068
O  O62  1  0.67092090  0.99827965  0.44687813  1  -0.563923  -0.750111  0.023392  2.148041  0.036
O  O63  1  0.32908792  0.00170862  0.94686690  1  -0.563966  -0.750028  0.023389  2.14795  0.036
