# generated using pymatgen
data_AgH30PtC16N5O4
_symmetry_space_group_name_H-M   'P 1'
_cell_length_a   11.11034748
_cell_length_b   11.47920455
_cell_length_c   17.86282499
_cell_angle_alpha   90.00007150
_cell_angle_beta   90.00286305
_cell_angle_gamma   89.99990831
_symmetry_Int_Tables_number   1
_chemical_formula_structural   AgH30PtC16N5O4
_chemical_formula_sum   'Ag4 H120 Pt4 C64 N20 O16'
_cell_volume   2278.18810049
_cell_formula_units_Z   4
loop_
 _symmetry_equiv_pos_site_id
 _symmetry_equiv_pos_as_xyz
  1  'x, y, z'
loop_
 _atom_site_type_symbol
 _atom_site_label
 _atom_site_symmetry_multiplicity
 _atom_site_fract_x
 _atom_site_fract_y
 _atom_site_fract_z
 _atom_site_occupancy
 _atom_site_pbe_bader_charge
 _atom_site_pbe_bader_spin_density
 _atom_site_pbe_cm5_charge
 _atom_site_pbe_ddec_charge
 _atom_site_pbe_ddec_spin_density
 _atom_site_pbe_ddec_sum_bond_order
 _atom_site_pbe_magmom
Ag  Ag0  1  0.69772654  0.34620311  0.25000335  1  0.538585  0  0.354606  0.232276  0  2.039177  0
Ag  Ag1  1  0.19768905  0.15383131  0.74999669  1  0.538545  0  0.354664  0.232312  0  2.039162  0
Ag  Ag2  1  0.30229738  0.65380211  0.74999085  1  0.538707  0  0.354646  0.232205  0  2.039294  0
Ag  Ag3  1  0.80232948  0.84619483  0.24999359  1  0.538589  0  0.354691  0.232313  0  2.039234  0
H  H4  1  0.92818721  0.11544232  0.49869203  1  0.023075  0  0.086265  0.118818  0  1.007137  0
H  H5  1  0.42819056  0.38453960  0.50131603  1  0.02335  0  0.086252  0.118758  0  1.007132  0
H  H6  1  0.07184039  0.88451952  0.99867647  1  0.023579  0  0.086342  0.118908  0  1.007138  0
H  H7  1  0.57182249  0.61547068  0.00130723  1  0.023088  0  0.086294  0.118877  0  1.007102  0
H  H8  1  0.07176651  0.88451848  0.50129321  1  0.012535  0  0.086217  0.118778  0  1.007289  0
H  H9  1  0.57184236  0.61550483  0.49868433  1  0.0233  0  0.086339  0.118936  0  1.007149  0
H  H10  1  0.92816823  0.11549877  0.00131941  1  0.023405  0  0.086301  0.118839  0  1.007056  0
H  H11  1  0.42818613  0.38455720  0.99868361  1  0.023337  0  0.086262  0.118823  0  1.007164  0
H  H12  1  0.03345534  0.06104217  0.43261173  1  0.020818  0  0.083942  0.103797  0  1.062983  0
H  H13  1  0.53346287  0.43895994  0.56740475  1  0.021703  0  0.083923  0.103784  0  1.063032  0
H  H14  1  0.96655131  0.93897804  0.93260466  1  0.020812  0  0.083933  0.103761  0  1.062996  0
H  H15  1  0.46654413  0.56104164  0.06739077  1  0.0208  0  0.08396  0.103841  0  1.062905  0
H  H16  1  0.96650108  0.93892996  0.56738359  1  0.021218  0  0.083819  0.103786  0  1.062958  0
H  H17  1  0.46655656  0.56103397  0.43261688  1  0.020888  0  0.083989  0.103861  0  1.062876  0
H  H18  1  0.03345912  0.06104636  0.06738842  1  0.020806  0  0.083898  0.103737  0  1.062997  0
H  H19  1  0.53347709  0.43896272  0.93261183  1  0.021164  0  0.083876  0.103756  0  1.063043  0
H  H20  1  0.08500055  0.14685301  0.50782493  1  0.01247  0  0.089122  0.124496  0  0.999237  0
H  H21  1  0.58501074  0.35314972  0.49220367  1  0.012246  0  0.089092  0.124415  0  0.999327  0
H  H22  1  0.91502368  0.85315598  0.00780523  1  0.012559  0  0.089078  0.124382  0  0.999294  0
H  H23  1  0.41501197  0.64685785  0.99218088  1  0.012571  0  0.089153  0.124461  0  0.99926  0
H  H24  1  0.91496037  0.85310866  0.49218214  1  0.012257  0  0.089233  0.124653  0  0.9993  0
H  H25  1  0.41500508  0.64685115  0.50781292  1  0.012409  0  0.089118  0.124459  0  0.999171  0
H  H26  1  0.08499394  0.14686406  0.99218561  1  0.012221  0  0.089176  0.124498  0  0.999225  0
H  H27  1  0.58499485  0.35314477  0.00782060  1  0.012556  0  0.089149  0.124474  0  0.999251  0
H  H28  1  0.18810445  0.27718029  0.41155797  1  0.026822  0  0.085594  0.118946  0  1.002058  0
H  H29  1  0.68808401  0.22283763  0.58847864  1  0.027387  0  0.085645  0.119031  0  1.002217  0
H  H30  1  0.81189737  0.72283782  0.91154638  1  0.026832  0  0.085624  0.119012  0  1.001923  0
H  H31  1  0.31192241  0.77715646  0.08845803  1  0.026908  0  0.085653  0.119031  0  1.002081  0
H  H32  1  0.81190777  0.72279706  0.58844071  1  0.023113  0  0.085622  0.119004  0  1.00198  0
H  H33  1  0.31189761  0.77714321  0.41153067  1  0.028046  0  0.085615  0.118988  0  1.001966  0
H  H34  1  0.18808515  0.27717612  0.08844502  1  0.027237  0  0.085677  0.119118  0  1.001912  0
H  H35  1  0.68809611  0.22279737  0.91156807  1  0.023277  0  0.085626  0.118967  0  1.001924  0
H  H36  1  0.12572155  0.20097561  0.33452526  1  0.040333  0  0.083742  0.118541  0  1.027179  0
H  H37  1  0.62568683  0.29904348  0.66549488  1  0.039494  0  0.08373  0.118496  0  1.027298  0
H  H38  1  0.87431179  0.79906500  0.83453178  1  0.039876  0  0.083721  0.118519  0  1.027131  0
H  H39  1  0.37431507  0.70094989  0.16548686  1  0.040561  0  0.083672  0.118443  0  1.026996  0
H  H40  1  0.87427087  0.79899391  0.66547565  1  0.039068  0  0.083767  0.118559  0  1.027204  0
H  H41  1  0.37430649  0.70092690  0.33451556  1  0.037783  0  0.083785  0.118667  0  1.02716  0
H  H42  1  0.12569593  0.20096724  0.16547529  1  0.038341  0  0.083739  0.118565  0  1.027064  0
H  H43  1  0.62571605  0.29900655  0.83454148  1  0.040513  0  0.083706  0.118607  0  1.027198  0
H  H44  1  0.10087216  0.35389971  0.34416878  1  0.05581  0  0.087869  0.128039  0  1.02254  0
H  H45  1  0.60085821  0.14610207  0.65586716  1  0.056428  0  0.087847  0.127974  0  1.022529  0
H  H46  1  0.89910503  0.64610977  0.84414445  1  0.055927  0  0.087918  0.127999  0  1.022377  0
H  H47  1  0.39914763  0.85389106  0.15585278  1  0.056059  0  0.087837  0.12803  0  1.022652  0
H  H48  1  0.89911126  0.64605761  0.65584949  1  0.055891  0  0.087849  0.127988  0  1.022555  0
H  H49  1  0.39910991  0.85387876  0.34412703  1  0.055823  0  0.087897  0.128039  0  1.022424  0
H  H50  1  0.10088649  0.35391026  0.15585647  1  0.055992  0  0.087859  0.127997  0  1.022396  0
H  H51  1  0.60086369  0.14607148  0.84417612  1  0.05545  0  0.087818  0.127951  0  1.022317  0
H  H52  1  0.05233230  0.35426356  0.51518557  1  0.009296  0  0.082873  0.107527  0  1.023632  0
H  H53  1  0.55232370  0.14574281  0.48482998  1  0.009751  0  0.082894  0.107432  0  1.023612  0
H  H54  1  0.94769055  0.64574756  0.01517071  1  0.009975  0  0.082841  0.107446  0  1.023469  0
H  H55  1  0.44766529  0.85425827  0.98482005  1  0.009478  0  0.082925  0.107492  0  1.023526  0
H  H56  1  0.94764391  0.64571118  0.48481535  1  0.009668  0  0.082934  0.107537  0  1.023633  0
H  H57  1  0.44765792  0.85427548  0.51516646  1  0.00923  0  0.082897  0.107369  0  1.023445  0
H  H58  1  0.05231717  0.35426900  0.98481621  1  0.009568  0  0.082837  0.107433  0  1.023421  0
H  H59  1  0.55231183  0.14574608  0.01519710  1  0.009432  0  0.082812  0.10746  0  1.023607  0
H  H60  1  0.97214410  0.43359490  0.44656687  1  0.035695  0  0.09042  0.124796  0  1.030497  0
H  H61  1  0.47215081  0.06640424  0.55346533  1  0.034859  0  0.090387  0.124836  0  1.030121  0
H  H62  1  0.02785526  0.56641916  0.94652697  1  0.03451  0  0.090347  0.124765  0  1.030395  0
H  H63  1  0.52783917  0.93360435  0.05344883  1  0.035452  0  0.090418  0.124872  0  1.030182  0
H  H64  1  0.02787173  0.56638158  0.55344581  1  0.03519  0  0.090442  0.124831  0  1.030373  0
H  H65  1  0.52779750  0.93359751  0.44650928  1  0.034628  0  0.090425  0.124814  0  1.030264  0
H  H66  1  0.97213086  0.43359129  0.05345939  1  0.035298  0  0.090412  0.124854  0  1.030236  0
H  H67  1  0.47212805  0.06641569  0.94656608  1  0.035655  0  0.090337  0.124717  0  1.030612  0
H  H68  1  0.89329592  0.34041932  0.50932503  1  0.055981  0  0.08768  0.125164  0  0.999316  0
H  H69  1  0.39329645  0.15956452  0.49069508  1  0.055576  0  0.087685  0.125097  0  0.999227  0
H  H70  1  0.10672300  0.65956169  0.00930466  1  0.055325  0  0.087702  0.125134  0  0.999109  0
H  H71  1  0.60670368  0.84044315  0.99069946  1  0.055579  0  0.08771  0.125173  0  0.999214  0
H  H72  1  0.10668660  0.65956239  0.49069156  1  0.056101  0  0.087578  0.125001  0  0.999235  0
H  H73  1  0.60670137  0.84048950  0.50929184  1  0.055743  0  0.087672  0.125129  0  0.999063  0
H  H74  1  0.89328652  0.34044789  0.99069010  1  0.055379  0  0.087737  0.125163  0  0.999228  0
H  H75  1  0.39327884  0.15958734  0.00931993  1  0.055715  0  0.087705  0.125161  0  0.999353  0
H  H76  1  0.48849164  0.36567676  0.36574825  1  0.078907  0  0.11446  0.081694  0  1.005181  0
H  H77  1  0.98843051  0.13430662  0.63422580  1  0.078818  0  0.114449  0.081642  0  1.005154  0
H  H78  1  0.51157052  0.63431213  0.86577091  1  0.078832  0  0.114474  0.081684  0  1.005225  0
H  H79  1  0.01154798  0.86567662  0.13423839  1  0.078954  0  0.114433  0.081619  0  1.005157  0
H  H80  1  0.51155928  0.63432934  0.63426442  1  0.079109  0  0.114473  0.081637  0  1.005276  0
H  H81  1  0.01157361  0.86570209  0.36575496  1  0.079207  0  0.114464  0.081682  0  1.005192  0
H  H82  1  0.48842370  0.36572620  0.13423952  1  0.079165  0  0.114418  0.081568  0  1.005115  0
H  H83  1  0.98843184  0.13433820  0.86573622  1  0.079135  0  0.114415  0.081539  0  1.005368  0
H  H84  1  0.29141251  0.47665169  0.36977274  1  0.117668  0  0.112597  0.118723  0  1.009021  0
H  H85  1  0.79140945  0.02341975  0.63021086  1  0.117405  0  0.112619  0.118713  0  1.008929  0
H  H86  1  0.70860398  0.52338572  0.86978155  1  0.117325  0  0.112607  0.118681  0  1.008907  0
H  H87  1  0.20861560  0.97657246  0.13022325  1  0.117389  0  0.112661  0.1188  0  1.008996  0
H  H88  1  0.70859251  0.52337793  0.63024945  1  0.117989  0  0.112661  0.118764  0  1.008993  0
H  H89  1  0.20862617  0.97660116  0.36975143  1  0.117727  0  0.112616  0.118664  0  1.009214  0
H  H90  1  0.29141185  0.47664390  0.13025016  1  0.117937  0  0.112652  0.118782  0  1.00901  0
H  H91  1  0.79136782  0.02338311  0.86973512  1  0.118208  0  0.112565  0.1186  0  1.009062  0
H  H92  1  0.93545062  0.07738035  0.34240111  1  0.40263  0  0.276058  0.253955  0  1.036081  0
H  H93  1  0.43541814  0.42264161  0.65758988  1  0.40329  0  0.276035  0.253924  0  1.036422  0
H  H94  1  0.06457238  0.92263098  0.84240708  1  0.402899  0  0.27611  0.253989  0  1.036305  0
H  H95  1  0.56456260  0.57737929  0.15759425  1  0.402669  0  0.276017  0.253859  0  1.036138  0
H  H96  1  0.06455440  0.92260919  0.65758861  1  0.402607  0  0.276105  0.25402  0  1.036207  0
H  H97  1  0.56456708  0.57738191  0.34239480  1  0.402799  0  0.276054  0.25384  0  1.03648  0
H  H98  1  0.93542904  0.07739080  0.15757760  1  0.403003  0  0.275998  0.253806  0  1.036263  0
H  H99  1  0.43542802  0.42262071  0.84240555  1  0.402872  0  0.275974  0.253822  0  1.036222  0
H  H100  1  0.63971474  0.98111763  0.35038461  1  0.488799  0  0.277497  0.311643  0  0.998265  0
H  H101  1  0.13967207  0.51888095  0.64961970  1  0.488991  0  0.277506  0.311653  0  0.998217  0
H  H102  1  0.36030872  0.01887924  0.85037907  1  0.488895  0  0.277554  0.311736  0  0.998057  0
H  H103  1  0.86032441  0.48111085  0.14960951  1  0.488672  0  0.277453  0.311647  0  0.998189  0
H  H104  1  0.36031008  0.01888324  0.64961407  1  0.488725  0  0.27746  0.311605  0  0.998216  0
H  H105  1  0.86031675  0.48111208  0.35038794  1  0.488807  0  0.277416  0.311561  0  0.998219  0
H  H106  1  0.63969990  0.98112163  0.14961177  1  0.488906  0  0.277468  0.311664  0  0.998145  0
H  H107  1  0.13966981  0.51888480  0.85038413  1  0.488793  0  0.277473  0.311642  0  0.998247  0
H  H108  1  0.65014381  0.11864227  0.37893171  1  0.42916  0  0.291613  0.305082  0  0.938539  0
H  H109  1  0.15010463  0.38135579  0.62106533  1  0.429246  0  0.291615  0.305175  0  0.938396  0
H  H110  1  0.34988221  0.88136056  0.87892316  1  0.429141  0  0.291681  0.305208  0  0.938452  0
H  H111  1  0.84988029  0.61864748  0.12106820  1  0.429155  0  0.291625  0.305149  0  0.938498  0
H  H112  1  0.34985041  0.88136208  0.62106025  1  0.429041  0  0.291663  0.305132  0  0.938314  0
H  H113  1  0.84990219  0.61863986  0.37893559  1  0.429337  0  0.291612  0.305116  0  0.938533  0
H  H114  1  0.65012731  0.11864118  0.12106320  1  0.429114  0  0.291627  0.305133  0  0.938475  0
H  H115  1  0.15012023  0.38135775  0.87894055  1  0.429084  0  0.291625  0.305132  0  0.938431  0
H  H116  1  0.53832651  0.08124552  0.32081048  1  0.528893  0  0.277799  0.322447  0  0.990467  0
H  H117  1  0.03828987  0.41874001  0.67919611  1  0.528631  0  0.277656  0.322307  0  0.99048  0
H  H118  1  0.46168534  0.91875417  0.82079905  1  0.528871  0  0.277692  0.322371  0  0.990467  0
H  H119  1  0.96168943  0.58127337  0.17920458  1  0.528776  0  0.277715  0.322387  0  0.990445  0
H  H120  1  0.46168302  0.91873880  0.67918371  1  0.528814  0  0.277775  0.322446  0  0.990466  0
H  H121  1  0.96171515  0.58124693  0.32081824  1  0.528625  0  0.277619  0.32225  0  0.990526  0
H  H122  1  0.53832238  0.08125628  0.17918955  1  0.528889  0  0.277775  0.322472  0  0.990427  0
H  H123  1  0.03830299  0.41872228  0.82080753  1  0.528745  0  0.277749  0.322435  0  0.990369  0
Pt  Pt124  1  0.75143121  0.10353460  0.24999812  1  0.645739  0  0.708658  0.534498  0  3.921583  0
Pt  Pt125  1  0.25140856  0.39647517  0.75000181  1  0.645805  0  0.708546  0.534385  0  3.922083  0
Pt  Pt126  1  0.24856751  0.89646975  0.74998992  1  0.645762  0  0.708672  0.534545  0  3.921695  0
Pt  Pt127  1  0.74859106  0.60352309  0.24999743  1  0.645854  0  0.708586  0.534372  0  3.921825  0
C  C128  1  0.88803533  0.23880286  0.36718413  1  1.356538  0  0.215135  0.490435  0  4.055302  0
C  C129  1  0.38802722  0.26120801  0.63282289  1  1.356771  0  0.215123  0.490385  0  4.055258  0
C  C130  1  0.11196301  0.76119988  0.86717333  1  1.35664  0  0.215157  0.490362  0  4.055364  0
C  C131  1  0.61198719  0.73880320  0.13281140  1  1.356862  0  0.215197  0.490429  0  4.055589  0
C  C132  1  0.11195529  0.76118843  0.63281622  1  1.356303  0  0.21501  0.490032  0  4.055299  0
C  C133  1  0.61196521  0.73880071  0.36717690  1  1.356525  0  0.215015  0.490061  0  4.055308  0
C  C134  1  0.88803211  0.23881145  0.13282255  1  1.356617  0  0.215011  0.49008  0  4.055456  0
C  C135  1  0.38801873  0.26119506  0.86719064  1  1.356887  0  0.215093  0.490366  0  4.055536  0
C  C136  1  0.99526130  0.24852882  0.42197280  1  0.067057  0  -0.017811  0.166185  0  3.817421  0
C  C137  1  0.49525268  0.25147195  0.57804463  1  0.067741  0  -0.018018  0.165648  0  3.818063  0
C  C138  1  0.00474383  0.75147118  0.92195803  1  0.067485  0  -0.017975  0.165667  0  3.818104  0
C  C139  1  0.50474773  0.74853067  0.07803420  1  0.067504  0  -0.017916  0.165888  0  3.817754  0
C  C140  1  0.00472302  0.75144243  0.57803315  1  0.067743  0  -0.017712  0.166409  0  3.817231  0
C  C141  1  0.50473254  0.74853067  0.42195685  1  0.067331  0  -0.017862  0.165973  0  3.817823  0
C  C142  1  0.99526030  0.24854189  0.07803728  1  0.067774  0  -0.017791  0.16598  0  3.817386  0
C  C143  1  0.49525729  0.25146672  0.92197567  1  0.067307  0  -0.017819  0.166067  0  3.817807  0
C  C144  1  0.01074607  0.13641302  0.46761186  1  -0.067915  0  -0.24327  -0.41152  0  3.924328  0
C  C145  1  0.51075322  0.36358658  0.53240763  1  -0.06906  0  -0.243164  -0.411222  0  3.924222  0
C  C146  1  0.98926982  0.86358833  0.96759401  1  -0.068764  0  -0.243248  -0.411324  0  3.924422  0
C  C147  1  0.48926254  0.63641556  0.03239392  1  -0.068458  0  -0.243313  -0.411512  0  3.924286  0
C  C148  1  0.98921575  0.86355214  0.53239017  1  -0.057401  0  -0.243214  -0.411759  0  3.924534  0
C  C149  1  0.48926800  0.63642649  0.46760056  1  -0.068346  0  -0.243359  -0.411596  0  3.924347  0
C  C150  1  0.01074420  0.13642822  0.03239795  1  -0.068142  0  -0.243299  -0.411398  0  3.924159  0
C  C151  1  0.51074518  0.36359229  0.96760475  1  -0.06882  0  -0.243244  -0.411414  0  3.924424  0
C  C152  1  0.10888443  0.27134941  0.37478889  1  -0.095514  0  -0.243508  -0.400936  0  3.868387  0
C  C153  1  0.60886974  0.22865582  0.62524122  1  -0.097533  0  -0.243444  -0.400746  0  3.868687  0
C  C154  1  0.89111255  0.72865457  0.87477725  1  -0.095161  0  -0.243482  -0.400788  0  3.868165  0
C  C155  1  0.39113792  0.77134456  0.12523086  1  -0.095877  0  -0.243404  -0.40079  0  3.868321  0
C  C156  1  0.89111609  0.72861314  0.62521986  1  -0.092556  0  -0.243493  -0.400904  0  3.868336  0
C  C157  1  0.39112268  0.77133198  0.37476250  1  -0.095851  0  -0.243549  -0.40103  0  3.868299  0
C  C158  1  0.10887897  0.27136198  0.12522422  1  -0.09617  0  -0.243576  -0.401035  0  3.868116  0
C  C159  1  0.60887701  0.22863105  0.87479637  1  -0.091715  0  -0.243476  -0.400921  0  3.868055  0
C  C160  1  0.97592694  0.35019789  0.47614617  1  -0.085991  0  -0.244161  -0.399949  0  3.912709  0
C  C161  1  0.47592939  0.14979513  0.52387330  1  -0.085189  0  -0.244124  -0.399655  0  3.912127  0
C  C162  1  0.02409034  0.64979593  0.97612420  1  -0.08468  0  -0.244083  -0.399654  0  3.912116  0
C  C163  1  0.52407418  0.85020844  0.02386545  1  -0.085404  0  -0.244237  -0.399917  0  3.912184  0
C  C164  1  0.02405648  0.64977075  0.52386203  1  -0.086168  0  -0.244204  -0.399859  0  3.912325  0
C  C165  1  0.52405763  0.85022578  0.47611418  1  -0.084375  0  -0.244211  -0.399647  0  3.91207  0
C  C166  1  0.97592008  0.35021105  0.02386552  1  -0.085209  0  -0.244217  -0.399826  0  3.912048  0
C  C167  1  0.47591015  0.14981160  0.97615114  1  -0.08587  0  -0.244023  -0.399791  0  3.91301  0
C  C168  1  0.44302356  0.39372666  0.31468305  1  0.438773  0  0.039763  0.076422  0  3.956852  0
C  C169  1  0.94299775  0.10631182  0.68531664  1  0.439314  0  0.039649  0.076479  0  3.957169  0
C  C170  1  0.55700773  0.60630218  0.81468879  1  0.439195  0  0.039605  0.076286  0  3.956881  0
C  C171  1  0.05699001  0.89368983  0.18532176  1  0.438911  0  0.039709  0.076557  0  3.956652  0
C  C172  1  0.55699497  0.60628379  0.68533970  1  0.439086  0  0.039613  0.076339  0  3.956627  0
C  C173  1  0.05701808  0.89371519  0.31467812  1  0.438664  0  0.03967  0.07639  0  3.956624  0
C  C174  1  0.44300539  0.39371089  0.18533620  1  0.439045  0  0.039688  0.076526  0  3.956813  0
C  C175  1  0.94298351  0.10629449  0.81466293  1  0.436461  0  0.039764  0.076426  0  3.956412  0
C  C176  1  0.33460853  0.45413434  0.31700223  1  -0.016207  0  -0.075517  -0.142696  0  3.966413  0
C  C177  1  0.83460857  0.04585936  0.68299372  1  -0.016725  0  -0.075482  -0.142684  0  3.966926  0
C  C178  1  0.66539769  0.54584644  0.81699709  1  -0.016896  0  -0.075458  -0.142589  0  3.966349  0
C  C179  1  0.16538985  0.95412415  0.18299759  1  -0.015743  0  -0.075562  -0.142728  0  3.966891  0
C  C180  1  0.66540280  0.54586217  0.68303284  1  -0.016124  0  -0.075543  -0.142614  0  3.966136  0
C  C181  1  0.16542795  0.95413368  0.31697137  1  -0.016045  0  -0.075468  -0.142378  0  3.966553  0
C  C182  1  0.33460913  0.45415182  0.18302230  1  -0.016541  0  -0.075589  -0.142804  0  3.966148  0
C  C183  1  0.83457017  0.04588021  0.81696077  1  -0.013539  0  -0.075363  -0.142198  0  3.966028  0
C  C184  1  0.27939771  0.48731058  0.25000885  1  -0.032121  0  0.006626  0.01881  0  3.91913  0
C  C185  1  0.77937280  0.01269209  0.74997036  1  -0.032491  0  0.00644  0.018503  0  3.919486  0
C  C186  1  0.72061091  0.51266329  0.75002006  1  -0.032134  0  0.006559  0.018716  0  3.918881  0
C  C187  1  0.22061332  0.98731052  0.24998129  1  -0.03242  0  0.006575  0.01846  0  3.919536  0
C  C188  1  0.16092623  0.55430767  0.25000858  1  1.633483  0  0.193747  0.549971  0  4.280904  0
C  C189  1  0.66088139  0.94570563  0.74996801  1  1.634688  0  0.193741  0.549928  0  4.281133  0
C  C190  1  0.83911119  0.44567665  0.75002368  1  1.634727  0  0.19377  0.549918  0  4.28135  0
C  C191  1  0.33911193  0.05429350  0.24999148  1  1.634353  0  0.193807  0.550219  0  4.280921  0
N  N192  1  0.87284024  0.13950976  0.33071113  1  -1.182154  0  -0.569203  -0.600426  0  3.567332  0
N  N193  1  0.37282182  0.36051686  0.66928466  1  -1.183165  0  -0.569162  -0.600347  0  3.567186  0
N  N194  1  0.12715868  0.86049887  0.83070323  1  -1.182701  0  -0.569299  -0.600388  0  3.567376  0
N  N195  1  0.62719560  0.63949543  0.16926867  1  -1.182491  0  -0.56917  -0.600291  0  3.56708  0
N  N196  1  0.12715668  0.86049286  0.66928363  1  -1.182132  0  -0.569256  -0.600355  0  3.567618  0
N  N197  1  0.62716970  0.63949882  0.33070506  1  -1.182393  0  -0.569232  -0.6002  0  3.567267  0
N  N198  1  0.87283464  0.13951246  0.16928817  1  -1.182585  0  -0.569134  -0.600101  0  3.567094  0
N  N199  1  0.37281122  0.36049761  0.83072497  1  -1.182591  0  -0.569111  -0.600224  0  3.566924  0
N  N200  1  0.62954724  0.06743207  0.33388729  1  -1.187204  0  -0.772746  -0.730449  0  3.370019  0
N  N201  1  0.12952337  0.43255912  0.66612012  1  -1.187205  0  -0.77267  -0.73047  0  3.370072  0
N  N202  1  0.37047166  0.93256676  0.83387936  1  -1.18727  0  -0.772734  -0.730536  0  3.369729  0
N  N203  1  0.87046867  0.56743508  0.16611674  1  -1.18701  0  -0.772585  -0.730407  0  3.370142  0
N  N204  1  0.37045238  0.93256271  0.66611082  1  -1.187076  0  -0.772762  -0.730494  0  3.369905  0
N  N205  1  0.87048255  0.56743652  0.33388471  1  -1.187205  0  -0.772466  -0.730159  0  3.369883  0
N  N206  1  0.62954236  0.06743934  0.16611148  1  -1.187218  0  -0.772691  -0.730521  0  3.369882  0
N  N207  1  0.12952735  0.43255882  0.83388810  1  -1.18704  0  -0.772642  -0.73046  0  3.369955  0
N  N208  1  0.49872918  0.36612483  0.25000361  1  -1.189703  0  -0.344054  -0.190932  0  3.588426  0
N  N209  1  0.99871168  0.13389073  0.74999157  1  -1.189454  0  -0.344169  -0.191043  0  3.588649  0
N  N210  1  0.50128034  0.63388475  0.75001298  1  -1.189411  0  -0.344043  -0.19082  0  3.588445  0
N  N211  1  0.00128524  0.86610927  0.25000767  1  -1.189215  0  -0.344184  -0.191106  0  3.588531  0
O  O212  1  0.82032528  0.32755339  0.35760440  1  -1.165236  0  -0.335715  -0.513308  0  2.314581  0
O  O213  1  0.32030766  0.17246216  0.64240778  1  -1.165414  0  -0.335612  -0.51321  0  2.314525  0
O  O214  1  0.17968060  0.67245260  0.85758309  1  -1.165435  0  -0.335611  -0.513203  0  2.314436  0
O  O215  1  0.67967940  0.82755451  0.14240433  1  -1.165682  0  -0.335692  -0.513244  0  2.314739  0
O  O216  1  0.17967614  0.67243181  0.64240548  1  -1.165541  0  -0.335641  -0.51308  0  2.31449  0
O  O217  1  0.67968566  0.82755178  0.35758474  1  -1.165418  0  -0.335563  -0.513093  0  2.314424  0
O  O218  1  0.82031722  0.32755786  0.14241615  1  -1.16558  0  -0.335559  -0.513056  0  2.314859  0
O  O219  1  0.32030852  0.17245420  0.85760275  1  -1.165474  0  -0.335654  -0.51327  0  2.314801  0
O  O220  1  0.11696459  0.57801812  0.31375665  1  -1.186153  0  -0.340255  -0.569733  0  2.136364  0
O  O221  1  0.61691599  0.92200759  0.68622100  1  -1.18697  0  -0.340343  -0.569829  0  2.136345  0
O  O222  1  0.88305765  0.42196636  0.81376609  1  -1.186592  0  -0.340287  -0.569723  0  2.137008  0
O  O223  1  0.38307992  0.07798268  0.18624298  1  -1.186433  0  -0.34033  -0.569888  0  2.136272  0
O  O224  1  0.88307554  0.42199931  0.68627898  1  -1.18651  0  -0.340115  -0.569587  0  2.136844  0
O  O225  1  0.38309083  0.07797935  0.31373345  1  -1.186477  0  -0.340155  -0.569719  0  2.13675  0
O  O226  1  0.11694828  0.57802057  0.18626114  1  -1.185814  0  -0.340264  -0.569798  0  2.136241  0
O  O227  1  0.61693500  0.92201297  0.81371427  1  -1.186148  0  -0.340027  -0.569484  0  2.136836  0
