# generated using pymatgen
data_Zn4H8C38N6O29
_symmetry_space_group_name_H-M   'P 1'
_cell_length_a   10.86394861
_cell_length_b   10.76055451
_cell_length_c   19.52057588
_cell_angle_alpha   98.62015538
_cell_angle_beta   91.14475783
_cell_angle_gamma   98.25826792
_symmetry_Int_Tables_number   1
_chemical_formula_structural   Zn4H8C38N6O29
_chemical_formula_sum   'Zn4 H8 C38 N6 O29'
_cell_volume   2230.81303705
_cell_formula_units_Z   1
loop_
 _symmetry_equiv_pos_site_id
 _symmetry_equiv_pos_as_xyz
  1  'x, y, z'
loop_
 _atom_site_type_symbol
 _atom_site_label
 _atom_site_symmetry_multiplicity
 _atom_site_fract_x
 _atom_site_fract_y
 _atom_site_fract_z
 _atom_site_occupancy
 _atom_site_pbe_bader_charge
 _atom_site_pbe_bader_spin_density
 _atom_site_pbe_cm5_charge
 _atom_site_pbe_ddec_charge
 _atom_site_pbe_ddec_spin_density
 _atom_site_pbe_ddec_sum_bond_order
 _atom_site_pbe_magmom
Zn  Zn0  1  0.44127427  0.62133574  0.44551900  1  1.328204  0  0.696933  0.988748  0  2.357753  0
Zn  Zn1  1  0.40297962  0.40411039  0.54029735  1  1.311694  0  0.685233  0.971843  0  2.359845  0
Zn  Zn2  1  0.63660322  0.62987592  0.57296033  1  1.324036  0  0.690031  0.985836  0  2.28533  0
Zn  Zn3  1  0.62101315  0.41456264  0.43345988  1  1.328034  0  0.697254  0.993149  0  2.322894  0
H  H4  1  0.88583116  0.71124113  0.22226538  1  0.649998  0  0.365237  0.402102  0  0.820905  0
H  H5  1  0.71506356  0.23758577  0.64389421  1  0.656566  0  0.314795  0.369789  0  0.945577  0
H  H6  1  0.19386772  0.65602853  0.64636402  1  0.670754  0  0.313215  0.371609  0  0.952118  0
H  H7  1  0.09576349  0.50115054  0.71122392  1  0.665753  0  0.316869  0.3763  0  0.940194  0
H  H8  1  0.16413266  0.17861831  0.10590648  1  0.624012  0  0.363779  0.400919  0  0.820574  0
H  H9  1  0.12299950  0.42554646  0.26523875  1  0.654287  0  0.316526  0.370279  0  0.93478  0
H  H10  1  0.43767995  0.16597191  0.90648073  1  0.627173  0  0.362819  0.404933  0  0.81773  0
H  H11  1  0.83391272  0.47571125  0.03408244  1  0.639666  0  0.344336  0.403473  0  0.841668  0
C  C12  1  0.51731731  0.18252631  0.48735340  1  1.651246  0  0.24607  0.625265  0  4.185707  0
C  C13  1  0.47099661  0.42467332  0.01646540  1  0.076939  0  0.02748  -0.061499  0  3.851652  0
C  C14  1  0.46152959  0.52003425  0.97867347  1  0.136097  0  0.027838  0.022397  0  3.972783  0
C  C15  1  0.55462023  0.85445892  0.53925133  1  1.603159  0  0.238777  0.632635  0  4.156988  0
C  C16  1  0.47501112  0.51481435  0.75750293  1  0.04563  0  0.025156  -0.037446  0  3.881062  0
C  C17  1  0.56315793  0.99532836  0.54227873  1  0.170382  0  0.013919  -0.151432  0  3.793146  0
C  C18  1  0.51800292  0.04195362  0.48760736  1  0.020203  0  0.0366  -0.015669  0  3.926302  0
C  C19  1  0.99010790  0.51947268  0.52286080  1  0.020707  0  0.020612  -0.144566  0  3.793823  0
C  C20  1  0.05693172  0.48759235  0.46685203  1  0.086581  0  0.042899  -0.01962  0  3.924311  0
C  C21  1  0.19650372  0.49070493  0.47409929  1  1.670722  0  0.241581  0.614714  0  4.203533  0
C  C22  1  0.85348449  0.52310753  0.51614677  1  1.641003  0  0.239562  0.629364  0  4.174389  0
C  C23  1  0.48506762  0.45357174  0.09363338  1  0.065574  0  0.015591  0.043358  0  3.937256  0
C  C24  1  0.48607857  0.51860571  0.68106237  1  1.656323  0  0.23134  0.602317  0  4.217377  0
C  C25  1  0.53287292  0.51859271  0.31626305  1  1.660539  0  0.235378  0.622566  0  4.204197  0
C  C26  1  0.51574980  0.50212401  0.23842609  1  -0.023584  0  0.027834  -0.006102  0  3.852356  0
C  C27  1  0.61367057  0.54464058  0.19776850  1  0.054326  0  0.011638  -0.058317  0  3.876218  0
C  C28  1  0.59833568  0.51965268  0.12507906  1  -0.003627  0  0.021688  -0.029588  0  3.831211  0
C  C29  1  0.72807912  0.62060715  0.23544279  1  1.495189  0  0.241564  0.579675  0  4.110868  0
C  C30  1  0.25225168  0.56696259  0.89816024  1  0.886331  0  0.180829  0.223051  0  3.995579  0
C  C31  1  0.61318336  0.07810441  0.60856451  1  1.556371  0  0.234042  0.60585  0  4.128156  0
C  C32  1  0.46150990  0.96696720  0.42566802  1  0.881865  0  0.180521  0.248372  0  4.010931  0
C  C33  1  0.05196888  0.55273849  0.59412609  1  1.590782  0  0.250456  0.620552  0  4.103079  0
C  C34  1  0.38816957  0.41070615  0.13511479  1  0.031507  0  0.018965  -0.04486  0  3.859894  0
C  C35  1  0.01247056  0.45509861  0.39651521  1  0.901327  0  0.207902  0.296066  0  3.971523  0
C  C36  1  0.66710831  0.42278185  0.75491864  1  0.885416  0  0.208229  0.267018  0  3.968408  0
C  C37  1  0.26213224  0.57008356  0.74834783  1  1.600954  0  0.251262  0.597315  0  4.120512  0
C  C38  1  0.44619777  0.64305677  0.01349859  1  0.859844  0  0.175368  0.221208  0  4.019903  0
C  C39  1  0.27633800  0.32707537  0.09886213  1  1.52922  0  0.237743  0.581241  0  4.126535  0
C  C40  1  0.67265496  0.44251714  0.90007685  1  0.867737  0  0.190276  0.235636  0  4.016933  0
C  C41  1  0.29566660  0.40909194  0.25466840  1  1.577387  0  0.235514  0.590862  0  4.109692  0
C  C42  1  0.46874182  0.28751012  0.98739427  1  1.535307  0  0.230708  0.564147  0  4.147575  0
C  C43  1  0.70280351  0.55232389  0.07779608  1  1.569114  0  0.230463  0.578788  0  4.163267  0
C  C44  1  0.40138970  0.43910840  0.20775117  1  0.072795  0  0.016548  -0.042897  0  3.850768  0
C  C45  1  0.56847320  0.47741344  0.86606001  1  0.161794  0  0.039631  0.021683  0  3.995645  0
C  C46  1  0.57232313  0.47632794  0.79365789  1  0.086608  0  0.042153  0.033403  0  3.995059  0
C  C47  1  0.36807990  0.54184236  0.79177233  1  0.040444  0  0.028613  -0.04397  0  3.859485  0
C  C48  1  0.36231240  0.53991703  0.86373601  1  0.145214  0  0.040055  0.0378  0  3.972695  0
C  C49  1  0.46384942  0.51082432  0.90191050  1  0.048277  0  0.042848  0.055803  0  3.875022  0
N  N50  1  0.16135578  0.58934420  0.92520139  1  -1.023522  0  -0.26246  -0.278902  0  2.631417  0
N  N51  1  0.41363724  0.91736019  0.37241733  1  -1.05114  0  -0.279497  -0.302243  0  2.629298  0
N  N52  1  0.99979740  0.42921936  0.33622123  1  -1.060452  0  -0.267736  -0.329204  0  2.736167  0
N  N53  1  0.73411552  0.36864612  0.71984045  1  -1.113336  0  -0.257067  -0.311542  0  2.786454  0
N  N54  1  0.42815387  0.74381992  0.03909914  1  -1.043921  0  -0.275328  -0.291725  0  2.621807  0
N  N55  1  0.76161208  0.41373963  0.92410452  1  -1.079192  0  -0.262516  -0.306481  0  2.726451  0
O  O56  1  0.52791750  0.51730745  0.50028522  1  -1.231646  0  -0.570667  -1.042181  0  2.513877  0
O  O57  1  0.40136213  0.44733322  0.64215966  1  -1.157335  0  -0.297397  -0.520084  0  2.332644  0
O  O58  1  0.58598806  0.43422267  0.33877042  1  -1.148798  0  -0.301264  -0.52541  0  2.356379  0
O  O59  1  0.58017366  0.58994687  0.66453655  1  -1.153105  0  -0.289947  -0.517152  0  2.322954  0
O  O60  1  0.48600475  0.60925013  0.35020844  1  -1.145544  0  -0.304112  -0.531143  0  2.374003  0
O  O61  1  0.73973338  0.64694102  0.29858774  1  -1.072962  0  -0.272647  -0.462759  0  2.110844  0
O  O62  1  0.81652216  0.66113549  0.19287763  1  -1.133191  0  -0.311389  -0.45721  0  2.268291  0
O  O63  1  0.58273466  0.05049891  0.66485284  1  -1.09615  0  -0.286941  -0.464658  0  2.014517  0
O  O64  1  0.68993898  0.18299255  0.59832434  1  -1.154132  0  -0.330606  -0.480978  0  2.24642  0
O  O65  1  0.01349804  0.49532828  0.64164708  1  -1.118094  0  -0.261082  -0.468531  0  2.145359  0
O  O66  1  0.14837759  0.64407212  0.59875567  1  -1.160806  0  -0.309892  -0.453624  0  2.262726  0
O  O67  1  0.25965226  0.57045052  0.44292758  1  -1.139621  0  -0.283333  -0.498103  0  2.346421  0
O  O68  1  0.27970147  0.65822700  0.71377003  1  -1.133677  0  -0.268284  -0.475498  0  2.146871  0
O  O69  1  0.15883640  0.49068326  0.74929377  1  -1.149682  0  -0.297283  -0.434931  0  2.265664  0
O  O70  1  0.23250310  0.33984665  0.04261235  1  -1.106804  0  -0.275228  -0.46859  0  2.085594  0
O  O71  1  0.23496172  0.23050841  0.13335888  1  -1.089916  0  -0.312889  -0.455328  0  2.229149  0
O  O72  1  0.30842028  0.36617877  0.30847952  1  -1.126394  0  -0.286596  -0.478177  0  2.087449  0
O  O73  1  0.18933164  0.44241446  0.23189637  1  -1.145003  0  -0.327284  -0.47285  0  2.250937  0
O  O74  1  0.49078785  0.20932146  0.02333077  1  -1.088305  0  -0.264045  -0.438229  0  2.05448  0
O  O75  1  0.43698216  0.25767464  0.91858162  1  -1.123122  0  -0.32373  -0.480308  0  2.249642  0
O  O76  1  0.71135424  0.64163711  0.04569235  1  -1.103196  0  -0.277932  -0.470207  0  2.103047  0
O  O77  1  0.77775968  0.46231001  0.07218509  1  -1.10937  0  -0.326082  -0.474496  0  2.226493  0
O  O78  1  0.79876322  0.46153831  0.46079270  1  -1.159601  0  -0.29027  -0.520319  0  2.362707  0
O  O79  1  0.44040176  0.23011802  0.52776299  1  -1.149366  0  -0.299203  -0.521904  0  2.321707  0
O  O80  1  0.63902385  0.81290813  0.57177399  1  -1.140865  0  -0.297662  -0.515988  0  2.273697  0
O  O81  1  0.58758141  0.23388718  0.44563271  1  -1.153389  0  -0.289562  -0.508611  0  2.309267  0
O  O82  1  0.46350557  0.78858113  0.50259868  1  -1.17804  0  -0.301454  -0.539478  0  2.387611  0
O  O83  1  0.23157667  0.41283760  0.51038155  1  -1.150358  0  -0.295522  -0.518203  0  2.320953  0
O  O84  1  0.80793906  0.59017058  0.56587348  1  -1.145842  0  -0.297772  -0.519058  0  2.297657  0
