# generated using pymatgen
data_ZnH12C18(NO2)2
_symmetry_space_group_name_H-M   'P 1'
_cell_length_a   10.45761736
_cell_length_b   11.44280138
_cell_length_c   14.81722944
_cell_angle_alpha   109.98986959
_cell_angle_beta   100.80975515
_cell_angle_gamma   96.45950554
_symmetry_Int_Tables_number   1
_chemical_formula_structural   ZnH12C18(NO2)2
_chemical_formula_sum   'Zn4 H48 C72 N8 O16'
_cell_volume   1606.46663806
_cell_formula_units_Z   4
loop_
 _symmetry_equiv_pos_site_id
 _symmetry_equiv_pos_as_xyz
  1  'x, y, z'
loop_
 _atom_site_type_symbol
 _atom_site_label
 _atom_site_symmetry_multiplicity
 _atom_site_fract_x
 _atom_site_fract_y
 _atom_site_fract_z
 _atom_site_occupancy
 _atom_site_hle17_bader_spin_density
 _atom_site_hle17_ddec_charge
 _atom_site_hle17_ddec_spin_density
 _atom_site_hle17_ddec_sum_bond_order
 _atom_site_hle17_magmom
 _atom_site_hse06_10hf_bader_spin_density
 _atom_site_hse06_10hf_ddec_charge
 _atom_site_hse06_10hf_ddec_spin_density
 _atom_site_hse06_10hf_ddec_sum_bond_order
 _atom_site_hse06_10hf_magmom
 _atom_site_hse06_bader_spin_density
 _atom_site_hse06_ddec_charge
 _atom_site_hse06_ddec_spin_density
 _atom_site_hse06_ddec_sum_bond_order
 _atom_site_hse06_magmom
 _atom_site_pbe_bader_spin_density
 _atom_site_pbe_cm5_charge
 _atom_site_pbe_ddec_charge
 _atom_site_pbe_ddec_spin_density
 _atom_site_pbe_ddec_sum_bond_order
 _atom_site_pbe_magmom
Zn  Zn0  1  0.22530377  0.20397315  0.12193652  1  0  1.054641  0  1.837047  0  0  0.866109  0  2.316704  0  0  0.91697  0  2.256044  0  0  0.690366  0.830856  0  2.358409  0
Zn  Zn1  1  0.77469497  0.79602803  0.87806265  1  0  1.054683  0  1.837  0  0  0.866151  0  2.316658  0  0  0.917011  0  2.255999  0  0  0.690424  0.830925  0  2.358383  0
Zn  Zn2  1  0.27465201  0.21656046  0.38518856  1  0  1.054472  0  1.829368  0  0  0.864797  0  2.30864  0  0  0.915607  0  2.247915  0  0  0.689258  0.82944  0  2.350713  0
Zn  Zn3  1  0.72534761  0.78343507  0.61480929  1  0  1.054531  0  1.82935  0  0  0.864859  0  2.308602  0  0  0.915669  0  2.247875  0  0  0.689274  0.829505  0  2.350684  0
H  H4  1  0.57811300  0.21560538  0.11426415  1  0  0.115882  0  0.960422  0  0  0.122697  0  1.024903  0  0  0.126771  0  1.022002  0  0  0.106151  0.119526  0  1.027511  0
H  H5  1  0.42188847  0.78439488  0.88573445  1  0  0.115871  0  0.960475  0  0  0.122655  0  1.024978  0  0  0.126761  0  1.022039  0  0  0.106142  0.119487  0  1.027586  0
H  H6  1  0.92214029  0.20518903  0.39347169  1  0  0.112819  0  0.954051  0  0  0.119572  0  1.019117  0  0  0.123557  0  1.016345  0  0  0.10466  0.116574  0  1.021438  0
H  H7  1  0.07785802  0.79481501  0.60652881  1  0  0.11284  0  0.954004  0  0  0.119581  0  1.019092  0  0  0.123569  0  1.01631  0  0  0.104673  0.116578  0  1.021406  0
H  H8  1  0.15588142  0.40671436  0.74595315  1  0  0.094976  0  0.943275  0  0  0.106738  0  1.000236  0  0  0.110249  0  0.998452  0  0  0.102134  0.104266  0  1.001445  0
H  H9  1  0.84412510  0.59328691  0.25404634  1  0  0.094942  0  0.943349  0  0  0.106719  0  1.000283  0  0  0.110233  0  0.998499  0  0  0.102094  0.104238  0  1.001494  0
H  H10  1  0.68954637  0.22249901  0.41074395  1  0  0.091104  0  0.978248  0  0  0.098381  0  1.044918  0  0  0.101319  0  1.044225  0  0  0.096155  0.096065  0  1.045714  0
H  H11  1  0.31045318  0.77750126  0.58925577  1  0  0.091098  0  0.978264  0  0  0.098369  0  1.044939  0  0  0.101306  0  1.044246  0  0  0.09615  0.096053  0  1.045731  0
H  H12  1  0.81062390  0.19833613  0.09692227  1  0  0.095609  0  0.967258  0  0  0.103353  0  1.032485  0  0  0.106235  0  1.032069  0  0  0.099666  0.10108  0  1.033163  0
H  H13  1  0.18937843  0.80166326  0.90307891  1  0  0.095601  0  0.967302  0  0  0.10333  0  1.032544  0  0  0.106248  0  1.032088  0  0  0.099669  0.10105  0  1.033218  0
H  H14  1  0.32476576  0.08310923  0.61434231  1  0  0.093926  0  0.954579  0  0  0.104906  0  1.014995  0  0  0.108039  0  1.013739  0  0  0.100405  0.102558  0  1.016076  0
H  H15  1  0.67522504  0.91688614  0.38565237  1  0  0.0939  0  0.95457  0  0  0.10487  0  1.015011  0  0  0.108012  0  1.01373  0  0  0.100402  0.102519  0  1.016094  0
H  H16  1  0.18542860  0.36288235  0.90305532  1  0  0.087753  0  0.962031  0  0  0.097571  0  1.026009  0  0  0.101066  0  1.02403  0  0  0.095979  0.094966  0  1.027649  0
H  H17  1  0.81458116  0.63712080  0.09694302  1  0  0.087817  0  0.961913  0  0  0.097668  0  1.025862  0  0  0.101156  0  1.023891  0  0  0.096013  0.095065  0  1.027509  0
H  H18  1  0.35474915  0.04010231  0.77130193  1  0  0.095216  0  0.966609  0  0  0.103943  0  1.031621  0  0  0.106051  0  1.032453  0  0  0.100715  0.102444  0  1.031023  0
H  H19  1  0.64524670  0.95989406  0.22869364  1  0  0.095181  0  0.966626  0  0  0.103912  0  1.031648  0  0  0.106019  0  1.032481  0  0  0.100715  0.102411  0  1.03105  0
H  H20  1  0.06079851  0.98531881  0.36099755  1  0  0.090449  0  0.923036  0  0  0.101262  0  0.979798  0  0  0.103677  0  0.97828  0  0  0.120968  0.099532  0  0.98102  0
H  H21  1  0.93920055  0.01467867  0.63900342  1  0  0.090445  0  0.923043  0  0  0.101277  0  0.979782  0  0  0.103695  0  0.978255  0  0  0.120975  0.099545  0  0.981001  0
H  H22  1  0.44238158  0.44596957  0.16178792  1  0  0.09096  0  0.924198  0  0  0.101472  0  0.980666  0  0  0.10406  0  0.978729  0  0  0.120564  0.099599  0  0.982166  0
H  H23  1  0.55761888  0.55403546  0.83821446  1  0  0.090957  0  0.924186  0  0  0.10146  0  0.980679  0  0  0.104051  0  0.978738  0  0  0.120536  0.099589  0  0.982176  0
H  H24  1  0.03602932  0.38965211  0.12467400  1  0  0.086734  0  0.943447  0  0  0.096447  0  1.003378  0  0  0.099088  0  1.00136  0  0  0.117039  0.094488  0  1.004914  0
H  H25  1  0.96396788  0.61034619  0.87532289  1  0  0.086712  0  0.943455  0  0  0.096405  0  1.003401  0  0  0.099041  0  1.001382  0  0  0.117018  0.094443  0  1.004928  0
H  H26  1  0.46355888  0.02967318  0.37923953  1  0  0.084297  0  0.951504  0  0  0.092944  0  1.014211  0  0  0.095376  0  1.012418  0  0  0.114744  0.091222  0  1.01541  0
H  H27  1  0.53644365  0.97032719  0.62076328  1  0  0.0843  0  0.95153  0  0  0.092954  0  1.014236  0  0  0.095385  0  1.012445  0  0  0.114774  0.091234  0  1.015434  0
H  H28  1  0.02695883  0.97655934  0.10485114  1  0  0.088602  0  0.946789  0  0  0.097871  0  1.006024  0  0  0.100024  0  1.004534  0  0  0.118517  0.096186  0  1.007346  0
H  H29  1  0.97304019  0.02344292  0.89515374  1  0  0.088663  0  0.946766  0  0  0.097899  0  1.006035  0  0  0.100046  0  1.004551  0  0  0.118564  0.096213  0  1.007344  0
H  H30  1  0.46990817  0.44272969  0.39790581  1  0  0.078007  0  0.947839  0  0  0.08937  0  1.005591  0  0  0.090909  0  1.005019  0  0  0.117871  0.088271  0  1.005982  0
H  H31  1  0.53009262  0.55726681  0.60209310  1  0  0.077973  0  0.947794  0  0  0.08932  0  1.005588  0  0  0.090868  0  1.004995  0  0  0.117836  0.088226  0  1.005982  0
H  H32  1  0.05932791  0.61195950  0.40446599  1  0  0.124766  0  0.971533  0  0  0.133619  0  1.032678  0  0  0.137674  0  1.030366  0  0  0.109874  0.130098  0  1.035284  0
H  H33  1  0.94067446  0.38803996  0.59553792  1  0  0.124932  0  0.971408  0  0  0.133739  0  1.032594  0  0  0.137794  0  1.030284  0  0  0.109966  0.130228  0  1.035206  0
H  H34  1  0.43724364  0.80876066  0.09575700  1  0  0.114252  0  0.986718  0  0  0.119536  0  1.053958  0  0  0.123502  0  1.052038  0  0  0.105356  0.116313  0  1.056129  0
H  H35  1  0.56275782  0.19124443  0.90424687  1  0  0.114251  0  0.986677  0  0  0.119529  0  1.053932  0  0  0.123497  0  1.052011  0  0  0.105356  0.116303  0  1.056101  0
H  H36  1  0.42136971  0.01785275  0.09103541  1  0  0.09514  0  0.942134  0  0  0.102322  0  1.007124  0  0  0.104757  0  1.005309  0  0  0.122101  0.100256  0  1.009001  0
H  H37  1  0.57862964  0.98215138  0.90896863  1  0  0.09518  0  0.942109  0  0  0.102347  0  1.00712  0  0  0.104782  0  1.005306  0  0  0.122129  0.100281  0  1.008994  0
H  H38  1  0.47587162  0.65642397  0.39727600  1  0  0.11984  0  0.98209  0  0  0.12852  0  1.042666  0  0  0.13242  0  1.040809  0  0  0.107807  0.125304  0  1.04484  0
H  H39  1  0.52412994  0.34357157  0.60272141  1  0  0.119837  0  0.982128  0  0  0.128544  0  1.042664  0  0  0.132446  0  1.04081  0  0  0.107805  0.125329  0  1.044839  0
H  H40  1  0.07588799  0.39977258  0.40893020  1  0  0.085092  0  0.952321  0  0  0.09334  0  1.01537  0  0  0.095249  0  1.014226  0  0  0.11816  0.091788  0  1.016569  0
H  H41  1  0.92411517  0.60022593  0.59107289  1  0  0.085075  0  0.952324  0  0  0.093333  0  1.015384  0  0  0.095241  0  1.014243  0  0  0.118171  0.091776  0  1.016581  0
H  H42  1  0.45085146  0.65456434  0.14351529  1  0  0.109726  0  0.960326  0  0  0.119955  0  1.019694  0  0  0.122297  0  1.020535  0  0  0.109566  0.118406  0  1.019106  0
H  H43  1  0.54914713  0.34544077  0.85649093  1  0  0.109721  0  0.960307  0  0  0.119967  0  1.019663  0  0  0.122308  0  1.020504  0  0  0.109568  0.118418  0  1.019069  0
H  H44  1  0.02389101  0.76900608  0.11322242  1  0  0.105765  0  0.981898  0  0  0.111355  0  1.051612  0  0  0.114712  0  1.050349  0  0  0.104338  0.108751  0  1.053281  0
H  H45  1  0.97611206  0.23099715  0.88678186  1  0  0.105763  0  0.981887  0  0  0.111347  0  1.051616  0  0  0.114679  0  1.050385  0  0  0.10433  0.10874  0  1.053282  0
H  H46  1  0.05238122  0.77806784  0.38111839  1  0  0.11318  0  0.985125  0  0  0.119104  0  1.052225  0  0  0.12227  0  1.051652  0  0  0.106926  0.116793  0  1.052818  0
H  H47  1  0.94761923  0.22192679  0.61888068  1  0  0.113126  0  0.985216  0  0  0.119105  0  1.052257  0  0  0.122272  0  1.051683  0  0  0.10693  0.116797  0  1.052852  0
H  H48  1  0.02418008  0.59392528  0.10332546  1  0  0.097799  0  0.979393  0  0  0.108684  0  1.040964  0  0  0.111192  0  1.040878  0  0  0.104561  0.107102  0  1.04089  0
H  H49  1  0.97581963  0.40607108  0.89666788  1  0  0.097775  0  0.979364  0  0  0.108677  0  1.040917  0  0  0.111186  0  1.04083  0  0  0.104563  0.107109  0  1.040821  0
H  H50  1  0.47489449  0.82393881  0.39798251  1  0  0.110942  0  0.980175  0  0  0.117117  0  1.048079  0  0  0.120669  0  1.046398  0  0  0.107204  0.11454  0  1.049503  0
H  H51  1  0.52510514  0.17606156  0.60202128  1  0  0.110955  0  0.980132  0  0  0.117142  0  1.048017  0  0  0.120701  0  1.046332  0  0  0.107216  0.114562  0  1.049456  0
C  C52  1  0.65464576  0.21514939  0.17530445  1  0  -0.06835  0  3.708746  0  0  -0.090481  0  3.954705  0  0  -0.09105  0  3.973564  0  0  -0.082539  -0.090163  0  3.942326  0
C  C53  1  0.34535429  0.78485369  0.82469469  1  0  -0.068257  0  3.708801  0  0  -0.090339  0  3.954742  0  0  -0.090937  0  3.973601  0  0  -0.082452  -0.090023  0  3.942364  0
C  C54  1  0.87864709  0.20047208  0.24380915  1  0  -0.062483  0  3.750997  0  0  -0.039722  0  3.983634  0  0  -0.047229  0  4.006542  0  0  -0.015173  -0.034697  0  3.967408  0
C  C55  1  0.12135072  0.79952917  0.75619261  1  0  -0.062457  0  3.751048  0  0  -0.039784  0  3.983767  0  0  -0.047288  0  4.006684  0  0  -0.015202  -0.034763  0  3.967529  0
C  C56  1  0.84596117  0.20707187  0.33284509  1  0  -0.074953  0  3.716487  0  0  -0.097014  0  3.964121  0  0  -0.098169  0  3.983949  0  0  -0.08425  -0.096295  0  3.950968  0
C  C57  1  0.15403843  0.79292846  0.66715734  1  0  -0.074992  0  3.716593  0  0  -0.097022  0  3.964227  0  0  -0.098175  0  3.984055  0  0  -0.084294  -0.096299  0  3.951064  0
C  C58  1  0.62199392  0.22163221  0.26434478  1  0  -0.071213  0  3.764262  0  0  -0.048123  0  3.997224  0  0  -0.055632  0  4.019518  0  0  -0.019001  -0.043123  0  3.981413  0
C  C59  1  0.37800382  0.77836893  0.73565290  1  0  -0.071203  0  3.76422  0  0  -0.048141  0  3.997196  0  0  -0.055646  0  4.019494  0  0  -0.019024  -0.043153  0  3.981404  0
C  C60  1  0.48380410  0.23092866  0.27474190  1  0  0.663828  0  3.898331  0  0  0.606629  0  4.198528  0  0  0.642548  0  4.188522  0  0  0.21972  0.583178  0  4.203099  0
C  C61  1  0.51619426  0.76907062  0.72525606  1  0  0.663748  0  3.898283  0  0  0.606576  0  4.19844  0  0  0.642491  0  4.188435  0  0  0.21971  0.583139  0  4.203019  0
C  C62  1  0.01664542  0.18989788  0.23345593  1  0  0.660425  0  3.900225  0  0  0.602523  0  4.201943  0  0  0.638439  0  4.192057  0  0  0.216961  0.579056  0  4.206467  0
C  C63  1  0.98335420  0.81010248  0.76654719  1  0  0.660391  0  3.900308  0  0  0.602549  0  4.201966  0  0  0.638457  0  4.192088  0  0  0.216929  0.579095  0  4.206476  0
C  C64  1  0.19918020  0.32649160  0.75214253  1  0  -0.093481  0  3.77513  0  0  -0.113048  0  4.02089  0  0  -0.11436  0  4.04084  0  0  -0.093062  -0.112305  0  4.007557  0
C  C65  1  0.80082203  0.67350767  0.24785389  1  0  -0.093361  0  3.775186  0  0  -0.112919  0  4.020929  0  0  -0.114232  0  4.040882  0  0  -0.092948  -0.112174  0  4.007581  0
C  C66  1  0.21773479  0.26926413  0.57532002  1  0  0.641697  0  3.933652  0  0  0.594276  0  4.228648  0  0  0.628453  0  4.219927  0  0  0.199896  0.571085  0  4.233807  0
C  C67  1  0.78226356  0.73073513  0.42467727  1  0  0.641618  0  3.933687  0  0  0.594201  0  4.2287  0  0  0.628375  0  4.219987  0  0  0.199841  0.571002  0  4.233855  0
C  C68  1  0.23919330  0.24774147  0.67105043  1  0  -0.053708  0  3.76463  0  0  -0.031772  0  3.994901  0  0  -0.037219  0  4.016052  0  0  -0.018119  -0.028113  0  3.980901  0
C  C69  1  0.76080211  0.75225774  0.32894579  1  0  -0.053713  0  3.764739  0  0  -0.031809  0  3.995062  0  0  -0.037262  0  4.016222  0  0  -0.018156  -0.028145  0  3.981044  0
C  C70  1  0.28743139  0.17185915  0.93961520  1  0  0.636961  0  3.942574  0  0  0.587404  0  4.240398  0  0  0.6215  0  4.232202  0  0  0.196985  0.564397  0  4.244888  0
C  C71  1  0.71256975  0.82813925  0.06038424  1  0  0.636804  0  3.94257  0  0  0.587274  0  4.240357  0  0  0.621367  0  4.232166  0  0  0.196939  0.564282  0  4.244849  0
C  C72  1  0.71775868  0.21752053  0.34266791  1  0  -0.071011  0  3.740798  0  0  -0.093173  0  3.98826  0  0  -0.09378  0  4.008393  0  0  -0.086312  -0.092417  0  3.974644  0
C  C73  1  0.28223989  0.78247973  0.65733167  1  0  -0.07104  0  3.740867  0  0  -0.093195  0  3.988345  0  0  -0.093805  0  4.008478  0  0  -0.086318  -0.092442  0  3.974726  0
C  C74  1  0.78295281  0.20473896  0.16550775  1  0  -0.062359  0  3.719246  0  0  -0.084945  0  3.965424  0  0  -0.085419  0  3.985425  0  0  -0.083888  -0.08435  0  3.951876  0
C  C75  1  0.21704924  0.79526419  0.83449368  1  0  -0.062423  0  3.719367  0  0  -0.084969  0  3.965553  0  0  -0.085477  0  3.985548  0  0  -0.08392  -0.084368  0  3.951989  0
C  C76  1  0.29584192  0.14488307  0.67843010  1  0  -0.084748  0  3.751494  0  0  -0.105422  0  3.998736  0  0  -0.106198  0  4.018163  0  0  -0.091207  -0.105101  0  3.985993  0
C  C77  1  0.70415049  0.85511045  0.32156498  1  0  -0.084636  0  3.751473  0  0  -0.10528  0  3.998717  0  0  -0.106053  0  4.018148  0  0  -0.091129  -0.104966  0  3.985973  0
C  C78  1  0.21495611  0.30175234  0.83891485  1  0  -0.094605  0  3.768355  0  0  -0.115395  0  4.016947  0  0  -0.116307  0  4.036256  0  0  -0.094968  -0.115129  0  4.004343  0
C  C79  1  0.78504890  0.69824606  0.16108305  1  0  -0.094755  0  3.768375  0  0  -0.115589  0  4.016996  0  0  -0.116497  0  4.036311  0  0  -0.095062  -0.115328  0  4.004403  0
C  C80  1  0.31200645  0.12049161  0.76529913  1  0  -0.088849  0  3.765019  0  0  -0.109689  0  4.013471  0  0  -0.111172  0  4.034456  0  0  -0.090903  -0.109009  0  3.999618  0
C  C81  1  0.68798843  0.87950476  0.23469631  1  0  -0.088853  0  3.76507  0  0  -0.109734  0  4.01356  0  0  -0.111216  0  4.034544  0  0  -0.090987  -0.109054  0  3.999708  0
C  C82  1  0.15031111  0.94551522  0.36970076  1  0  0.133412  0  3.689624  0  0  0.104143  0  3.938766  0  0  0.110252  0  3.957585  0  0  0.049153  0.100108  0  3.92562  0
C  C83  1  0.84969164  0.05448132  0.63029909  1  0  0.133504  0  3.689371  0  0  0.104214  0  3.938533  0  0  0.110325  0  3.957352  0  0  0.049175  0.100184  0  3.925381  0
C  C84  1  0.27068479  0.19824614  0.84592186  1  0  -0.047341  0  3.756614  0  0  -0.02475  0  3.986785  0  0  -0.029682  0  4.006876  0  0  -0.016638  -0.021408  0  3.97349  0
C  C85  1  0.72931649  0.80175316  0.15407579  1  0  -0.047295  0  3.756765  0  0  -0.024693  0  3.986938  0  0  -0.029624  0  4.007026  0  0  -0.016578  -0.021366  0  3.973652  0
C  C86  1  0.35194814  0.48302142  0.14842083  1  0  0.130147  0  3.702092  0  0  0.100245  0  3.95313  0  0  0.106462  0  3.971575  0  0  0.050614  0.096138  0  3.940427  0
C  C87  1  0.64805215  0.51698269  0.85158197  1  0  0.130056  0  3.702154  0  0  0.100136  0  3.953228  0  0  0.106353  0  3.971671  0  0  0.050594  0.096036  0  3.940526  0
C  C88  1  0.12533677  0.45167105  0.12798121  1  0  0.126673  0  3.718616  0  0  0.094972  0  3.973056  0  0  0.101309  0  3.991288  0  0  0.042966  0.090799  0  3.960561  0
C  C89  1  0.87466220  0.54832632  0.87201567  1  0  0.126619  0  3.718618  0  0  0.094958  0  3.973036  0  0  0.101297  0  3.991266  0  0  0.042979  0.090802  0  3.960526  0
C  C90  1  0.37482825  0.96991859  0.37933808  1  0  0.122706  0  3.721684  0  0  0.092567  0  3.97464  0  0  0.098589  0  3.993917  0  0  0.043086  0.088664  0  3.961119  0
C  C91  1  0.62517213  0.03008080  0.62066353  1  0  0.122708  0  3.721808  0  0  0.092545  0  3.974788  0  0  0.098568  0  3.994066  0  0  0.043046  0.088643  0  3.961266  0
C  C92  1  0.11737777  0.93804982  0.10602269  1  0  0.151513  0  3.685791  0  0  0.119153  0  3.938165  0  0  0.126917  0  3.955085  0  0  0.050815  0.114102  0  3.927112  0
C  C93  1  0.88262251  0.06195427  0.89397943  1  0  0.151533  0  3.685707  0  0  0.119179  0  3.938091  0  0  0.126948  0  3.955  0  0  0.050805  0.114142  0  3.927024  0
C  C94  1  0.23689747  0.64431010  0.12077218  1  0  0.096467  0  3.75512  0  0  0.107282  0  3.983645  0  0  0.111  0  4.005391  0  0  0.011545  0.105092  0  3.968719  0
C  C95  1  0.76310010  0.35569011  0.87922592  1  0  0.096462  0  3.755096  0  0  0.107198  0  3.983729  0  0  0.110912  0  4.005477  0  0  0.011557  0.105006  0  3.968815  0
C  C96  1  0.26328609  0.77936854  0.38888524  1  0  0.090975  0  3.751863  0  0  0.103337  0  3.980764  0  0  0.106711  0  4.002798  0  0  0.012724  0.101284  0  3.965595  0
C  C97  1  0.73671208  0.22062977  0.61111178  1  0  0.090998  0  3.751822  0  0  0.10335  0  3.98071  0  0  0.106725  0  4.002747  0  0  0.012751  0.101299  0  3.965542  0
C  C98  1  0.38052866  0.48306345  0.39815774  1  0  0.136488  0  3.716561  0  0  0.104137  0  3.972619  0  0  0.110986  0  3.991266  0  0  0.045382  0.099634  0  3.959911  0
C  C99  1  0.61947252  0.51693500  0.60184374  1  0  0.136658  0  3.716536  0  0  0.104288  0  3.972586  0  0  0.111141  0  3.991232  0  0  0.045479  0.099784  0  3.95988  0
C  C100  1  0.15266969  0.57841180  0.40046120  1  0  -0.157462  0  3.66537  0  0  -0.174037  0  3.908453  0  0  -0.182043  0  3.929413  0  0  -0.078929  -0.168172  0  3.894484  0
C  C101  1  0.84733251  0.42158671  0.59954245  1  0  -0.157592  0  3.665445  0  0  -0.174161  0  3.908587  0  0  -0.182167  0  3.929542  0  0  -0.078971  -0.16831  0  3.894635  0
C  C102  1  0.26532908  0.65337048  0.39540136  1  0  0.093493  0  3.746226  0  0  0.104198  0  3.979361  0  0  0.108249  0  4.000641  0  0  0.013019  0.101332  0  3.965145  0
C  C103  1  0.73467304  0.34662793  0.60459820  1  0  0.093534  0  3.746222  0  0  0.104304  0  3.979269  0  0  0.108353  0  4.000551  0  0  0.013002  0.101437  0  3.965059  0
C  C104  1  0.34422347  0.84143844  0.10219248  1  0  -0.155623  0  3.67941  0  0  -0.172297  0  3.924786  0  0  -0.180328  0  3.945755  0  0  -0.079916  -0.166809  0  3.911183  0
C  C105  1  0.65577660  0.15856466  0.89780734  1  0  -0.155674  0  3.679431  0  0  -0.17235  0  3.924807  0  0  -0.180388  0  3.945774  0  0  -0.079935  -0.166848  0  3.911197  0
C  C106  1  0.33683892  0.96057045  0.09902181  1  0  0.140561  0  3.673894  0  0  0.109334  0  3.925337  0  0  0.11579  0  3.94442  0  0  0.050042  0.10519  0  3.912624  0
C  C107  1  0.66316042  0.03943368  0.90098223  1  0  0.140617  0  3.673788  0  0  0.109374  0  3.925257  0  0  0.115831  0  3.944338  0  0  0.05005  0.105235  0  3.912549  0
C  C108  1  0.38214892  0.60363161  0.39670536  1  0  -0.149846  0  3.67819  0  0  -0.170149  0  3.929192  0  0  -0.177321  0  3.948973  0  0  -0.081726  -0.165386  0  3.916439  0
C  C109  1  0.61785261  0.39636872  0.60329597  1  0  -0.149954  0  3.67834  0  0  -0.170289  0  3.929327  0  0  -0.177466  0  3.949111  0  0  -0.081759  -0.165525  0  3.916577  0
C  C110  1  0.16052558  0.45897626  0.40295122  1  0  0.138352  0  3.689305  0  0  0.109094  0  3.936438  0  0  0.115672  0  3.955717  0  0  0.048  0.104664  0  3.92332  0
C  C111  1  0.83947662  0.54102225  0.59705243  1  0  0.13839  0  3.689417  0  0  0.109078  0  3.936583  0  0  0.115657  0  3.955862  0  0  0.047952  0.104656  0  3.923454  0
C  C112  1  0.35543463  0.59942239  0.13743110  1  0  -0.156718  0  3.687752  0  0  -0.172646  0  3.930943  0  0  -0.180017  0  3.952524  0  0  -0.079153  -0.167642  0  3.916013  0
C  C113  1  0.64456631  0.40057985  0.86257199  1  0  -0.156713  0  3.687835  0  0  -0.172624  0  3.931046  0  0  -0.179995  0  3.95263  0  0  -0.079167  -0.167607  0  3.91611  0
C  C114  1  0.11681044  0.81871838  0.11005657  1  0  -0.14302  0  3.683307  0  0  -0.162813  0  3.933667  0  0  -0.170006  0  3.953767  0  0  -0.078821  -0.158547  0  3.921471  0
C  C115  1  0.88319157  0.18128472  0.88994282  1  0  -0.143047  0  3.683364  0  0  -0.162842  0  3.933723  0  0  -0.17002  0  3.953829  0  0  -0.07882  -0.158569  0  3.921517  0
C  C116  1  0.14640142  0.82871751  0.37987640  1  0  -0.158333  0  3.678733  0  0  -0.174825  0  3.923024  0  0  -0.182624  0  3.945061  0  0  -0.081647  -0.169191  0  3.907498  0
C  C117  1  0.85359834  0.17127891  0.62011967  1  0  -0.158326  0  3.678653  0  0  -0.174872  0  3.92296  0  0  -0.182672  0  3.944996  0  0  -0.081627  -0.169239  0  3.907437  0
C  C118  1  0.23317072  0.76838558  0.11090520  1  0  0.081571  0  3.757675  0  0  0.095593  0  3.98369  0  0  0.099365  0  4.005614  0  0  0.008074  0.092905  0  3.969194  0
C  C119  1  0.76682880  0.23161466  0.88909315  1  0  0.081577  0  3.757748  0  0  0.095656  0  3.983726  0  0  0.099444  0  4.005623  0  0  0.008091  0.092969  0  3.969233  0
C  C120  1  0.12010476  0.56636859  0.11621349  1  0  -0.165878  0  3.724954  0  0  -0.183673  0  3.973602  0  0  -0.191372  0  3.99583  0  0  -0.084713  -0.178487  0  3.958117  0
C  C121  1  0.87989373  0.43363157  0.88378201  1  0  -0.165749  0  3.724775  0  0  -0.18354  0  3.973441  0  0  -0.191238  0  3.995668  0  0  -0.084666  -0.178351  0  3.95793  0
C  C122  1  0.37972059  0.85415616  0.38932593  1  0  -0.164295  0  3.707274  0  0  -0.18325  0  3.958027  0  0  -0.190895  0  3.979796  0  0  -0.084849  -0.177705  0  3.942709  0
C  C123  1  0.62027732  0.14584036  0.61067466  1  0  -0.164288  0  3.707294  0  0  -0.183248  0  3.958035  0  0  -0.190897  0  3.979803  0  0  -0.084868  -0.177705  0  3.942721  0
N  N124  1  0.26228457  0.01561109  0.36900730  1  0  -0.314729  0  3.243361  0  0  -0.240879  0  3.507459  0  0  -0.258293  0  3.524732  0  0  -0.317032  -0.228492  0  3.495254  0
N  N125  1  0.73771581  0.98438829  0.63099432  1  0  -0.314819  0  3.243325  0  0  -0.240957  0  3.507435  0  0  -0.258372  0  3.524708  0  0  -0.317064  -0.22857  0  3.495231  0
N  N126  1  0.23920457  0.40961772  0.14390443  1  0  -0.309947  0  3.233836  0  0  -0.237728  0  3.497803  0  0  -0.254882  0  3.515451  0  0  -0.313201  -0.225639  0  3.485334  0
N  N127  1  0.76079285  0.59038158  0.85609477  1  0  -0.309863  0  3.233819  0  0  -0.237629  0  3.497743  0  0  -0.254781  0  3.515393  0  0  -0.313156  -0.22554  0  3.485279  0
N  N128  1  0.27152703  0.40990495  0.39943060  1  0  -0.329345  0  3.271962  0  0  -0.250646  0  3.541711  0  0  -0.269467  0  3.557415  0  0  -0.317823  -0.238267  0  3.531147  0
N  N129  1  0.72847513  0.59009351  0.60057101  1  0  -0.329483  0  3.271968  0  0  -0.250713  0  3.541667  0  0  -0.269535  0  3.557368  0  0  -0.317847  -0.238332  0  3.531099  0
N  N130  1  0.22626234  0.01036802  0.10363005  1  0  -0.336162  0  3.271162  0  0  -0.2566  0  3.542188  0  0  -0.275944  0  3.557649  0  0  -0.318799  -0.243888  0  3.53156  0
N  N131  1  0.77373567  0.98963419  0.89637266  1  0  -0.336307  0  3.270989  0  0  -0.256709  0  3.541997  0  0  -0.276052  0  3.557452  0  0  -0.318853  -0.244001  0  3.53138  0
O  O132  1  0.09017672  0.15925966  0.29690152  1  0  -0.654797  0  2.15892  0  0  -0.591474  0  2.458019  0  0  -0.618304  0  2.440203  0  0  -0.315603  -0.572951  0  2.46953  0
O  O133  1  0.90982235  0.84073783  0.70310013  1  0  -0.654816  0  2.158916  0  0  -0.591519  0  2.458008  0  0  -0.618352  0  2.440196  0  0  -0.315588  -0.572998  0  2.46952  0
O  O134  1  0.05003190  0.21085216  0.16098481  1  0  -0.629514  0  2.094704  0  0  -0.559438  0  2.373248  0  0  -0.586383  0  2.357074  0  0  -0.307424  -0.54049  0  2.382998  0
O  O135  1  0.94996841  0.78915197  0.83901868  1  0  -0.629443  0  2.094834  0  0  -0.559381  0  2.373335  0  0  -0.586318  0  2.357166  0  0  -0.307379  -0.540453  0  2.383134  0
O  O136  1  0.40925074  0.26052346  0.21125842  1  0  -0.655411  0  2.169374  0  0  -0.593168  0  2.470229  0  0  -0.62001  0  2.452421  0  0  -0.315666  -0.574549  0  2.481564  0
O  O137  1  0.59074783  0.73947680  0.78874117  1  0  -0.65534  0  2.169305  0  0  -0.593129  0  2.470184  0  0  -0.619978  0  2.452396  0  0  -0.315624  -0.574509  0  2.481537  0
O  O138  1  0.45135998  0.21082864  0.34791541  1  0  -0.633951  0  2.088907  0  0  -0.562666  0  2.365729  0  0  -0.589642  0  2.349877  0  0  -0.311594  -0.543792  0  2.375459  0
O  O139  1  0.54863918  0.78916970  0.65208241  1  0  -0.633984  0  2.088973  0  0  -0.562678  0  2.365737  0  0  -0.589651  0  2.349882  0  0  -0.311625  -0.543798  0  2.375472  0
O  O140  1  0.31288860  0.24778440  0.53051886  1  0  -0.664716  0  2.07282  0  0  -0.593467  0  2.34184  0  0  -0.623111  0  2.327919  0  0  -0.334124  -0.573257  0  2.352068  0
O  O141  1  0.68711012  0.75221677  0.46947963  1  0  -0.664745  0  2.072812  0  0  -0.593492  0  2.341845  0  0  -0.623136  0  2.32792  0  0  -0.33413  -0.573287  0  2.352072  0
O  O142  1  0.18713370  0.18490880  0.97949192  1  0  -0.660422  0  2.07004  0  0  -0.589466  0  2.340796  0  0  -0.620026  0  2.328766  0  0  -0.332604  -0.56853  0  2.349618  0
O  O143  1  0.81286812  0.81509335  0.02050721  1  0  -0.660356  0  2.069927  0  0  -0.589404  0  2.340675  0  0  -0.619963  0  2.328653  0  0  -0.332579  -0.568462  0  2.349495  0
O  O144  1  0.11295471  0.30180451  0.54435950  1  0  -0.616365  0  1.906092  0  0  -0.572476  0  2.124941  0  0  -0.595185  0  2.115524  0  0  -0.32256  -0.556328  0  2.131493  0
O  O145  1  0.88704304  0.69819665  0.45563886  1  0  -0.616295  0  1.906105  0  0  -0.572408  0  2.124955  0  0  -0.595113  0  2.115542  0  0  -0.322546  -0.55627  0  2.131511  0
O  O146  1  0.39269624  0.14235598  0.97306943  1  0  -0.607596  0  1.906109  0  0  -0.560657  0  2.127308  0  0  -0.583939  0  2.119209  0  0  -0.317872  -0.543879  0  2.132707  0
O  O147  1  0.60730410  0.85764335  0.02693015  1  0  -0.607548  0  1.906087  0  0  -0.560604  0  2.127243  0  0  -0.583893  0  2.119162  0  0  -0.317865  -0.543824  0  2.132642  0
