# generated using pymatgen
data_AlH12C21S3(NO5)3
_symmetry_space_group_name_H-M   'P 1'
_cell_length_a   4.29834260
_cell_length_b   27.60635826
_cell_length_c   27.60637384
_cell_angle_alpha   120.00007008
_cell_angle_beta   89.99910253
_cell_angle_gamma   90.00091265
_symmetry_Int_Tables_number   1
_chemical_formula_structural   AlH12C21S3(NO5)3
_chemical_formula_sum   'Al2 H24 C42 S6 N6 O30'
_cell_volume   2836.93795124
_cell_formula_units_Z   2
loop_
 _symmetry_equiv_pos_site_id
 _symmetry_equiv_pos_as_xyz
  1  'x, y, z'
loop_
 _atom_site_type_symbol
 _atom_site_label
 _atom_site_symmetry_multiplicity
 _atom_site_fract_x
 _atom_site_fract_y
 _atom_site_fract_z
 _atom_site_occupancy
 _atom_site_pbe_bader_charge
 _atom_site_pbe_bader_spin_density
 _atom_site_pbe_cm5_charge
 _atom_site_pbe_ddec_charge
 _atom_site_pbe_ddec_spin_density
 _atom_site_pbe_ddec_sum_bond_order
 _atom_site_pbe_magmom
Al  Al0  1  0.96533074  0.49999908  0.50000107  1  2.519736  0  0.4609  1.657767  0  2.470616  0
Al  Al1  1  0.96541565  0.16666465  0.83333295  1  2.519949  0  0.460969  1.658758  0  2.469149  0
H  H2  1  0.52314579  0.17959341  0.69494755  1  0.077552  0  0.117546  0.131357  0  0.969186  0
H  H3  1  0.58351619  0.23194539  0.64312015  1  0.118497  0  0.118105  0.1206  0  0.994098  0
H  H4  1  0.52638272  0.38777519  0.79860365  1  0.134216  0  0.126056  0.141434  0  0.975326  0
H  H5  1  0.52639270  0.27889784  0.53473986  1  0.134447  0  0.126006  0.14131  0  0.975583  0
H  H6  1  0.58354281  0.43472634  0.69022105  1  0.118559  0  0.118129  0.120573  0  0.994059  0
H  H7  1  0.52315039  0.48707901  0.63839368  1  0.077421  0  0.11755  0.131353  0  0.969009  0
H  H8  1  0.52312879  0.01535361  0.82040624  1  0.133985  0  0.117543  0.131433  0  0.969126  0
H  H9  1  0.58354466  0.91117348  0.76805629  1  0.12153  0  0.118095  0.120568  0  0.993931  0
H  H10  1  0.52643276  0.91082690  0.61222432  1  0.186159  0  0.126054  0.141447  0  0.975324  0
H  H11  1  0.52638681  0.75583856  0.72110861  1  0.18618  0  0.126024  0.14139  0  0.975262  0
H  H12  1  0.58352359  0.75548942  0.56527558  1  0.121403  0  0.11816  0.120623  0  0.994178  0
H  H13  1  0.52313017  0.65131229  0.51292847  1  0.133981  0  0.117544  0.131366  0  0.969271  0
H  H14  1  0.52313072  0.30505327  0.98464228  1  0.084978  0  0.117555  0.131294  0  0.96906  0
H  H15  1  0.58352941  0.35688283  0.08882225  1  0.077685  0  0.118207  0.120699  0  0.99401  0
H  H16  1  0.52641803  0.20139833  0.08917055  1  0.143864  0  0.126061  0.141479  0  0.975297  0
H  H17  1  0.52640515  0.46526734  0.24416340  1  0.143747  0  0.126003  0.141327  0  0.97536  0
H  H18  1  0.58356108  0.30978417  0.24451326  1  0.077498  0  0.118194  0.120707  0  0.994022  0
H  H19  1  0.52313522  0.36161171  0.34868900  1  0.085042  0  0.117535  0.131339  0  0.969137  0
H  H20  1  0.96898278  0.33072974  0.89514359  1  0.683904  0  0.315425  0.392765  0  0.955068  0
H  H21  1  0.96890357  0.33592278  0.43818715  1  0.684591  0  0.315382  0.392713  0  0.955078  0
H  H22  1  0.96899909  0.06440843  0.66925977  1  0.675281  0  0.315385  0.392763  0  0.955102  0
H  H23  1  0.96895705  0.60225231  0.66406999  1  0.67647  0  0.315408  0.392779  0  0.955001  0
H  H24  1  0.96894594  0.10485174  0.93559227  1  0.683028  0  0.315416  0.392739  0  0.955088  0
H  H25  1  0.96895669  0.56181024  0.39774711  1  0.6822  0  0.315394  0.392721  0  0.955067  0
C  C26  1  0.46806498  0.47104571  0.41740543  1  1.604983  0  0.278899  0.672853  0  4.07949  0
C  C27  1  0.46806046  0.44635946  0.52895281  1  1.615877  0  0.278974  0.673078  0  4.079497  0
C  C28  1  0.46808712  0.58260024  0.55364472  1  1.647899  0  0.279015  0.673065  0  4.078876  0
C  C29  1  0.46814445  0.22030901  0.80438005  1  1.612723  0  0.279132  0.673174  0  4.078646  0
C  C30  1  0.46815035  0.08407351  0.77969301  1  1.648894  0  0.279239  0.673243  0  4.079345  0
C  C31  1  0.46810503  0.19561840  0.91592601  1  1.606344  0  0.279188  0.673281  0  4.079302  0
C  C32  1  0.50087417  0.25418822  0.77596412  1  -0.035223  0  0.006949  -0.016846  0  3.91701  0
C  C33  1  0.53062430  0.22522177  0.71741444  1  0.01012  0  -0.069353  -0.074932  0  3.92276  0
C  C34  1  0.56500791  0.25405588  0.68855356  1  -0.115778  0  -0.064739  -0.112836  0  3.91092  0
C  C35  1  0.56711723  0.31291986  0.71811205  1  0.477932  0  0.091057  0.171831  0  4.030635  0
C  C36  1  0.53708796  0.34225927  0.77645539  1  0.02674  0  -0.062198  -0.13138  0  3.915784  0
C  C37  1  0.50417466  0.31291857  0.80510998  1  -0.139305  0  -0.0148  -0.126699  0  3.964983  0
C  C38  1  0.53705151  0.32440813  0.55688580  1  0.02603  0  -0.062099  -0.131165  0  3.915384  0
C  C39  1  0.56709888  0.35375382  0.61523155  1  0.477983  0  0.090976  0.171569  0  4.030987  0
C  C40  1  0.56497168  0.41261485  0.64478501  1  -0.116447  0  -0.064813  -0.112703  0  3.91139  0
C  C41  1  0.53056599  0.44143955  0.61592195  1  0.010282  0  -0.069202  -0.074903  0  3.923315  0
C  C42  1  0.50077456  0.41248112  0.55738164  1  -0.035533  0  0.006974  -0.016686  0  3.916968  0
C  C43  1  0.50406499  0.35375372  0.52822993  1  -0.138701  0  -0.014951  -0.126925  0  3.964916  0
C  C44  1  0.50085217  0.02176883  0.74580744  1  0.058723  0  0.006895  -0.016804  0  3.916754  0
C  C45  1  0.53060713  0.99218643  0.77477397  1  -0.035924  0  -0.06937  -0.075214  0  3.923301  0
C  C46  1  0.56500260  0.93449785  0.74594326  1  0.020707  0  -0.064792  -0.112711  0  3.911251  0
C  C47  1  0.56711649  0.90519026  0.68708343  1  0.332711  0  0.091021  0.171707  0  4.030688  0
C  C48  1  0.53711486  0.93419486  0.65773981  1  0.038217  0  -0.062184  -0.131491  0  3.91568  0
C  C49  1  0.50419669  0.99219134  0.68708127  1  -0.340792  0  -0.014735  -0.126462  0  3.964776  0
C  C50  1  0.53705712  0.73246549  0.67558882  1  0.038472  0  -0.062119  -0.131321  0  3.915719  0
C  C51  1  0.56709491  0.76147546  0.64625214  1  0.332808  0  0.091016  0.171712  0  4.030471  0
C  C52  1  0.56497926  0.73216959  0.58738986  1  0.0211  0  -0.064827  -0.112709  0  3.911078  0
C  C53  1  0.53057845  0.67447666  0.55855409  1  -0.036223  0  -0.069302  -0.075075  0  3.922505  0
C  C54  1  0.50079657  0.64489215  0.58752494  1  0.058923  0  0.007042  -0.016777  0  3.916699  0
C  C55  1  0.50411037  0.67447714  0.64625517  1  -0.341397  0  -0.014795  -0.126602  0  3.96512  0
C  C56  1  0.50084622  0.22404083  0.97822765  1  0.03716  0  0.006978  -0.016694  0  3.916947  0
C  C57  1  0.53059996  0.28258541  0.00781041  1  0.13935  0  -0.06932  -0.074933  0  3.923066  0
C  C58  1  0.56498622  0.31144789  0.06549978  1  0.001384  0  -0.064834  -0.112829  0  3.910981  0
C  C59  1  0.56711430  0.28189215  0.09480845  1  0.326785  0  0.090928  0.171513  0  4.030597  0
C  C60  1  0.53709422  0.22354615  0.06580563  1  0.092121  0  -0.06216  -0.131397  0  3.915582  0
C  C61  1  0.50417599  0.19489125  0.00780726  1  -0.280275  0  -0.01486  -0.126702  0  3.964676  0
C  C62  1  0.53706044  0.44311916  0.26753084  1  0.092379  0  -0.062055  -0.13116  0  3.91553  0
C  C63  1  0.56711934  0.38477287  0.23852471  1  0.326615  0  0.090973  0.171542  0  4.030599  0
C  C64  1  0.56500857  0.35521832  0.26783290  1  -0.006284  0  -0.0649  -0.112876  0  3.911117  0
C  C65  1  0.53059156  0.38407621  0.32552324  1  0.14704  0  -0.069303  -0.074996  0  3.922957  0
C  C66  1  0.50079554  0.44262566  0.35510647  1  0.037609  0  0.00716  -0.016547  0  3.916885  0
C  C67  1  0.50409513  0.47177278  0.32552470  1  -0.280431  0  -0.01497  -0.126809  0  3.965185  0
S  S68  1  0.41730473  0.35379318  0.87813529  1  3.13863  0  0.559858  1.189218  0  5.972317  0
S  S69  1  0.41723309  0.31286752  0.45520462  1  3.138158  0  0.55966  1.188888  0  5.974028  0
S  S70  1  0.41737860  0.02434317  0.64620326  1  3.153454  0  0.559902  1.189137  0  5.973  0
S  S71  1  0.41727786  0.64232614  0.68713021  1  3.153646  0  0.559874  1.189174  0  5.972092  0
S  S72  1  0.41734149  0.12185801  0.97565548  1  3.136632  0  0.559938  1.189282  0  5.972994  0
S  S73  1  0.41723820  0.54479602  0.35766646  1  3.13532  0  0.559704  1.188837  0  5.973148  0
N  N74  1  0.57759635  0.34683429  0.69314197  1  -0.373822  0  -0.143845  -0.13244  0  3.267664  0
N  N75  1  0.57767672  0.31983770  0.64019824  1  -0.542363  0  -0.143757  -0.132133  0  3.26775  0
N  N76  1  0.57762854  0.84630578  0.65316819  1  -0.53431  0  -0.143876  -0.132318  0  3.267734  0
N  N77  1  0.57761423  0.82035949  0.68016566  1  -0.386188  0  -0.143808  -0.132386  0  3.267778  0
N  N78  1  0.57765390  0.30686311  0.15369212  1  -0.436355  0  -0.143784  -0.132138  0  3.26787  0
N  N79  1  0.57761575  0.35980432  0.17964006  1  -0.605007  0  -0.14379  -0.132321  0  3.267909  0
O  O80  1  0.69342586  0.55426176  0.55680853  1  -1.251735  0  -0.238034  -0.604469  0  2.359834  0
O  O81  1  0.69335899  0.50254179  0.44573982  1  -1.254223  0  -0.237815  -0.604129  0  2.360286  0
O  O82  1  0.69336034  0.44319267  0.49746020  1  -1.251255  0  -0.237867  -0.604286  0  2.360345  0
O  O83  1  0.22517546  0.56443693  0.52373210  1  -1.240887  0  -0.225191  -0.587019  0  2.372274  0
O  O84  1  0.22516080  0.47626486  0.54070597  1  -1.243708  0  -0.225308  -0.587177  0  2.372885  0
O  O85  1  0.22512797  0.45929185  0.43556142  1  -1.241779  0  -0.225336  -0.587266  0  2.372592  0
O  O86  1  0.69342657  0.16411852  0.88759252  1  -1.254146  0  -0.238023  -0.604689  0  2.359843  0
O  O87  1  0.69346709  0.22347032  0.83587816  1  -1.250628  0  -0.237925  -0.604497  0  2.359756  0
O  O88  1  0.69343880  0.11240035  0.77652853  1  -1.251902  0  -0.237948  -0.604418  0  2.360453  0
O  O89  1  0.22521990  0.20736736  0.89777344  1  -1.243016  0  -0.225331  -0.587306  0  2.372881  0
O  O90  1  0.22523057  0.10222408  0.80959661  1  -1.241541  0  -0.225437  -0.587436  0  2.372272  0
O  O91  1  0.22521732  0.19039545  0.79262707  1  -1.242014  0  -0.22533  -0.587384  0  2.371993  0
O  O92  1  0.69077154  0.36031171  0.91235015  1  -1.313346  0  -0.312086  -0.543192  0  2.284291  0
O  O93  1  0.26901014  0.40427307  0.88752718  1  -1.275378  0  -0.298629  -0.505297  0  2.105553  0
O  O94  1  0.19755013  0.31454094  0.88714878  1  -1.290074  0  -0.338862  -0.537921  0  2.311016  0
O  O95  1  0.69066777  0.30634007  0.42099290  1  -1.312533  0  -0.311856  -0.542946  0  2.285301  0
O  O96  1  0.26888077  0.26239630  0.44582941  1  -1.276007  0  -0.298591  -0.505232  0  2.105927  0
O  O97  1  0.19747875  0.35211466  0.44618172  1  -1.290485  0  -0.338857  -0.537785  0  2.31102  0
O  O98  1  0.69082295  0.05205145  0.63969884  1  -1.309371  0  -0.312065  -0.543147  0  2.284634  0
O  O99  1  0.26914044  0.98325882  0.59572091  1  -1.283828  0  -0.298648  -0.505217  0  2.10618  0
O  O100  1  0.19758508  0.07260062  0.68545688  1  -1.286083  0  -0.338836  -0.537989  0  2.311011  0
O  O101  1  0.69074199  0.61463394  0.69365189  1  -1.309353  0  -0.311968  -0.543132  0  2.284411  0
O  O102  1  0.26895282  0.68341534  0.73760693  1  -1.283364  0  -0.298662  -0.505289  0  2.105308  0
O  O103  1  0.19752289  0.59405406  0.64788107  1  -1.287686  0  -0.338928  -0.537926  0  2.310787  0
O  O104  1  0.69075815  0.08764726  0.94794929  1  -1.312491  0  -0.311953  -0.543023  0  2.284878  0
O  O105  1  0.26912492  0.11246198  0.01674682  1  -1.276554  0  -0.298764  -0.505482  0  2.105857  0
O  O106  1  0.19754710  0.11285701  0.92740369  1  -1.282517  0  -0.338862  -0.537905  0  2.311143  0
O  O107  1  0.69072537  0.57901122  0.38535446  1  -1.311919  0  -0.311939  -0.543129  0  2.284694  0
O  O108  1  0.26889286  0.55417874  0.31658017  1  -1.275748  0  -0.298488  -0.504991  0  2.105835  0
O  O109  1  0.19750736  0.55381909  0.40594398  1  -1.281723  0  -0.338918  -0.537809  0  2.310795  0
