# generated using pymatgen
data_NaH14C12S2N3O11
_symmetry_space_group_name_H-M   'P 1'
_cell_length_a   6.22300485
_cell_length_b   7.71021893
_cell_length_c   18.71942023
_cell_angle_alpha   99.10406132
_cell_angle_beta   90.00024668
_cell_angle_gamma   90.00005415
_symmetry_Int_Tables_number   1
_chemical_formula_structural   NaH14C12S2N3O11
_chemical_formula_sum   'Na2 H28 C24 S4 N6 O22'
_cell_volume   886.85681311
_cell_formula_units_Z   2
loop_
 _symmetry_equiv_pos_site_id
 _symmetry_equiv_pos_as_xyz
  1  'x, y, z'
loop_
 _atom_site_type_symbol
 _atom_site_label
 _atom_site_symmetry_multiplicity
 _atom_site_fract_x
 _atom_site_fract_y
 _atom_site_fract_z
 _atom_site_occupancy
 _atom_site_hle17_bader_spin_density
 _atom_site_hle17_ddec_charge
 _atom_site_hle17_ddec_spin_density
 _atom_site_hle17_ddec_sum_bond_order
 _atom_site_hle17_magmom
 _atom_site_hse06_10hf_bader_spin_density
 _atom_site_hse06_10hf_ddec_charge
 _atom_site_hse06_10hf_ddec_spin_density
 _atom_site_hse06_10hf_ddec_sum_bond_order
 _atom_site_hse06_10hf_magmom
 _atom_site_hse06_bader_spin_density
 _atom_site_hse06_ddec_charge
 _atom_site_hse06_ddec_spin_density
 _atom_site_hse06_ddec_sum_bond_order
 _atom_site_hse06_magmom
 _atom_site_pbe_bader_spin_density
 _atom_site_pbe_cm5_charge
 _atom_site_pbe_ddec_charge
 _atom_site_pbe_ddec_spin_density
 _atom_site_pbe_ddec_sum_bond_order
 _atom_site_pbe_magmom
Na  Na0  1  0.56123402  0.83673483  0.02474971  1  0  0.900724  0  0.362434  0  0  0.85924  0  0.509946  0  0  0.868654  0  0.488642  0  0  0.637639  0.852248  0  0.525321  0
Na  Na1  1  0.06123473  0.16327732  0.97524913  1  0  0.900718  0  0.362419  0  0  0.859253  0  0.509896  0  0  0.868671  0  0.48859  0  0  0.637636  0.852257  0  0.525275  0
H  H2  1  0.20640084  0.01592071  0.09752112  1  0  0.418726  0  0.880654  0  0  0.392246  0  0.937334  0  0  0.401915  0  0.922876  0  0  0.293535  0.385423  0  0.947538  0
H  H3  1  0.70640515  0.98408609  0.90247868  1  0  0.418689  0  0.880714  0  0  0.392206  0  0.937393  0  0  0.401874  0  0.922936  0  0  0.293503  0.385382  0  0.947598  0
H  H4  1  0.09747750  0.86298008  0.04293435  1  0  0.424419  0  0.878619  0  0  0.398386  0  0.934203  0  0  0.408826  0  0.918839  0  0  0.288213  0.390996  0  0.945077  0
H  H5  1  0.59748999  0.13702680  0.95706367  1  0  0.424431  0  0.878607  0  0  0.398396  0  0.934197  0  0  0.408836  0  0.918832  0  0  0.288219  0.391006  0  0.945071  0
H  H6  1  0.54998134  0.57082891  0.88561911  1  0  0.411424  0  0.888708  0  0  0.380886  0  0.954934  0  0  0.390341  0  0.940875  0  0  0.294519  0.374219  0  0.964848  0
H  H7  1  0.04998542  0.42918324  0.11438078  1  0  0.411506  0  0.888618  0  0  0.380997  0  0.954771  0  0  0.390449  0  0.940716  0  0  0.294583  0.37433  0  0.964684  0
H  H8  1  0.31200489  0.62256778  0.90575321  1  0  0.406203  0  0.903956  0  0  0.371802  0  0.974196  0  0  0.381424  0  0.960311  0  0  0.289645  0.36503  0  0.983956  0
H  H9  1  0.81200292  0.37743766  0.09424347  1  0  0.406202  0  0.90394  0  0  0.371804  0  0.974187  0  0  0.381426  0  0.960302  0  0  0.289662  0.365032  0  0.983942  0
H  H10  1  0.95538099  0.67326184  0.96519303  1  0  0.402551  0  0.892407  0  0  0.371109  0  0.966635  0  0  0.379932  0  0.953867  0  0  0.296102  0.364882  0  0.97564  0
H  H11  1  0.45538700  0.32674613  0.03480406  1  0  0.402494  0  0.892477  0  0  0.371072  0  0.966709  0  0  0.379894  0  0.953942  0  0  0.296083  0.364844  0  0.975717  0
H  H12  1  0.93159962  0.58490729  0.03489763  1  0  0.424587  0  0.877415  0  0  0.394134  0  0.940428  0  0  0.404794  0  0.924833  0  0  0.289616  0.386604  0  0.951432  0
H  H13  1  0.43160453  0.41509544  0.96510015  1  0  0.42465  0  0.877345  0  0  0.394187  0  0.940378  0  0  0.404846  0  0.924782  0  0  0.289662  0.386655  0  0.951382  0
H  H14  1  0.36222677  0.63299361  0.31986369  1  0  0.114971  0  0.939454  0  0  0.119859  0  1.006421  0  0  0.123541  0  1.004237  0  0  0.109894  0.117196  0  1.008104  0
H  H15  1  0.86224537  0.36699997  0.68013336  1  0  0.114875  0  0.939609  0  0  0.119899  0  1.00646  0  0  0.123588  0  1.004257  0  0  0.109946  0.117235  0  1.008172  0
H  H16  1  0.59668349  0.79218761  0.41749974  1  0  0.130055  0  0.975154  0  0  0.125227  0  1.054471  0  0  0.130457  0  1.049286  0  0  0.114282  0.121516  0  1.058081  0
H  H17  1  0.09670598  0.20780215  0.58250461  1  0  0.13001  0  0.975232  0  0  0.12521  0  1.054535  0  0  0.130444  0  1.049342  0  0  0.114266  0.121515  0  1.058151  0
H  H18  1  0.06500080  0.88410657  0.25818857  1  0  0.125978  0  0.932119  0  0  0.132862  0  0.993315  0  0  0.137068  0  0.989993  0  0  0.117846  0.129696  0  0.996005  0
H  H19  1  0.56501093  0.11588452  0.74181476  1  0  0.125948  0  0.931998  0  0  0.132865  0  0.993207  0  0  0.137087  0  0.989862  0  0  0.117835  0.129693  0  0.995926  0
H  H20  1  0.83061722  0.72851476  0.16009184  1  0  0.116029  0  0.936957  0  0  0.127661  0  0.99297  0  0  0.131098  0  0.990903  0  0  0.12134  0.125138  0  0.994627  0
H  H21  1  0.33062341  0.27148010  0.83991272  1  0  0.115923  0  0.937083  0  0  0.127575  0  0.993024  0  0  0.131006  0  0.990976  0  0  0.121294  0.125052  0  0.994691  0
H  H22  1  0.33638128  0.15821055  0.31287598  1  0  0.11851  0  0.964257  0  0  0.12338  0  1.030643  0  0  0.127057  0  1.028381  0  0  0.111179  0.120645  0  1.032504  0
H  H23  1  0.83637147  0.84179090  0.68712529  1  0  0.118498  0  0.964282  0  0  0.123383  0  1.030692  0  0  0.127068  0  1.028419  0  0  0.111146  0.120647  0  1.032593  0
H  H24  1  0.47295436  0.21783933  0.44000675  1  0  0.140673  0  0.939637  0  0  0.142036  0  1.008993  0  0  0.146624  0  1.004799  0  0  0.120382  0.138815  0  1.011918  0
H  H25  1  0.97293653  0.78215416  0.55999262  1  0  0.140638  0  0.939717  0  0  0.142037  0  1.009032  0  0  0.146627  0  1.004829  0  0  0.120353  0.138813  0  1.011955  0
H  H26  1  0.07234724  0.39992239  0.36340418  1  0  0.12425  0  0.940501  0  0  0.131099  0  1.003242  0  0  0.134922  0  1.000625  0  0  0.116645  0.128232  0  1.00539  0
H  H27  1  0.57234068  0.60007795  0.63659069  1  0  0.124292  0  0.940467  0  0  0.131126  0  1.003229  0  0  0.13495  0  1.000614  0  0  0.116667  0.128267  0  1.00539  0
H  H28  1  0.94017157  0.33679893  0.23571457  1  0  0.124501  0  0.941499  0  0  0.133138  0  1.001709  0  0  0.136953  0  0.999405  0  0  0.112373  0.130367  0  1.003476  0
H  H29  1  0.44018025  0.66320382  0.76427948  1  0  0.124576  0  0.941508  0  0  0.133215  0  1.001691  0  0  0.137032  0  0.999384  0  0  0.112401  0.130429  0  1.00348  0
C  C30  1  0.58638660  0.66922519  0.23500332  1  0  -0.112637  0  3.731462  0  0  -0.091555  0  3.985637  0  0  -0.097747  0  4.008588  0  0  -0.01114  -0.087463  0  3.970263  0
C  C31  1  0.08639707  0.33076062  0.76500289  1  0  -0.112245  0  3.730865  0  0  -0.09136  0  3.985313  0  0  -0.097526  0  4.008246  0  0  -0.01103  -0.087266  0  3.969999  0
C  C32  1  0.51582303  0.68706245  0.30661831  1  0  -0.047311  0  3.718172  0  0  -0.07391  0  3.975846  0  0  -0.07501  0  3.996608  0  0  -0.076099  -0.073167  0  3.961799  0
C  C33  1  0.01584071  0.31291950  0.69338218  1  0  -0.047332  0  3.717988  0  0  -0.074036  0  3.975825  0  0  -0.075137  0  3.996562  0  0  -0.076175  -0.073291  0  3.96187  0
C  C34  1  0.64524009  0.77581840  0.36109049  1  0  -0.072913  0  3.677555  0  0  -0.097873  0  3.937123  0  0  -0.09911  0  3.955802  0  0  -0.06989  -0.096894  0  3.924913  0
C  C35  1  0.14525360  0.22417527  0.63891261  1  0  -0.072883  0  3.678  0  0  -0.097889  0  3.937601  0  0  -0.099123  0  3.956269  0  0  -0.069895  -0.096731  0  3.924687  0
C  C36  1  0.84204859  0.84168361  0.34212434  1  0  0.077358  0  3.700554  0  0  0.067202  0  3.948301  0  0  0.06513  0  3.972585  0  0  0.079869  0.064885  0  3.929806  0
C  C37  1  0.34206363  0.15830864  0.65787740  1  0  0.077239  0  3.700341  0  0  0.067286  0  3.948101  0  0  0.065225  0  3.972357  0  0  0.079881  0.068577  0  3.931662  0
C  C38  1  0.91202242  0.82777708  0.27067165  1  0  -0.07242  0  3.683243  0  0  -0.097398  0  3.94074  0  0  -0.097576  0  3.957927  0  0  -0.070026  -0.097388  0  3.930069  0
C  C39  1  0.41203505  0.17222169  0.72933010  1  0  -0.072245  0  3.682992  0  0  -0.097384  0  3.940562  0  0  -0.09756  0  3.957724  0  0  -0.069995  -0.09719  0  3.929187  0
C  C40  1  0.78141462  0.74065856  0.21638549  1  0  -0.033187  0  3.701196  0  0  -0.058788  0  3.955199  0  0  -0.058426  0  3.973018  0  0  -0.070256  -0.059122  0  3.943328  0
C  C41  1  0.28142017  0.25933369  0.78362042  1  0  -0.033444  0  3.701454  0  0  -0.05889  0  3.955465  0  0  -0.058537  0  3.973271  0  0  -0.070366  -0.059222  0  3.943657  0
C  C42  1  0.62872232  0.24491018  0.26762035  1  0  -0.11213  0  3.73103  0  0  -0.088369  0  3.979924  0  0  -0.094756  0  4.004045  0  0  -0.012962  -0.084229  0  3.963828  0
C  C43  1  0.12871178  0.75509799  0.73237780  1  0  -0.112316  0  3.731134  0  0  -0.088516  0  3.980035  0  0  -0.094893  0  4.004136  0  0  -0.012991  -0.084372  0  3.963947  0
C  C44  1  0.49579962  0.21316675  0.32426134  1  0  -0.053538  0  3.705292  0  0  -0.076311  0  3.954599  0  0  -0.077515  0  3.975139  0  0  -0.076579  -0.075409  0  3.940788  0
C  C45  1  0.99578624  0.78682936  0.67573824  1  0  -0.053453  0  3.705466  0  0  -0.076314  0  3.954805  0  0  -0.077527  0  3.975355  0  0  -0.076581  -0.075408  0  3.941039  0
C  C46  1  0.57124433  0.24659645  0.39522319  1  0  -0.066632  0  3.652591  0  0  -0.095614  0  3.913758  0  0  -0.095978  0  3.931195  0  0  -0.066411  -0.095244  0  3.90194  0
C  C47  1  0.07122280  0.75339598  0.60477650  1  0  -0.066577  0  3.652659  0  0  -0.095521  0  3.913773  0  0  -0.095882  0  3.931201  0  0  -0.066333  -0.095145  0  3.901962  0
C  C48  1  0.77897536  0.31182536  0.40695150  1  0  0.076627  0  3.690223  0  0  0.068383  0  3.94772  0  0  0.06706  0  3.969886  0  0  0.080909  0.069072  0  3.932886  0
C  C49  1  0.27895504  0.68817222  0.59304461  1  0  0.076634  0  3.690242  0  0  0.068365  0  3.947752  0  0  0.067037  0  3.969921  0  0  0.080931  0.069087  0  3.932842  0
C  C50  1  0.91222749  0.34715801  0.35083588  1  0  -0.08366  0  3.684269  0  0  -0.109592  0  3.941096  0  0  -0.110875  0  3.9602  0  0  -0.072885  -0.108583  0  3.928249  0
C  C51  1  0.41221082  0.65283293  0.64915841  1  0  -0.083656  0  3.68409  0  0  -0.109604  0  3.940998  0  0  -0.110882  0  3.960095  0  0  -0.072954  -0.108592  0  3.928159  0
C  C52  1  0.83675547  0.31257731  0.28004185  1  0  -0.045892  0  3.696602  0  0  -0.06935  0  3.94773  0  0  -0.070348  0  3.968497  0  0  -0.074264  -0.068648  0  3.933797  0
C  C53  1  0.33675415  0.68742022  0.71995648  1  0  -0.045933  0  3.696292  0  0  -0.069416  0  3.947496  0  0  -0.070417  0  3.968258  0  0  -0.074254  -0.068706  0  3.933595  0
S  S54  1  0.43110568  0.54912144  0.16446568  1  0  1.244383  0  5.465671  0  0  1.152269  0  5.969147  0  0  1.197157  0  5.952268  0  0  0.560261  1.121337  0  5.97987  0
S  S55  1  0.93112145  0.45087731  0.83553770  1  0  1.244468  0  5.465434  0  0  1.152437  0  5.96892  0  0  1.197321  0  5.95203  0  0  0.56032  1.121507  0  5.979651  0
S  S56  1  0.52844220  0.19198195  0.17752540  1  0  1.241127  0  5.442815  0  0  1.147572  0  5.953447  0  0  1.192221  0  5.937991  0  0  0.55899  1.116841  0  5.963047  0
S  S57  1  0.02844248  0.80802103  0.82247384  1  0  1.241386  0  5.442728  0  0  1.147795  0  5.953382  0  0  1.192441  0  5.937916  0  0  0.559029  1.117064  0  5.962996  0
N  N58  1  0.55653330  0.36570422  0.13932752  1  0  -0.809243  0  2.966956  0  0  -0.733781  0  3.253568  0  0  -0.758185  0  3.24671  0  0  -0.401777  -0.716533  0  3.257548  0
N  N59  1  0.05653806  0.63429744  0.86066901  1  0  -0.809285  0  2.966994  0  0  -0.733837  0  3.253623  0  0  -0.758241  0  3.246761  0  0  -0.401755  -0.716603  0  3.257623  0
N  N60  1  0.98121176  0.93056098  0.40018376  1  0  0.460989  0  3.953868  0  0  0.503416  0  4.235195  0  0  0.522963  0  4.24576  0  0  0.055818  0.503263  0  4.207517  0
N  N61  1  0.48124187  0.06943249  0.59981937  1  0  0.461402  0  3.953349  0  0  0.503427  0  4.235117  0  0  0.523006  0  4.245635  0  0  0.055929  0.490345  0  4.227858  0
N  N62  1  0.86672602  0.33576932  0.48087220  1  0  0.507441  0  3.883955  0  0  0.530241  0  4.189076  0  0  0.551891  0  4.1957  0  0  0.057647  0.515652  0  4.184543  0
N  N63  1  0.36671607  0.66423607  0.51912671  1  0  0.507274  0  3.884252  0  0  0.530066  0  4.189373  0  0  0.551722  0  4.195995  0  0  0.057558  0.515484  0  4.184859  0
O  O64  1  0.20234668  0.96178345  0.04635983  1  0  -0.924242  0  1.763133  0  0  -0.88212  0  1.925231  0  0  -0.897825  0  1.892709  0  0  -0.698332  -0.871036  0  1.948039  0
O  O65  1  0.70234907  0.03821547  0.95363998  1  0  -0.924215  0  1.763186  0  0  -0.882087  0  1.925307  0  0  -0.897789  0  1.892789  0  0  -0.698325  -0.871004  0  1.948117  0
O  O66  1  0.45403120  0.60258797  0.92753421  1  0  -0.8411  0  1.843438  0  0  -0.78995  0  2.013021  0  0  -0.807279  0  1.982336  0  0  -0.616031  -0.777731  0  2.03449  0
O  O67  1  0.95403070  0.39742525  0.07246483  1  0  -0.841128  0  1.843347  0  0  -0.79002  0  2.012896  0  0  -0.80735  0  1.982208  0  0  -0.616084  -0.777798  0  2.034371  0
O  O68  1  0.91319066  0.69903304  0.01637972  1  0  -0.852376  0  1.824408  0  0  -0.796547  0  1.994385  0  0  -0.815055  0  1.963758  0  0  -0.619564  -0.783416  0  2.015757  0
O  O69  1  0.41320652  0.30097103  0.98361705  1  0  -0.852382  0  1.824458  0  0  -0.796592  0  1.994379  0  0  -0.815103  0  1.963758  0  0  -0.619588  -0.783459  0  2.015753  0
O  O70  1  0.44496703  0.64175555  0.10303645  1  0  -0.641327  0  1.974965  0  0  -0.597588  0  2.231199  0  0  -0.617195  0  2.217359  0  0  -0.361692  -0.583762  0  2.240302  0
O  O71  1  0.94498305  0.35825109  0.89696427  1  0  -0.641295  0  1.975193  0  0  -0.597614  0  2.231523  0  0  -0.617218  0  2.217678  0  0  -0.361686  -0.583789  0  2.240625  0
O  O72  1  0.21748068  0.52392702  0.19323318  1  0  -0.625115  0  1.996271  0  0  -0.566639  0  2.237524  0  0  -0.5888  0  2.227685  0  0  -0.306848  -0.551085  0  2.243883  0
O  O73  1  0.71748662  0.47608503  0.80676645  1  0  -0.625223  0  1.995875  0  0  -0.566767  0  2.237156  0  0  -0.588936  0  2.227323  0  0  -0.306927  -0.551209  0  2.243513  0
O  O74  1  0.67022852  0.06293868  0.13679864  1  0  -0.616465  0  1.916896  0  0  -0.57318  0  2.16189  0  0  -0.593517  0  2.150714  0  0  -0.327527  -0.558749  0  2.169022  0
O  O75  1  0.17022335  0.93706291  0.86319647  1  0  -0.616534  0  1.917098  0  0  -0.573238  0  2.16207  0  0  -0.593581  0  2.150908  0  0  -0.327541  -0.558808  0  2.169207  0
O  O76  1  0.30422247  0.14180847  0.18417083  1  0  -0.61622  0  1.961516  0  0  -0.561625  0  2.19846  0  0  -0.582404  0  2.18621  0  0  -0.307068  -0.547018  0  2.206439  0
O  O77  1  0.80421408  0.85819959  0.81582815  1  0  -0.616378  0  1.961351  0  0  -0.561731  0  2.198261  0  0  -0.582504  0  2.186005  0  0  -0.307115  -0.547117  0  2.206236  0
O  O78  1  0.90985593  0.95372042  0.46273461  1  0  -0.320842  0  1.80372  0  0  -0.317722  0  2.026364  0  0  -0.328455  0  2.022639  0  0  -0.111612  -0.314913  0  2.022654  0
O  O79  1  0.40988047  0.04627438  0.53727169  1  0  -0.320952  0  1.80359  0  0  -0.317721  0  2.026403  0  0  -0.328453  0  2.022672  0  0  -0.111603  -0.310467  0  2.029  0
O  O80  1  0.16188090  0.97826865  0.38286558  1  0  -0.346164  0  1.806115  0  0  -0.33071  0  2.020736  0  0  -0.34402  0  2.019956  0  0  -0.119345  -0.326111  0  2.015003  0
O  O81  1  0.66191503  0.02173026  0.61713949  1  0  -0.346309  0  1.806014  0  0  -0.330641  0  2.020739  0  0  -0.344063  0  2.020056  0  0  -0.119398  -0.321606  0  2.021366  0
O  O82  1  0.74173039  0.33087409  0.53199325  1  0  -0.34567  0  1.780128  0  0  -0.32897  0  1.998776  0  0  -0.341964  0  1.996122  0  0  -0.119355  -0.320167  0  2.000698  0
O  O83  1  0.24172314  0.66913926  0.46800544  1  0  -0.345526  0  1.780351  0  0  -0.328834  0  1.999015  0  0  -0.341806  0  1.996313  0  0  -0.119267  -0.320035  0  2.001025  0
O  O84  1  0.06398206  0.35620162  0.48740154  1  0  -0.352471  0  1.800014  0  0  -0.33459  0  2.02181  0  0  -0.348025  0  2.018809  0  0  -0.117038  -0.325412  0  2.023943  0
O  O85  1  0.56397118  0.64378292  0.51260028  1  0  -0.352515  0  1.800107  0  0  -0.33455  0  2.021813  0  0  -0.347984  0  2.018803  0  0  -0.117044  -0.325377  0  2.023954  0
