# generated using pymatgen
data_Zn4H48C56Br4O13
_symmetry_space_group_name_H-M   'P 1'
_cell_length_a   23.62790561
_cell_length_b   23.63043556
_cell_length_c   23.62837569
_cell_angle_alpha   66.25599489
_cell_angle_beta   72.62878697
_cell_angle_gamma   107.38137183
_symmetry_Int_Tables_number   1
_chemical_formula_structural   Zn4H48C56Br4O13
_chemical_formula_sum   'Zn8 H96 C112 Br8 O26'
_cell_volume   10113.40128805
_cell_formula_units_Z   2
loop_
 _symmetry_equiv_pos_site_id
 _symmetry_equiv_pos_as_xyz
  1  'x, y, z'
loop_
 _atom_site_type_symbol
 _atom_site_label
 _atom_site_symmetry_multiplicity
 _atom_site_fract_x
 _atom_site_fract_y
 _atom_site_fract_z
 _atom_site_occupancy
 _atom_site_pbe_bader_charge
 _atom_site_pbe_bader_spin_density
 _atom_site_pbe_cm5_charge
 _atom_site_pbe_ddec_charge
 _atom_site_pbe_ddec_spin_density
 _atom_site_pbe_ddec_sum_bond_order
 _atom_site_pbe_magmom
Zn  Zn0  1  0.06006863  0.95976041  0.48831829  1  1.316361  0  0.67622  0.96486  0  2.359032  0
Zn  Zn1  1  0.06008366  0.10027741  0.45156504  1  1.315032  0  0.676329  0.965039  0  2.358612  0
Zn  Zn2  1  0.93987644  0.98825830  0.45982093  1  1.317238  0  0.676292  0.965053  0  2.358693  0
Zn  Zn3  1  0.93998887  0.95159877  0.60029002  1  1.315467  0  0.676435  0.965369  0  2.358475  0
Zn  Zn4  1  0.94807017  0.54835587  0.01175123  1  1.315839  0  0.676215  0.964949  0  2.358708  0
Zn  Zn5  1  0.05195810  0.51171708  0.04833917  1  1.316151  0  0.676218  0.965085  0  2.35835  0
Zn  Zn6  1  0.94816292  0.39966974  0.04030126  1  1.317879  0  0.67632  0.965346  0  2.358112  0
Zn  Zn7  1  0.05176721  0.54017956  0.89970346  1  1.317043  0  0.676375  0.964983  0  2.358502  0
H  H8  1  0.84879671  0.63681389  0.16495836  1  0.022697  0  0.085884  0.116501  0  1.033319  0
H  H9  1  0.86375974  0.57033213  0.15764215  1  0.061262  0  0.092699  0.135053  0  1.011388  0
H  H10  1  0.90095571  0.65419662  0.08161529  1  0.054546  0  0.092352  0.135157  0  0.995847  0
H  H11  1  0.15055038  0.66348781  0.13813379  1  0.025682  0  0.085896  0.11636  0  1.034555  0
H  H12  1  0.13616593  0.65705297  0.07103826  1  0.024527  0  0.092365  0.134124  0  1.009927  0
H  H13  1  0.09814288  0.58062077  0.15479359  1  0.086091  0  0.091764  0.134051  0  0.996759  0
H  H14  1  0.10695248  0.64719684  0.23860073  1  0.037499  0  0.094588  0.131298  0  0.990768  0
H  H15  1  0.08070652  0.70364852  0.25674477  1  0.030214  0  0.086999  0.120121  0  1.060539  0
H  H16  1  0.14918642  0.73872800  0.17425756  1  0.065831  0  0.094061  0.127725  0  0.986694  0
H  H17  1  0.89249750  0.73776024  0.14755879  1  0.034594  0  0.09477  0.131415  0  0.991869  0
H  H18  1  0.91981497  0.75732861  0.20278773  1  0.036593  0  0.087195  0.120674  0  1.060416  0
H  H19  1  0.85109141  0.67447118  0.23931902  1  0.057809  0  0.094077  0.127765  0  0.986756  0
H  H20  1  0.85684878  0.76802379  0.32444096  1  0.035743  0  0.094722  0.12886  0  0.984721  0
H  H21  1  0.92720709  0.82004842  0.23906822  1  0.042158  0  0.090531  0.12582  0  1.036277  0
H  H22  1  0.88905159  0.86059944  0.27445411  1  0.040281  0  0.09388  0.130122  0  1.001798  0
H  H23  1  0.14315857  0.82465634  0.26735142  1  0.064416  0  0.094745  0.12873  0  0.985989  0
H  H24  1  0.07281406  0.73921672  0.32012483  1  0.04488  0  0.090545  0.125649  0  1.035345  0
H  H25  1  0.11158793  0.77532107  0.35987107  1  0.040832  0  0.094079  0.130358  0  1.001511  0
H  H26  1  0.09632743  0.83786645  0.42917163  1  0.04516  0  0.08878  0.130095  0  0.999106  0
H  H27  1  0.12368527  0.92735463  0.37080572  1  0.018727  0  0.091923  0.131242  0  1.020229  0
H  H28  1  0.15368635  0.88066495  0.33836231  1  0.01628  0  0.089181  0.12236  0  1.010616  0
H  H29  1  0.90404437  0.92966571  0.33745036  1  0.044112  0  0.088604  0.130138  0  1.000328  0
H  H30  1  0.87646890  0.87112237  0.42694820  1  0.023763  0  0.092051  0.131581  0  1.02005  0
H  H31  1  0.84661483  0.83892081  0.38002725  1  0.037898  0  0.08926  0.122504  0  1.01157  0
H  H32  1  0.15153892  0.48570527  0.71252066  1  0.039041  0  0.08589  0.116261  0  1.032805  0
H  H33  1  0.13586761  0.47848559  0.79389284  1  0.061374  0  0.09241  0.134256  0  1.012222  0
H  H34  1  0.09928249  0.51732256  0.74630695  1  0.056703  0  0.092349  0.13515  0  0.994745  0
H  H35  1  0.84910551  0.21161525  0.98673351  1  0.008776  0  0.085806  0.11611  0  1.034098  0
H  H36  1  0.86408440  0.29302439  0.97917954  1  0.046853  0  0.09241  0.133944  0  1.010186  0
H  H37  1  0.90160836  0.24651266  0.01756769  1  0.080823  0  0.092133  0.134513  0  0.996604  0
H  H38  1  0.89289004  0.15439494  0.95984413  1  0.039246  0  0.094542  0.131121  0  0.991539  0
H  H39  1  0.91927371  0.16240635  0.87717676  1  0.038532  0  0.087206  0.120407  0  1.06035  0
H  H40  1  0.85079824  0.17650137  0.91036374  1  0.046879  0  0.094211  0.127923  0  0.986884  0
H  H41  1  0.10768584  0.45987836  0.65486405  1  0.030829  0  0.094728  0.131316  0  0.99117  0
H  H42  1  0.08026235  0.37740063  0.66246828  1  0.048269  0  0.08723  0.120655  0  1.059986  0
H  H43  1  0.14893943  0.40935013  0.67674826  1  0.045406  0  0.093883  0.12764  0  0.986593  0
H  H44  1  0.14309644  0.31867924  0.58882228  1  0.033743  0  0.094717  0.128772  0  0.984611  0
H  H45  1  0.07272618  0.33367606  0.60716278  1  0.042652  0  0.090397  0.125592  0  1.036671  0
H  H46  1  0.11089121  0.33648165  0.52843910  1  0.042576  0  0.093991  0.13028  0  1.002011  0
H  H47  1  0.85682060  0.08953719  0.81840353  1  0.044576  0  0.094724  0.128487  0  0.985948  0
H  H48  1  0.92712901  0.10697954  0.83357872  1  0.038934  0  0.090485  0.12548  0  1.035655  0
H  H49  1  0.88830572  0.02850785  0.83619454  1  0.042345  0  0.094105  0.130108  0  1.001932  0
H  H50  1  0.90356639  0.97450803  0.75840927  1  0.048676  0  0.088388  0.129455  0  0.998802  0
H  H51  1  0.87632906  0.00557197  0.69617097  1  0.049472  0  0.091955  0.131255  0  1.020483  0
H  H52  1  0.84625314  0.00802792  0.77284830  1  0.033801  0  0.0892  0.12224  0  1.010675  0
H  H53  1  0.09585864  0.25855578  0.47432550  1  0.038615  0  0.088632  0.13012  0  1.000746  0
H  H54  1  0.12347820  0.19664499  0.50521424  1  0.05526  0  0.091922  0.131443  0  1.020103  0
H  H55  1  0.15333033  0.27338920  0.50761652  1  0.04092  0  0.089223  0.122059  0  1.01172  0
H  H56  1  0.76718511  0.52559499  0.07036971  1  0.051143  0  0.088613  0.130169  0  1.000135  0
H  H57  1  0.79816319  0.49459501  0.12889415  1  0.047719  0  0.091849  0.131248  0  1.02023  0
H  H58  1  0.71905022  0.49225330  0.16113018  1  -0.001409  0  0.089221  0.122453  0  1.010711  0
H  H59  1  0.76698640  0.24144169  0.16227706  1  0.048241  0  0.088711  0.130176  0  0.99912  0
H  H60  1  0.79816308  0.30355616  0.07277114  1  0.053253  0  0.091862  0.131322  0  1.020804  0
H  H61  1  0.71900336  0.22689136  0.11944015  1  0.035069  0  0.089235  0.122624  0  1.010699  0
H  H62  1  0.59212207  0.18150139  0.17526362  1  0.047361  0  0.094701  0.12854  0  0.985557  0
H  H63  1  0.55927032  0.16640230  0.26069869  1  0.026314  0  0.090268  0.125478  0  1.035583  0
H  H64  1  0.63512618  0.16368412  0.22480165  1  0.040274  0  0.094075  0.130262  0  1.001397  0
H  H65  1  0.59237343  0.41102791  0.23201473  1  0.031519  0  0.094779  0.128973  0  0.984808  0
H  H66  1  0.55926469  0.39294772  0.17972547  1  0.04588  0  0.090404  0.125645  0  1.036142  0
H  H67  1  0.63518739  0.47157485  0.13944631  1  0.050096  0  0.093706  0.130156  0  1.002073  0
H  H68  1  0.38539898  0.34536927  0.26214396  1  0.036692  0  0.09473  0.131413  0  0.991753  0
H  H69  1  0.46018244  0.33760430  0.24272291  1  0.055569  0  0.087186  0.120706  0  1.060601  0
H  H70  1  0.41373028  0.32345033  0.32555020  1  0.050813  0  0.094198  0.128071  0  0.986802  0
H  H71  1  0.38571420  0.04032999  0.35259582  1  0.069331  0  0.094622  0.131402  0  0.991024  0
H  H72  1  0.46035960  0.12299519  0.29633447  1  0.034613  0  0.087111  0.120386  0  1.060541  0
H  H73  1  0.41309897  0.08981213  0.26102728  1  0.052727  0  0.09417  0.127945  0  0.986522  0
H  H74  1  0.30163613  0.01334418  0.33589374  1  0.008402  0  0.085874  0.116474  0  1.034019  0
H  H75  1  0.22794292  0.02111134  0.34284543  1  0.054693  0  0.09275  0.134597  0  1.010039  0
H  H76  1  0.23565284  0.98260414  0.41901722  1  0.056728  0  0.091974  0.134595  0  0.996555  0
H  H77  1  0.30178270  0.28798272  0.36333984  1  0.033052  0  0.085963  0.116545  0  1.033037  0
H  H78  1  0.22787130  0.20655770  0.42959760  1  0.075105  0  0.092473  0.134682  0  1.011283  0
H  H79  1  0.23599650  0.25347606  0.34562434  1  0.058385  0  0.092382  0.135082  0  0.995985  0
H  H80  1  0.23288469  0.57079194  0.02547524  1  0.054189  0  0.088827  0.130067  0  0.999225  0
H  H81  1  0.20176365  0.62916376  0.99446077  1  0.049436  0  0.092012  0.131577  0  1.020407  0
H  H82  1  0.28088974  0.66159274  0.99205519  1  0.03111  0  0.089271  0.122563  0  1.010835  0
H  H83  1  0.23292176  0.66261551  0.74139416  1  0.045263  0  0.088644  0.130259  0  1.000474  0
H  H84  1  0.20191007  0.57309341  0.80331988  1  0.05717  0  0.091938  0.131361  0  1.02027  0
H  H85  1  0.28107116  0.62000087  0.72658621  1  0.037064  0  0.089465  0.122643  0  1.011823  0
H  H86  1  0.40756292  0.67558171  0.68131173  1  0.029966  0  0.094799  0.12901  0  0.984468  0
H  H87  1  0.44085828  0.76095257  0.66630602  1  0.03475  0  0.090458  0.125724  0  1.036434  0
H  H88  1  0.36494034  0.72553134  0.66350281  1  0.04169  0  0.093875  0.130204  0  1.001867  0
H  H89  1  0.40773916  0.73257169  0.91070518  1  0.04589  0  0.094598  0.128456  0  0.985384  0
H  H90  1  0.44066541  0.68006253  0.89289862  1  0.046676  0  0.090404  0.125321  0  1.035917  0
H  H91  1  0.36477078  0.64002608  0.97146948  1  0.051009  0  0.094021  0.130041  0  1.001448  0
H  H92  1  0.61434589  0.76148793  0.84556605  1  0.039705  0  0.094485  0.131187  0  0.991807  0
H  H93  1  0.53967567  0.74300049  0.83757680  1  0.055943  0  0.087063  0.120365  0  1.060329  0
H  H94  1  0.58683877  0.82557076  0.82352654  1  0.049649  0  0.09391  0.127258  0  0.986871  0
H  H95  1  0.61468923  0.85233662  0.54011258  1  0.043908  0  0.094668  0.131333  0  0.991994  0
H  H96  1  0.53986002  0.79717660  0.62262284  1  0.029475  0  0.087345  0.120856  0  1.060418  0
H  H97  1  0.58613676  0.76056532  0.59051666  1  0.052922  0  0.093899  0.127896  0  0.986614  0
H  H98  1  0.69820713  0.83464416  0.51400960  1  0.031146  0  0.085958  0.116644  0  1.032745  0
H  H99  1  0.77214792  0.84243259  0.52149392  1  0.059149  0  0.092627  0.134863  0  1.011927  0
H  H100  1  0.76394566  0.91821065  0.48264288  1  0.067202  0  0.092234  0.13508  0  0.995225  0
H  H101  1  0.69840186  0.86222355  0.78851211  1  0.035911  0  0.085794  0.116263  0  1.034534  0
H  H102  1  0.77209474  0.92894744  0.70706911  1  0.072133  0  0.0925  0.133837  0  1.010721  0
H  H103  1  0.76435513  0.84505764  0.75323807  1  0.061787  0  0.091792  0.134269  0  0.99651  0
C  C104  1  0.18656415  0.09333436  0.40677841  1  1.518331  0  0.228671  0.615709  0  4.113503  0
C  C105  1  0.99991059  0.13637768  0.36349901  1  1.608801  0  0.219479  0.618857  0  4.150665  0
C  C106  1  0.00006262  0.91347753  0.41330118  1  1.509956  0  0.226614  0.621387  0  4.12017  0
C  C107  1  0.81343808  0.90656903  0.59334727  1  1.522425  0  0.228641  0.615555  0  4.114047  0
C  C108  1  0.00016026  0.86355296  0.63645213  1  1.609459  0  0.219417  0.618206  0  4.150056  0
C  C109  1  0.99994454  0.08664174  0.58651849  1  1.504802  0  0.226391  0.621165  0  4.119573  0
C  C110  1  0.99990560  0.59314671  0.09336795  1  1.497872  0  0.227868  0.614484  0  4.114896  0
C  C111  1  0.00012777  0.36363217  0.13663556  1  1.599876  0  0.219287  0.618241  0  4.151607  0
C  C112  1  0.82681249  0.41336991  0.08649796  1  1.489363  0  0.226545  0.620934  0  4.120188  0
C  C113  1  0.00002714  0.40662296  0.90675494  1  1.519559  0  0.229024  0.615953  0  4.114275  0
C  C114  1  0.99988077  0.63655918  0.86364375  1  1.601708  0  0.218951  0.617458  0  4.152958  0
C  C115  1  0.17317914  0.58661324  0.91331763  1  1.491576  0  0.226281  0.621015  0  4.120914  0
C  C116  1  0.00014427  0.80512056  0.69498100  1  0.078924  0  -0.015453  -0.089939  0  3.895662  0
C  C117  1  0.99998187  0.69507459  0.80511544  1  0.1074  0  -0.015215  -0.089134  0  3.896078  0
C  C118  1  0.95831496  0.77885172  0.76615394  1  -0.009187  0  -0.013165  0.050571  0  3.911868  0
C  C119  1  0.04510671  0.72463301  0.73395787  1  -0.032574  0  -0.013536  0.050113  0  3.912585  0
C  C120  1  0.95493480  0.72124470  0.82049093  1  -0.056699  0  -0.013345  0.050599  0  3.912175  0
C  C121  1  0.04190323  0.77565506  0.67960208  1  -0.046477  0  -0.012678  0.051341  0  3.911889  0
C  C122  1  0.99994233  0.19491966  0.30507573  1  0.079835  0  -0.014969  -0.089326  0  3.89649  0
C  C123  1  0.00000575  0.30508267  0.19516344  1  0.073927  0  -0.015791  -0.090742  0  3.897323  0
C  C124  1  0.95839826  0.17957001  0.27538322  1  -0.04693  0  -0.013662  0.050032  0  3.912508  0
C  C125  1  0.04484366  0.32043744  0.22156263  1  -0.058817  0  -0.012796  0.050994  0  3.912456  0
C  C126  1  0.95512494  0.23392091  0.22444824  1  -0.0001  0  -0.013024  0.051088  0  3.912278  0
C  C127  1  0.04151745  0.26606702  0.27910083  1  -0.009709  0  -0.013437  0.050377  0  3.912917  0
C  C128  1  0.99989244  0.63098592  0.13135104  1  0.02107  0  -0.020375  -0.171206  0  3.881563  0
C  C129  1  0.94742840  0.64893319  0.14933799  1  -0.032904  0  -7.2e-05  0.106645  0  3.901978  0
C  C130  1  0.95019771  0.68828897  0.18090428  1  -0.016789  0  -0.007254  0.062142  0  3.907603  0
C  C131  1  0.00002776  0.70226092  0.20231424  1  0.160173  0  -0.002457  0.025656  0  4.076161  0
C  C132  1  0.04977269  0.68072566  0.18845583  1  -0.012624  0  -0.007386  0.061815  0  3.909526  0
C  C133  1  0.05236161  0.64890793  0.14932927  1  -0.027557  0  -3.9e-05  0.105795  0  3.903846  0
C  C134  1  0.00006474  0.73825607  0.23815846  1  -0.17805  0  -0.03593  -0.087876  0  4.108255  0
C  C135  1  0.00006490  0.76927912  0.26904562  1  -0.201215  0  -0.035536  -0.087439  0  4.110376  0
C  C136  1  0.00009253  0.80521335  0.30487802  1  0.001747  0  -0.003463  0.022534  0  4.083044  0
C  C137  1  0.95165050  0.82877340  0.31664427  1  0.011262  0  -0.006859  0.062318  0  3.917264  0
C  C138  1  0.94924677  0.86075441  0.35547695  1  0.0266  0  -0.00277  0.102051  0  3.924235  0
C  C139  1  0.00009610  0.87581214  0.37550798  1  0.018331  0  -0.021599  -0.16408  0  3.9203  0
C  C140  1  0.05098592  0.85586072  0.36037228  1  0.035763  0  -0.002675  0.101975  0  3.925636  0
C  C141  1  0.04857979  0.81703743  0.32838241  1  0.011505  0  -0.007298  0.061953  0  3.917246  0
C  C142  1  0.00006180  0.36864028  0.86891871  1  -0.102897  0  -0.020724  -0.172184  0  3.882715  0
C  C143  1  0.05257155  0.40307692  0.79855872  1  0.051033  0  0.000121  0.106869  0  3.902031  0
C  C144  1  0.04983408  0.36875452  0.76196512  1  0.047602  0  -0.007865  0.061027  0  3.907429  0
C  C145  1  0.99996841  0.29754328  0.79779020  1  0.083993  0  -0.002361  0.026994  0  4.075523  0
C  C146  1  0.95019360  0.26167572  0.86905469  1  0.046547  0  -0.007202  0.061481  0  3.908578  0
C  C147  1  0.94759269  0.29822788  0.90344553  1  0.020882  0  5e-05  0.106214  0  3.90382  0
C  C148  1  0.99993988  0.26168828  0.76181811  1  -0.178845  0  -0.035571  -0.087881  0  4.109126  0
C  C149  1  0.99991910  0.23080956  0.73078601  1  -0.201428  0  -0.036018  -0.087751  0  4.111371  0
C  C150  1  0.99987791  0.19499020  0.69485048  1  -0.037931  0  -0.003799  0.021617  0  4.083991  0
C  C151  1  0.04830235  0.23168771  0.62283743  1  0.0441  0  -0.006592  0.062601  0  3.915844  0
C  C152  1  0.05071744  0.19528375  0.58842422  1  0.066686  0  -0.003063  0.102024  0  3.923805  0
C  C153  1  0.99989701  0.12440148  0.62421435  1  -0.009859  0  -0.021602  -0.164366  0  3.920091  0
C  C154  1  0.94900037  0.08864804  0.69503936  1  -0.0025  0  -0.002903  0.102002  0  3.926529  0
C  C155  1  0.95139551  0.12301481  0.73148700  1  0.02154  0  -0.006915  0.062383  0  3.917621  0
C  C156  1  0.75135157  0.37567265  0.12421148  1  0.009461  0  -0.021773  -0.164361  0  3.920555  0
C  C157  1  0.71628681  0.41147440  0.13926218  1  0.059994  0  -0.0026  0.101827  0  3.923952  0
C  C158  1  0.64547351  0.37710913  0.17120960  1  0.003087  0  -0.006704  0.064025  0  3.915087  0
C  C159  1  0.61012255  0.30511198  0.19476679  1  -0.027579  0  -0.003516  0.0219  0  4.083425  0
C  C160  1  0.64543335  0.26843245  0.18297747  1  -0.025258  0  -0.007118  0.062078  0  3.916901  0
C  C161  1  0.71625153  0.30482723  0.14418861  1  0.068549  0  -0.002917  0.101967  0  3.925736  0
C  C162  1  0.53836380  0.26924120  0.23066524  1  -0.132447  0  -0.03603  -0.088313  0  4.111055  0
C  C163  1  0.47644402  0.23829690  0.26164789  1  -0.246603  0  -0.035554  -0.087562  0  4.107822  0
C  C164  1  0.40461177  0.20236277  0.29763559  1  0.146996  0  -0.002552  0.026652  0  4.074548  0
C  C165  1  0.36923194  0.23820208  0.31164905  1  0.003141  0  -0.006953  0.062075  0  3.908697  0
C  C166  1  0.29830959  0.20160324  0.35100519  1  -0.023328  0  -4.6e-05  0.106539  0  3.903344  0
C  C167  1  0.26238081  0.13120468  0.36892410  1  -0.001936  0  -0.020541  -0.171492  0  3.881569  0
C  C168  1  0.29827392  0.09671281  0.35090788  1  -0.020546  0  -6e-06  0.105864  0  3.902769  0
C  C169  1  0.36921298  0.13110256  0.31912114  1  0.004609  0  -0.007209  0.062524  0  3.906387  0
C  C170  1  0.24863320  0.62446707  0.87556823  1  0.020438  0  -0.021696  -0.164715  0  3.919261  0
C  C171  1  0.28369870  0.63960226  0.91134761  1  0.051421  0  -0.002819  0.102941  0  3.923614  0
C  C172  1  0.35451782  0.67160053  0.87698306  1  -0.014237  0  -0.006839  0.062978  0  3.915269  0
C  C173  1  0.38986906  0.69510414  0.80500196  1  -0.021736  0  -0.003644  0.021681  0  4.083493  0
C  C174  1  0.35455331  0.68335684  0.76829874  1  -0.018862  0  -0.006702  0.062718  0  3.916845  0
C  C175  1  0.28374047  0.64452180  0.80469012  1  0.066647  0  -0.003078  0.101868  0  3.924466  0
C  C176  1  0.46162893  0.73091202  0.76917060  1  -0.12774  0  -0.03586  -0.087853  0  4.111362  0
C  C177  1  0.52354989  0.76177598  0.73828441  1  -0.251071  0  -0.035804  -0.088088  0  4.108314  0
C  C178  1  0.59538167  0.79759906  0.70241438  1  0.145597  0  -0.002653  0.026519  0  4.074808  0
C  C179  1  0.63078961  0.81146774  0.73829329  1  0.005051  0  -0.007121  0.061009  0  3.909964  0
C  C180  1  0.70173254  0.85063109  0.70174029  1  -0.02042  0  -0.000403  0.10591  0  3.90479  0
C  C181  1  0.73762019  0.86859429  0.63131430  1  -0.001863  0  -0.020361  -0.171752  0  3.882427  0
C  C182  1  0.70168007  0.85057898  0.59685175  1  -0.018502  0  -1.2e-05  0.106777  0  3.901187  0
C  C183  1  0.63075696  0.81899776  0.63118438  1  0.008458  0  -0.007344  0.062565  0  3.905681  0
C  C184  1  0.88709874  0.62666184  0.13774760  1  -0.054792  0  -0.246306  -0.405808  0  3.981418  0
C  C185  1  0.11243973  0.63686602  0.12743254  1  -0.053787  0  -0.245243  -0.402624  0  3.979167  0
C  C186  1  0.09926092  0.69308637  0.21581520  1  -0.064278  0  -0.239545  -0.401355  0  3.989957  0
C  C187  1  0.90079077  0.71575789  0.19314352  1  -0.060104  0  -0.239917  -0.402226  0  3.991681  0
C  C188  1  0.90360003  0.81897491  0.28732988  1  -0.063616  0  -0.237984  -0.40068  0  3.992125  0
C  C189  1  0.09664035  0.78774674  0.31854172  1  -0.094153  0  -0.237903  -0.400101  0  3.991501  0
C  C190  1  0.10917704  0.87656347  0.37537631  1  -0.01412  0  -0.243764  -0.403033  0  3.977531  0
C  C191  1  0.89107888  0.87580222  0.37610695  1  -0.04069  0  -0.243986  -0.403555  0  3.978591  0
C  C192  1  0.11295389  0.47492656  0.76059835  1  -0.073108  0  -0.245902  -0.404705  0  3.979962  0
C  C193  1  0.88746335  0.26011727  0.97550730  1  -0.062176  0  -0.245588  -0.402943  0  3.979962  0
C  C194  1  0.90068346  0.18483608  0.90620797  1  -0.078048  0  -0.239981  -0.401714  0  3.990993  0
C  C195  1  0.09929005  0.40595856  0.68510354  1  -0.078432  0  -0.239585  -0.401643  0  3.989975  0
C  C196  1  0.09634509  0.30904707  0.58460934  1  -0.066853  0  -0.238027  -0.400566  0  3.991996  0
C  C197  1  0.90330619  0.08479203  0.80883303  1  -0.073208  0  -0.237907  -0.399446  0  3.991724  0
C  C198  1  0.89078404  0.01549410  0.73249043  1  -0.043203  0  -0.243322  -0.402058  0  3.977224  0
C  C199  1  0.10886143  0.23285412  0.51518397  1  -0.0641  0  -0.243828  -0.402865  0  3.97832  0
C  C200  1  0.75199366  0.48468181  0.12422203  1  -0.032283  0  -0.243745  -0.403219  0  3.977443  0
C  C201  1  0.75192416  0.26729476  0.12354523  1  -0.064331  0  -0.243784  -0.403624  0  3.978401  0
C  C202  1  0.60627969  0.19108642  0.21225004  1  -0.05564  0  -0.237565  -0.399503  0  3.990611  0
C  C203  1  0.60637031  0.41537568  0.18098357  1  -0.073604  0  -0.237882  -0.401221  0  3.991747  0
C  C204  1  0.40893649  0.31506135  0.28422005  1  -0.075581  0  -0.240151  -0.402864  0  3.992614  0
C  C205  1  0.40890807  0.09396048  0.30675563  1  -0.095392  0  -0.239894  -0.402485  0  3.989444  0
C  C206  1  0.26432763  0.02466376  0.36281289  1  -0.041139  0  -0.24592  -0.404253  0  3.979471  0
C  C207  1  0.26443879  0.23962680  0.37330555  1  -0.082975  0  -0.246256  -0.405364  0  3.98168  0
C  C208  1  0.24798596  0.62459031  0.98453770  1  -0.064598  0  -0.243926  -0.404006  0  3.978057  0
C  C209  1  0.24808646  0.62392188  0.76711519  1  -0.069597  0  -0.243997  -0.403523  0  3.97932  0
C  C210  1  0.39368907  0.71268109  0.69094257  1  -0.049622  0  -0.238048  -0.400971  0  3.991981  0
C  C211  1  0.39362804  0.68145679  0.91523193  1  -0.087312  0  -0.237723  -0.399446  0  3.989781  0
C  C212  1  0.59111000  0.78407410  0.81514818  1  -0.07937  0  -0.239313  -0.400676  0  3.991119  0
C  C213  1  0.59105970  0.80676705  0.59399802  1  -0.069181  0  -0.23963  -0.402556  0  3.991651  0
C  C214  1  0.73554451  0.86210957  0.52496959  1  -0.076978  0  -0.246164  -0.405877  0  3.980613  0
C  C215  1  0.73568803  0.87261018  0.73987388  1  -0.093732  0  -0.245197  -0.402522  0  3.980281  0
Br  Br216  1  0.90888586  0.82304716  0.79084104  1  0.000115  0  0.045322  -0.028504  0  1.540916  0
Br  Br217  1  0.11414688  0.70005515  0.70936810  1  -0.003554  0  0.045461  -0.02847  0  1.540751  0
Br  Br218  1  0.88574582  0.67685353  0.91400919  1  -0.002686  0  0.045221  -0.028736  0  1.540006  0
Br  Br219  1  0.09143825  0.80029445  0.58602923  1  -0.002995  0  0.045225  -0.028745  0  1.539968  0
Br  Br220  1  0.90929488  0.08606801  0.29964998  1  -0.003643  0  0.04527  -0.028573  0  1.539715  0
Br  Br221  1  0.11376558  0.41398482  0.17759890  1  -0.000467  0  0.045338  -0.028418  0  1.540136  0
Br  Br222  1  0.88622945  0.20925507  0.19969354  1  -0.001046  0  0.045437  -0.028382  0  1.540392  0
Br  Br223  1  0.09065622  0.29059527  0.32360034  1  -0.000412  0  0.045502  -0.028471  0  1.54188  0
O  O224  1  0.00000200  0.99997889  0.49999067  1  -1.234998  0  -0.585817  -1.032924  0  2.589314  0
O  O225  1  0.15570270  0.02874445  0.42619535  1  -1.175353  0  -0.311883  -0.544126  0  2.397171  0
O  O226  1  0.05649839  0.14628074  0.36170006  1  -1.156976  0  -0.313282  -0.540007  0  2.350222  0
O  O227  1  0.97893024  0.95882848  0.39786090  1  -1.170745  0  -0.317414  -0.553115  0  2.348931  0
O  O228  1  0.15574463  0.12714298  0.41809054  1  -1.172515  0  -0.311899  -0.543641  0  2.396171  0
O  O229  1  0.02113643  0.89792644  0.45871299  1  -1.172633  0  -0.318136  -0.553417  0  2.347747  0
O  O230  1  0.94330748  0.08158819  0.41011369  1  -1.166835  0  -0.313154  -0.53963  0  2.349026  0
O  O231  1  0.84423606  0.92609346  0.52871272  1  -1.176385  0  -0.311751  -0.543457  0  2.396545  0
O  O232  1  0.94356879  0.86175690  0.64637544  1  -1.156201  0  -0.313  -0.53952  0  2.351284  0
O  O233  1  0.84432121  0.91798164  0.62707883  1  -1.17363  0  -0.312115  -0.544246  0  2.39657  0
O  O234  1  0.05673557  0.91017379  0.58162526  1  -1.167429  0  -0.313312  -0.53966  0  2.34949  0
O  O235  1  0.02101198  0.12318189  0.52004633  1  -1.171027  0  -0.317342  -0.553068  0  2.348724  0
O  O236  1  0.97891526  0.02017068  0.62315117  1  -1.169339  0  -0.318009  -0.55349  0  2.348035  0
O  O237  1  0.99998832  0.49998573  0.00000540  1  -1.233359  0  -0.585619  -1.032736  0  2.588716  0
O  O238  1  0.95442792  0.58131053  0.07437657  1  -1.170671  0  -0.311721  -0.543443  0  2.396603  0
O  O239  1  0.00838133  0.41848582  0.13834791  1  -1.156055  0  -0.312861  -0.539289  0  2.34916  0
O  O240  1  0.85668844  0.37677007  0.10203831  1  -1.16367  0  -0.317772  -0.553093  0  2.348453  0
O  O241  1  0.04540864  0.57422975  0.08140186  1  -1.17276  0  -0.311508  -0.543661  0  2.397025  0
O  O242  1  0.85671269  0.47984584  0.04110352  1  -1.173034  0  -0.317591  -0.553119  0  2.34874  0
O  O243  1  0.99198978  0.35369832  0.08997897  1  -1.158483  0  -0.31318  -0.539891  0  2.353203  0
O  O244  1  0.95530343  0.37267337  0.97155772  1  -1.182348  0  -0.311833  -0.543786  0  2.396486  0
O  O245  1  0.00798745  0.58990114  0.85370292  1  -1.159021  0  -0.312806  -0.539145  0  2.352485  0
O  O246  1  0.04469807  0.47147252  0.87268235  1  -1.18306  0  -0.311906  -0.54358  0  2.396364  0
O  O247  1  0.99169116  0.63832295  0.91846480  1  -1.157453  0  -0.313088  -0.539415  0  2.348729  0
O  O248  1  0.14334429  0.54121135  0.97978418  1  -1.172514  0  -0.317747  -0.553289  0  2.348591  0
O  O249  1  0.14323429  0.60201361  0.87675543  1  -1.165303  0  -0.317476  -0.553046  0  2.348995  0
