# generated using pymatgen
data_CdH14C18N2O7
_symmetry_space_group_name_H-M   'P 1'
_cell_length_a   8.24896508
_cell_length_b   9.46236870
_cell_length_c   13.02138414
_cell_angle_alpha   93.49340756
_cell_angle_beta   104.62208641
_cell_angle_gamma   110.21499158
_symmetry_Int_Tables_number   1
_chemical_formula_structural   CdH14C18N2O7
_chemical_formula_sum   'Cd2 H28 C36 N4 O14'
_cell_volume   910.51445086
_cell_formula_units_Z   2
loop_
 _symmetry_equiv_pos_site_id
 _symmetry_equiv_pos_as_xyz
  1  'x, y, z'
loop_
 _atom_site_type_symbol
 _atom_site_label
 _atom_site_symmetry_multiplicity
 _atom_site_fract_x
 _atom_site_fract_y
 _atom_site_fract_z
 _atom_site_occupancy
 _atom_site_pbe_bader_spin_density
 _atom_site_pbe_cm5_charge
 _atom_site_pbe_ddec_charge
 _atom_site_pbe_ddec_spin_density
 _atom_site_pbe_ddec_sum_bond_order
 _atom_site_pbe_magmom
Cd  Cd0  1  0.38456294  0.61581427  0.18727065  1  0  0.771925  0.902638  0  2.092987  0
Cd  Cd1  1  0.61543482  0.38418578  0.81272868  1  0  0.771977  0.902743  0  2.092905  0
H  H2  1  0.69999003  0.97102743  0.20465511  1  0  0.119589  0.095491  0  1.027942  0
H  H3  1  0.30002598  0.02896520  0.79534513  1  0  0.119592  0.095506  0  1.027973  0
H  H4  1  0.90610137  0.19966112  0.34129146  1  0  0.112789  0.11699  0  1.002523  0
H  H5  1  0.09390872  0.80034155  0.65870687  1  0  0.112807  0.116982  0  1.002596  0
H  H6  1  0.90904076  0.19457385  0.53640490  1  0  0.109151  0.108532  0  0.992206  0
H  H7  1  0.09095142  0.80543400  0.46359168  1  0  0.109179  0.108565  0  0.992161  0
H  H8  1  0.78528219  0.05581814  0.67302023  1  0  0.102901  0.122119  0  1.029168  0
H  H9  1  0.21471398  0.94418415  0.32697743  1  0  0.10289  0.122101  0  1.029174  0
H  H10  1  0.56759412  0.82634281  0.71433414  1  0  0.106363  0.120985  0  1.067298  0
H  H11  1  0.43240870  0.17365740  0.28566368  1  0  0.106374  0.121031  0  1.067284  0
H  H12  1  0.32711491  0.56935935  0.65437748  1  0  0.117424  0.130037  0  0.980214  0
H  H13  1  0.67290217  0.43063895  0.34562401  1  0  0.117417  0.130066  0  0.980093  0
H  H14  1  0.12125413  0.35733742  0.50171103  1  0  0.103112  0.101403  0  1.041115  0
H  H15  1  0.87876142  0.64265395  0.49829522  1  0  0.103106  0.101381  0  1.041155  0
H  H16  1  0.15155430  0.38211630  0.31458785  1  0  0.120358  0.098938  0  1.01247  0
H  H17  1  0.84844825  0.61787704  0.68541416  1  0  0.12035  0.098962  0  1.012476  0
H  H18  1  0.12836857  0.15363290  0.91799135  1  0  0.101188  0.08492  0  1.010197  0
H  H19  1  0.87162304  0.84636135  0.08200593  1  0  0.10121  0.084998  0  1.010197  0
H  H20  1  0.87958862  0.12987455  0.05996425  1  0  0.107364  0.106545  0  0.967529  0
H  H21  1  0.12040853  0.87012085  0.94004010  1  0  0.107354  0.106514  0  0.967583  0
H  H22  1  0.18493093  0.08115590  0.14724046  1  0  0.106626  0.100058  0  0.982089  0
H  H23  1  0.81506129  0.91884281  0.85276100  1  0  0.106649  0.100113  0  0.982089  0
H  H24  1  0.54597533  0.16270918  0.97310543  1  0  0.306223  0.369344  0  0.971933  0
H  H25  1  0.45402089  0.83728407  0.02689175  1  0  0.306218  0.369345  0  0.971963  0
H  H26  1  0.67253186  0.58401039  0.10775255  1  0  0.287093  0.39944  0  0.936641  0
H  H27  1  0.32746229  0.41598390  0.89224667  1  0  0.287094  0.399445  0  0.936634  0
H  H28  1  0.76888458  0.68499151  0.22169022  1  0  0.309156  0.386025  0  0.906915  0
H  H29  1  0.23111224  0.31500628  0.77830730  1  0  0.309133  0.385985  0  0.906945  0
C  C30  1  0.70529089  0.97186426  0.28927073  1  0  0.059415  0.116254  0  3.927593  0
C  C31  1  0.29471621  0.02813719  0.71072783  1  0  0.059411  0.11627  0  3.927842  0
C  C32  1  0.82195852  0.10030985  0.36715733  1  0  -0.079228  -0.117131  0  3.97168  0
C  C33  1  0.17804557  0.89969040  0.63284070  1  0  -0.079274  -0.117175  0  3.971911  0
C  C34  1  0.82302106  0.09726738  0.47315636  1  0  -0.067191  -0.086612  0  3.961323  0
C  C35  1  0.17697412  0.90274161  0.52684381  1  0  -0.067163  -0.08655  0  3.961377  0
C  C36  1  0.70653735  0.96719307  0.50158932  1  0  -0.003653  0.04271  0  4.025122  0
C  C37  1  0.29345515  0.03281255  0.49840565  1  0  -0.003708  0.042647  0  4.025128  0
C  C38  1  0.69847455  0.95839067  0.60960409  1  0  -0.088162  -0.127726  0  3.964505  0
C  C39  1  0.30152029  0.04162069  0.39039002  1  0  -0.088157  -0.127711  0  3.964497  0
C  C40  1  0.57951266  0.83218087  0.63295042  1  0  -0.084564  -0.117562  0  3.961555  0
C  C41  1  0.42048871  0.16782493  0.36704825  1  0  -0.084601  -0.117627  0  3.961683  0
C  C42  1  0.45996403  0.70669451  0.55025171  1  0  -0.00222  0.042181  0  4.010273  0
C  C43  1  0.54003893  0.29330902  0.44975016  1  0  -0.002205  0.042118  0  4.010025  0
C  C44  1  0.33280918  0.57623621  0.57179869  1  0  -0.057002  -0.061667  0  3.893904  0
C  C45  1  0.66720612  0.42376995  0.42820218  1  0  -0.056909  -0.061579  0  3.893476  0
C  C46  1  0.21964939  0.45967325  0.48782521  1  0  -0.089953  -0.139126  0  4.003779  0
C  C47  1  0.78035977  0.54032706  0.51217745  1  0  -0.090028  -0.139184  0  4.003837  0
C  C48  1  0.23492037  0.47221700  0.38324957  1  0  0.056123  0.102145  0  3.944236  0
C  C49  1  0.76508326  0.52778209  0.61674908  1  0  0.056153  0.102123  0  3.944135  0
C  C50  1  0.46489836  0.71072439  0.44208580  1  0  0.116261  0.117501  0  3.981842  0
C  C51  1  0.53509621  0.28928004  0.55791557  1  0  0.116219  0.117576  0  3.981749  0
C  C52  1  0.59154429  0.84366411  0.41717761  1  0  0.114853  0.119882  0  3.983187  0
C  C53  1  0.40845360  0.15633938  0.58281885  1  0  0.114957  0.119898  0  3.983292  0
C  C54  1  0.20456390  0.32827991  0.05369974  1  0  0.203483  0.592618  0  4.135974  0
C  C55  1  0.79543052  0.67172120  0.94629758  1  0  0.203522  0.592777  0  4.135906  0
C  C56  1  0.10704186  0.16159284  0.99757793  1  0  -0.08539  -0.134337  0  3.847609  0
C  C57  1  0.89295543  0.83840603  0.00242280  1  0  -0.085426  -0.134521  0  3.848009  0
C  C58  1  0.90348028  0.10867275  0.98221456  1  0  -0.083758  -0.137749  0  3.828205  0
C  C59  1  0.09651621  0.89132716  0.01778993  1  0  -0.083749  -0.137821  0  3.828419  0
C  C60  1  0.82548062  0.20123111  0.90528166  1  0  0.207477  0.603102  0  4.13012  0
C  C61  1  0.17451713  0.79876881  0.09472380  1  0  0.207444  0.603119  0  4.129765  0
C  C62  1  0.19316104  0.06311389  0.06482502  1  0  -0.080711  -0.147241  0  3.832493  0
C  C63  1  0.80684019  0.93688846  0.93517728  1  0  -0.080743  -0.147321  0  3.832685  0
C  C64  1  0.39225337  0.11890173  0.06967022  1  0  0.229637  0.601659  0  4.072342  0
C  C65  1  0.60774185  0.88109829  0.93032640  1  0  0.2297  0.601733  0  4.072148  0
N  N66  1  0.59475767  0.84740658  0.31378699  1  0  -0.318695  -0.285281  0  3.483618  0
N  N67  1  0.40524056  0.15259465  0.68621017  1  0  -0.31877  -0.28539  0  3.483918  0
N  N68  1  0.35400540  0.59377877  0.36145352  1  0  -0.319843  -0.267999  0  3.518104  0
N  N69  1  0.64599156  0.40622229  0.63855034  1  0  -0.319854  -0.267988  0  3.517904  0
O  O70  1  0.18960329  0.36029561  0.14683856  1  0  -0.335219  -0.5611  0  2.18617  0
O  O71  1  0.81040113  0.63970229  0.85316399  1  0  -0.335274  -0.561179  0  2.186168  0
O  O72  1  0.30089802  0.42772679  0.01033323  1  0  -0.308742  -0.530366  0  2.197662  0
O  O73  1  0.69909753  0.57227097  0.98966408  1  0  -0.308729  -0.530406  0  2.197608  0
O  O74  1  0.87530049  0.23091038  0.82352978  1  0  -0.329021  -0.558844  0  2.100702  0
O  O75  1  0.12469942  0.76910084  0.17647894  1  0  -0.328964  -0.558753  0  2.100431  0
O  O76  1  0.70675559  0.24552522  0.93163539  1  0  -0.327925  -0.559067  0  2.341137  0
O  O77  1  0.29323589  0.75446552  0.06836781  1  0  -0.327948  -0.559088  0  2.340862  0
O  O78  1  0.51833540  0.16404576  0.15310513  1  0  -0.292786  -0.492746  0  2.13245  0
O  O79  1  0.48166189  0.83595313  0.84689482  1  0  -0.292802  -0.492751  0  2.132385  0
O  O80  1  0.41302631  0.11478345  0.97158422  1  0  -0.333473  -0.501447  0  2.384115  0
O  O81  1  0.58696690  0.88520860  0.02841242  1  0  -0.333506  -0.50153  0  2.384113  0
O  O82  1  0.66077305  0.59727467  0.18340165  1  0  -0.580967  -0.755483  0  2.050988  0
O  O83  1  0.33922457  0.40272196  0.81659823  1  0  -0.580955  -0.755457  0  2.050978  0
