# generated using pymatgen
data_Zn2H36C29N2O11
_symmetry_space_group_name_H-M   'P 1'
_cell_length_a   9.79374708
_cell_length_b   10.91302451
_cell_length_c   10.97382664
_cell_angle_alpha   80.39977950
_cell_angle_beta   86.81281580
_cell_angle_gamma   81.45085102
_symmetry_Int_Tables_number   1
_chemical_formula_structural   Zn2H36C29N2O11
_chemical_formula_sum   'Zn2 H36 C29 N2 O11'
_cell_volume   1143.02977428
_cell_formula_units_Z   1
loop_
 _symmetry_equiv_pos_site_id
 _symmetry_equiv_pos_as_xyz
  1  'x, y, z'
loop_
 _atom_site_type_symbol
 _atom_site_label
 _atom_site_symmetry_multiplicity
 _atom_site_fract_x
 _atom_site_fract_y
 _atom_site_fract_z
 _atom_site_occupancy
 _atom_site_pbe_bader_charge
 _atom_site_pbe_bader_spin_density
 _atom_site_pbe_cm5_charge
 _atom_site_pbe_ddec_charge
 _atom_site_pbe_ddec_spin_density
 _atom_site_pbe_ddec_sum_bond_order
 _atom_site_pbe_magmom
Zn  Zn0  1  0.64475471  0.48421270  0.49942751  1  1.282223  0  0.667937  0.802766  0  2.443812  0
Zn  Zn1  1  0.35617707  0.52737915  0.50092552  1  1.275145  0  0.660946  0.856983  0  2.418528  0
H  H2  1  0.82825702  0.64375566  0.54678911  1  0.19244  0  0.1346  0.122441  0  1.004377  0
H  H3  1  0.86163137  0.94592789  0.23457973  1  0.058161  0  0.10341  0.106842  0  0.982872  0
H  H4  1  0.64331165  0.80696500  0.07084469  1  0.012102  0  0.07567  0.096092  0  1.053918  0
H  H5  1  0.73644468  0.71284008  0.19505318  1  0.044497  0  0.083757  0.124617  0  1.030604  0
H  H6  1  0.81619233  0.73879702  0.04450541  1  0.016459  0  0.076567  0.097865  0  1.019918  0
H  H7  1  0.74498817  0.52312298  0.09023587  1  0.031829  0  0.091889  0.089256  0  0.977723  0
H  H8  1  0.66002592  0.61661629  0.96233659  1  0.04133  0  0.087459  0.078234  0  1.015656  0
H  H9  1  0.80497224  0.24277742  0.63197099  1  0.100113  0  0.09532  0.134543  0  1.032609  0
H  H10  1  0.97116283  0.15658383  0.60594855  1  0.055599  0  0.094043  0.124936  0  0.994882  0
H  H11  1  0.95380297  0.27680658  0.69975143  1  0.023044  0  0.089925  0.118947  0  0.99961  0
H  H12  1  0.90577772  0.31295602  0.42053409  1  0.074391  0  0.118086  0.101017  0  0.946372  0
H  H13  1  0.11574976  0.53795077  0.40206376  1  0.448237  0  0.316619  0.298209  0  0.907643  0
H  H14  1  0.05178033  0.35110119  0.48943996  1  0.036164  0  0.105525  0.075988  0  1.002377  0
H  H15  1  0.89459920  0.71495480  0.73870262  1  0.027142  0  0.089701  0.115366  0  1.007717  0
H  H16  1  0.87828730  0.55405518  0.78671707  1  0.062876  0  0.093761  0.128112  0  1.001339  0
H  H17  1  0.98405622  0.62831293  0.86867765  1  0.047919  0  0.095275  0.128519  0  0.99065  0
H  H18  1  0.13928535  0.49864184  0.73927481  1  0.091101  0  0.115997  0.137992  0  0.956664  0
H  H19  1  0.15063866  0.65540929  0.68442478  1  0.069542  0  0.114776  0.133279  0  0.952152  0
H  H20  1  0.64712191  0.04116551  0.80238342  1  0.022953  0  0.084785  0.109994  0  1.010251  0
H  H21  1  0.46604614  0.05900390  0.83296570  1  0.011611  0  0.084186  0.105369  0  1.014071  0
H  H22  1  0.57758421  0.94748615  0.93207101  1  0.042263  0  0.084147  0.106184  0  1.050499  0
H  H23  1  0.46254814  0.83675654  0.79130319  1  0.007369  0  0.091977  0.090885  0  0.973626  0
H  H24  1  0.71749241  0.05317035  0.56551415  1  0.066341  0  0.096159  0.09825  0  1.010715  0
H  H25  1  0.64176602  0.82167338  0.75801082  1  0.02004  0  0.091359  0.088211  0  0.986391  0
H  H26  1  0.32622445  0.99419252  0.22019574  1  0.068154  0  0.095316  0.090914  0  0.995297  0
H  H27  1  0.50620240  0.96788273  0.17835303  1  0.03988  0  0.096017  0.092459  0  1.019926  0
H  H28  1  0.39593406  0.09825156  0.09579627  1  0.075007  0  0.102892  0.106225  0  0.986864  0
H  H29  1  0.75550708  0.27680677  0.85265354  1  0.051012  0  0.093761  0.094857  0  1.026633  0
H  H30  1  0.58647970  0.23380901  0.88605340  1  0.072702  0  0.097565  0.095549  0  1.018888  0
H  H31  1  0.70175190  0.22209684  0.00979902  1  0.064995  0  0.101465  0.103693  0  0.990618  0
H  H32  1  0.31158460  0.09100216  0.64042966  1  0.053339  0  0.094338  0.086119  0  0.99579  0
H  H33  1  0.27312906  0.95700080  0.44728933  1  0.063469  0  0.096852  0.098293  0  1.000146  0
H  H34  1  0.32943712  0.59412856  0.87610344  1  0.088657  0  0.101648  0.114983  0  1.017085  0
H  H35  1  0.32142797  0.56486632  0.11322246  1  0.069605  0  0.098368  0.102731  0  1.00589  0
H  H36  1  0.83182935  0.04280329  0.35357682  1  0.039145  0  0.092363  0.087473  0  1.001503  0
H  H37  1  0.71707654  0.06947630  0.22749172  1  0.064977  0  0.096217  0.09229  0  1.017246  0
C  C38  1  0.51523246  0.56625064  0.26024796  1  1.515997  0  0.212454  0.587999  0  4.160465  0
C  C39  1  0.04943831  0.56501455  0.56725887  1  0.725615  0  0.184366  0.352763  0  3.883885  0
C  C40  1  0.49358032  0.26984057  0.48851247  1  1.574733  0  0.21527  0.612475  0  4.162898  0
C  C41  1  0.50257073  0.45950737  0.74346034  1  1.583625  0  0.202999  0.534252  0  4.244868  0
C  C42  1  0.49560307  0.74221015  0.52131818  1  1.568979  0  0.215153  0.615308  0  4.160624  0
C  C43  1  0.61948542  0.03059526  0.53827204  1  -0.076169  0  -0.094406  -0.184379  0  3.665182  0
C  C44  1  0.59900616  0.95877450  0.42938267  1  0.548076  0  0.078062  0.159415  0  3.733571  0
C  C45  1  0.49712154  0.87947802  0.51231278  1  0.001724  0  -0.012651  -0.111112  0  3.655327  0
C  C46  1  0.52027546  0.95025566  0.62345382  1  0.016571  0  0.003068  0.116395  0  3.62096  0
C  C47  1  0.39340581  0.05177587  0.58004192  1  -0.033189  0  -0.080674  -0.091472  0  3.640528  0
C  C48  1  0.78228461  0.99672568  0.28914490  1  0.371843  0  -0.140813  -0.169273  0  3.941475  0
C  C49  1  0.37147234  0.98088156  0.47194057  1  -0.055392  0  -0.093666  -0.14271  0  3.692581  0
C  C50  1  0.66780883  0.60612767  0.06306062  1  0.014976  0  -0.166461  -0.120814  0  3.995036  0
C  C51  1  0.71901674  0.72265592  0.09591121  1  -0.072231  0  -0.252159  -0.356978  0  3.958795  0
C  C52  1  0.94103937  0.34405241  0.50226650  1  0.29563  0  -0.062963  -8e-06  0  3.929528  0
C  C53  1  0.91552822  0.24923242  0.61745782  1  -0.110989  0  -0.237777  -0.380436  0  3.93205  0
C  C54  1  0.07795477  0.58613384  0.69492341  1  -0.013677  0  -0.150126  -0.202595  0  3.923289  0
C  C55  1  0.95128894  0.62287985  0.77590992  1  -0.092558  0  -0.239526  -0.354101  0  3.961369  0
C  C56  1  0.54693772  0.89061589  0.75481405  1  0.034161  0  -0.160728  -0.142711  0  3.990523  0
C  C57  1  0.56017905  0.98979400  0.83534848  1  -0.079669  0  -0.243894  -0.34552  0  3.973792  0
C  C58  1  0.41679567  0.04074665  0.18638697  1  0.348561  0  -0.140212  -0.167857  0  3.93323  0
C  C59  1  0.66862953  0.27634426  0.92025816  1  0.368488  0  -0.139018  -0.169307  0  3.909691  0
C  C60  1  0.47009073  0.06186905  0.38594292  1  0.570155  0  0.083694  0.1635  0  3.705915  0
C  C61  1  0.49385296  0.13199544  0.49664264  1  -0.006599  0  -0.01166  -0.06757  0  3.660585  0
C  C62  1  0.41680172  0.54884158  0.93252750  1  -0.017642  0  -0.110248  -0.193844  0  4.045269  0
C  C63  1  0.50984292  0.46712106  0.87865261  1  0.47049  0  0.072735  0.089488  0  4.019323  0
C  C64  1  0.41902477  0.56779076  0.05971501  1  0.006701  0  -0.08987  -0.087355  0  4.007172  0
C  C65  1  0.52977679  0.58233790  0.12224563  1  -0.01514  0  -0.016361  -0.029973  0  3.87111  0
C  C66  1  0.90406017  0.56019413  0.53891300  1  0.618631  0  0.103793  0.04274  0  3.803553  0
N  N67  1  0.85686660  0.46554933  0.51055988  1  -1.160926  0  -0.307697  -0.155164  0  3.441398  0
N  N68  1  0.14739565  0.55173022  0.48559850  1  -1.236225  0  -0.461528  -0.482796  0  3.242384  0
O  O69  1  0.62886298  0.54799196  0.31724777  1  -1.161148  0  -0.317378  -0.536452  0  2.348083  0
O  O70  1  0.44392237  0.12457097  0.26735333  1  -1.070428  0  -0.21809  -0.203397  0  2.504696  0
O  O71  1  0.61945357  0.40138341  0.94311832  1  -1.079112  0  -0.182524  -0.136615  0  2.627784  0
O  O72  1  0.39565218  0.56574612  0.31252271  1  -1.178718  0  -0.329353  -0.569677  0  2.32362  0
O  O73  1  0.61102837  0.30842804  0.47490371  1  -1.165471  0  -0.318107  -0.54909  0  2.315407  0
O  O74  1  0.37678335  0.33736366  0.49774291  1  -1.169021  0  -0.323078  -0.554386  0  2.290622  0
O  O75  1  0.61817671  0.43081400  0.68863490  1  -1.161883  0  -0.316788  -0.54091  0  2.368447  0
O  O76  1  0.38535227  0.48648954  0.69406927  1  -1.180097  0  -0.31535  -0.556394  0  2.36535  0
O  O77  1  0.61031704  0.66977925  0.53554132  1  -1.176441  0  -0.314838  -0.556692  0  2.331522  0
O  O78  1  0.37799770  0.70781493  0.51405038  1  -1.160931  0  -0.320718  -0.551679  0  2.317643  0
O  O79  1  0.70247387  0.90515607  0.35527240  1  -1.073132  0  -0.213607  -0.199552  0  2.524235  0
