# generated using pymatgen
data_YH15C19O8
_symmetry_space_group_name_H-M   'P 1'
_cell_length_a   12.51326240
_cell_length_b   12.68653613
_cell_length_c   17.90110668
_cell_angle_alpha   73.70500620
_cell_angle_beta   82.78468076
_cell_angle_gamma   64.59658898
_symmetry_Int_Tables_number   1
_chemical_formula_structural   YH15C19O8
_chemical_formula_sum   'Y4 H60 C76 O32'
_cell_volume   2463.86280795
_cell_formula_units_Z   4
loop_
 _symmetry_equiv_pos_site_id
 _symmetry_equiv_pos_as_xyz
  1  'x, y, z'
loop_
 _atom_site_type_symbol
 _atom_site_label
 _atom_site_symmetry_multiplicity
 _atom_site_fract_x
 _atom_site_fract_y
 _atom_site_fract_z
 _atom_site_occupancy
 _atom_site_pbe_bader_charge
 _atom_site_pbe_bader_spin_density
 _atom_site_pbe_cm5_charge
 _atom_site_pbe_ddec_charge
 _atom_site_pbe_ddec_spin_density
 _atom_site_pbe_ddec_sum_bond_order
 _atom_site_pbe_magmom
Y  Y0  1  0.47172275  0.88104641  0.61999884  1  2.300649  0  1.296138  1.804707  0  2.445344  0
Y  Y1  1  0.52827589  0.11895423  0.38000221  1  2.300675  0  1.296133  1.804683  0  2.445382  0
Y  Y2  1  0.53225457  0.62442072  0.88278177  1  2.29798  0  1.288001  1.811636  0  2.443361  0
Y  Y3  1  0.46774658  0.37558172  0.11721703  1  2.297973  0  1.288047  1.811725  0  2.443187  0
H  H4  1  0.64763537  0.56459620  0.73120163  1  0.67005  0  0.301091  0.396761  0  0.939202  0
H  H5  1  0.35236174  0.43540624  0.26879808  1  0.670121  0  0.301094  0.396776  0  0.939196  0
H  H6  1  0.64709662  0.44461975  0.78852570  1  0.616975  0  0.321436  0.395935  0  0.898205  0
H  H7  1  0.35290371  0.55538268  0.21147485  1  0.616927  0  0.321449  0.395951  0  0.898203  0
H  H8  1  0.73203513  0.51245227  0.98014968  1  0.603889  0  0.324248  0.398915  0  0.888803  0
H  H9  1  0.26796541  0.48754566  0.01985062  1  0.603876  0  0.324243  0.398929  0  0.888831  0
H  H10  1  0.70009886  0.40223349  0.98865538  1  0.652631  0  0.300574  0.397023  0  0.942078  0
H  H11  1  0.29989942  0.59776805  0.01134440  1  0.652643  0  0.300545  0.396965  0  0.942166  0
H  H12  1  0.29950007  0.09765631  0.51131133  1  0.661227  0  0.303519  0.40048  0  0.939339  0
H  H13  1  0.70049983  0.90234523  0.48868720  1  0.661267  0  0.303468  0.400341  0  0.939524  0
H  H14  1  0.25017537  0.99612280  0.53632625  1  0.606775  0  0.334038  0.408445  0  0.867652  0
H  H15  1  0.74982489  0.00387784  0.46367242  1  0.606779  0  0.33404  0.408468  0  0.867619  0
H  H16  1  0.36738401  0.93022510  0.77666281  1  0.654704  0  0.310534  0.357578  0  0.968781  0
H  H17  1  0.63261456  0.06977373  0.22333860  1  0.654735  0  0.310531  0.357584  0  0.968814  0
H  H18  1  0.86200711  0.66069411  0.85901375  1  0.096494  0  0.108785  0.112855  0  1.004767  0
H  H19  1  0.13799234  0.33930653  0.14098667  1  0.096498  0  0.108806  0.11289  0  1.004737  0
H  H20  1  0.92560638  0.92531470  0.60913017  1  0.045396  0  0.099662  0.098229  0  0.998652  0
H  H21  1  0.07439440  0.07468864  0.39086849  1  0.045419  0  0.099657  0.098229  0  0.99878  0
H  H22  1  0.72730060  0.92093764  0.64286070  1  0.115817  0  0.107637  0.108106  0  1.030571  0
H  H23  1  0.27270046  0.07906299  0.35713959  1  0.115808  0  0.107637  0.108104  0  1.030609  0
H  H24  1  0.07323144  0.58849639  0.89425052  1  0.02975  0  0.099274  0.097057  0  1.001282  0
H  H25  1  0.92676911  0.41150155  0.10574866  1  0.029759  0  0.099278  0.097078  0  1.001274  0
H  H26  1  0.27123368  0.59414353  0.86072811  1  0.105422  0  0.105987  0.10532  0  1.038055  0
H  H27  1  0.72876533  0.40585621  0.13927252  1  0.105431  0  0.105954  0.105314  0  1.038053  0
H  H28  1  0.13765928  0.84879818  0.64279847  1  0.075559  0  0.106381  0.106228  0  1.011106  0
H  H29  1  0.86234134  0.15120155  0.35720147  1  0.075557  0  0.106373  0.106203  0  1.011129  0
H  H30  1  0.51095937  0.36756676  0.53672146  1  0.090803  0  0.107746  0.11535  0  0.995258  0
H  H31  1  0.48904162  0.63243207  0.46327919  1  0.090777  0  0.107783  0.115396  0  0.995258  0
H  H32  1  0.48630073  0.47128868  0.64193145  1  0.082762  0  0.107099  0.116141  0  0.986231  0
H  H33  1  0.51369981  0.52870925  0.35806941  1  0.082726  0  0.107084  0.11611  0  0.986257  0
H  H34  1  0.51491962  0.05068765  0.70764321  1  0.12445  0  0.110147  0.108966  0  1.066301  0
H  H35  1  0.48508092  0.94931029  0.29235709  1  0.124466  0  0.110162  0.108994  0  1.066296  0
H  H36  1  0.46830559  0.46522677  0.78342134  1  0.11772  0  0.107833  0.102175  0  1.061371  0
H  H37  1  0.53169576  0.53477116  0.21657946  1  0.117687  0  0.107817  0.102133  0  1.06142  0
H  H38  1  0.48010342  0.14489079  0.95372893  1  0.086751  0  0.106773  0.114816  0  0.995074  0
H  H39  1  0.51989560  0.85510895  0.04627059  1  0.086755  0  0.10677  0.114812  0  0.99509  0
H  H40  1  0.49993778  0.04355345  0.84769676  1  0.075952  0  0.108844  0.118063  0  0.984291  0
H  H41  1  0.50006115  0.95644448  0.15230424  1  0.075999  0  0.108849  0.118091  0  0.984255  0
H  H42  1  0.83860952  0.47659307  0.68145451  1  0.095955  0  0.105686  0.108894  0  1.014645  0
H  H43  1  0.16138913  0.52340758  0.31854374  1  0.095907  0  0.105666  0.108915  0  1.014638  0
H  H44  1  0.03240218  0.33189159  0.64368169  1  0.068711  0  0.102438  0.10268  0  1.019635  0
H  H45  1  0.96759845  0.66810815  0.35631770  1  0.068685  0  0.102433  0.102668  0  1.019673  0
H  H46  1  0.81133568  0.72449139  0.45618853  1  0.093491  0  0.106737  0.108424  0  1.02893  0
H  H47  1  0.18866459  0.27550924  0.54381070  1  0.093514  0  0.106727  0.108444  0  1.028895  0
H  H48  1  0.26506500  0.03611993  0.91906859  1  0.096841  0  0.106326  0.106244  0  1.009331  0
H  H49  1  0.73493803  0.96387978  0.08093450  1  0.096798  0  0.106292  0.106203  0  1.009265  0
H  H50  1  0.08020500  0.18244272  0.96651985  1  0.049389  0  0.106609  0.108702  0  0.986151  0
H  H51  1  0.91979695  0.81755971  0.03347889  1  0.049462  0  0.106616  0.108709  0  0.986164  0
H  H52  1  0.12225890  0.76886717  0.97784228  1  0.088892  0  0.10623  0.107453  0  1.022577  0
H  H53  1  0.87774152  0.23113708  0.02215456  1  0.08882  0  0.106207  0.107399  0  1.022631  0
H  H54  1  0.24751097  0.15337623  0.66665750  1  0.044996  0  0.101178  0.058929  0  0.992731  0
H  H55  1  0.75248672  0.84662082  0.33334154  1  0.044793  0  0.101224  0.059016  0  0.99272  0
H  H56  1  0.25566951  0.12681920  0.76900098  1  0.033266  0  0.09342  0.043273  0  0.987161  0
H  H57  1  0.74432708  0.87318055  0.23099930  1  0.033183  0  0.09343  0.043292  0  0.987186  0
H  H58  1  0.12214861  0.03890864  0.68419209  1  0.037796  0  0.087219  0.122871  0  1.020642  0
H  H59  1  0.87784592  0.96109020  0.31580966  1  0.037795  0  0.08723  0.122878  0  1.020692  0
H  H60  1  0.05650009  0.15496584  0.73482805  1  0.023948  0  0.088325  0.119396  0  1.009518  0
H  H61  1  0.94349686  0.84503300  0.26517294  1  0.023957  0  0.088318  0.119398  0  1.00955  0
H  H62  1  0.13414636  0.00342007  0.78730914  1  0.031847  0  0.084848  0.11986  0  1.026255  0
H  H63  1  0.86584942  0.99657968  0.21269177  1  0.031984  0  0.084868  0.119913  0  1.026291  0
C  C64  1  0.66807897  0.78236853  0.77176050  1  1.595572  0  0.241671  0.641047  0  4.143633  0
C  C65  1  0.33192217  0.21763390  0.22823831  1  1.595588  0  0.241641  0.640962  0  4.143708  0
C  C66  1  0.78472078  0.78990720  0.75333148  1  -0.068667  0  -0.015802  -0.042914  0  3.982605  0
C  C67  1  0.21527948  0.21009343  0.24666832  1  -0.068603  0  -0.015796  -0.042852  0  3.98264  0
C  C68  1  0.87745289  0.71841466  0.80489734  1  -0.019975  0  -0.07325  -0.129897  0  3.930843  0
C  C69  1  0.12254773  0.28158507  0.19510316  1  -0.020046  0  -0.073241  -0.129938  0  3.930857  0
C  C70  1  0.99071962  0.71835490  0.78769480  1  0.003833  0  -0.003303  0.07947  0  4.003764  0
C  C71  1  0.00928020  0.28164483  0.21230576  1  0.003855  0  -0.003327  0.079473  0  4.003667  0
C  C72  1  0.00839585  0.79388776  0.71518876  1  0.009059  0  -0.003169  0.079573  0  3.99961  0
C  C73  1  0.99160587  0.20610927  0.28481162  1  0.009018  0  -0.00312  0.079666  0  3.999578  0
C  C74  1  0.91133315  0.86742679  0.66375010  1  -0.063371  0  -0.089521  -0.131659  0  3.994198  0
C  C75  1  0.08866352  0.13257475  0.33625038  1  -0.063288  0  -0.089567  -0.13172  0  3.994222  0
C  C76  1  0.80190378  0.86580284  0.68218944  1  -0.034489  0  -0.085427  -0.093299  0  3.990168  0
C  C77  1  0.19809773  0.13419869  0.31781063  1  -0.034562  0  -0.0854  -0.093302  0  3.990037  0
C  C78  1  0.08760490  0.64588625  0.83942251  1  -0.033096  0  -0.090537  -0.133923  0  4.001308  0
C  C79  1  0.91239410  0.35411349  0.16057813  1  -0.033544  0  -0.090592  -0.134019  0  4.001392  0
C  C80  1  0.19692996  0.64790090  0.82104561  1  -0.026663  0  -0.088095  -0.097813  0  3.996861  0
C  C81  1  0.80307102  0.35209793  0.17895448  1  -0.026248  0  -0.088041  -0.097793  0  3.996965  0
C  C82  1  0.21470867  0.72223090  0.74934478  1  -0.062744  0  -0.016235  -0.041875  0  3.975745  0
C  C83  1  0.78529123  0.27777064  0.25065430  1  -0.062725  0  -0.016235  -0.041878  0  3.975718  0
C  C84  1  0.12197496  0.79278070  0.69766665  1  -0.020675  0  -0.072899  -0.127441  0  3.934752  0
C  C85  1  0.87802529  0.20721993  0.30233426  1  -0.020674  0  -0.072909  -0.127415  0  3.93467  0
C  C86  1  0.33148756  0.72946358  0.72999487  1  1.584618  0  0.238292  0.638313  0  4.15317  0
C  C87  1  0.66851262  0.27053526  0.27000417  1  1.584595  0  0.238313  0.638336  0  4.153205  0
C  C88  1  0.52339903  0.14256536  0.55428987  1  1.563802  0  0.228741  0.618764  0  4.171818  0
C  C89  1  0.47660239  0.85743437  0.44571112  1  1.564195  0  0.228824  0.618988  0  4.171576  0
C  C90  1  0.51338579  0.20321347  0.61686755  1  -0.020356  0  -0.019098  -0.04633  0  3.992044  0
C  C91  1  0.48661358  0.79678537  0.38313267  1  -0.020677  0  -0.019161  -0.04646  0  3.991965  0
C  C92  1  0.50634292  0.32255237  0.59786117  1  -0.064912  0  -0.085326  -0.095733  0  3.992308  0
C  C93  1  0.49365726  0.67744646  0.40213955  1  -0.064879  0  -0.08536  -0.095734  0  3.992296  0
C  C94  1  0.49295460  0.37914126  0.65594562  1  -0.02724  0  -0.088249  -0.133728  0  3.977471  0
C  C95  1  0.50704594  0.62085667  0.34405524  1  -0.027152  0  -0.088202  -0.133691  0  3.977484  0
C  C96  1  0.48847403  0.31829203  0.73547732  1  -0.000254  0  -0.006814  0.07813  0  4.004874  0
C  C97  1  0.51152571  0.68170590  0.26452305  1  -0.000127  0  -0.006883  0.078054  0  4.004942  0
C  C98  1  0.49741646  0.19700702  0.75468976  1  -0.062459  0  -0.00439  0.078405  0  3.992388  0
C  C99  1  0.50258291  0.80299182  0.24531102  1  -0.06248  0  -0.004333  0.078506  0  3.992297  0
C  C100  1  0.50930253  0.14213595  0.69379305  1  -0.053221  0  -0.074645  -0.134919  0  3.927265  0
C  C101  1  0.49069809  0.85786378  0.30620745  1  -0.053278  0  -0.074636  -0.134925  0  3.927186  0
C  C102  1  0.47776024  0.37224460  0.79679018  1  -0.098703  0  -0.08241  -0.157906  0  3.955636  0
C  C103  1  0.52224031  0.62775334  0.20321012  1  -0.098718  0  -0.082359  -0.157875  0  3.955478  0
C  C104  1  0.47664813  0.30966691  0.87381141  1  -0.048312  0  -0.020762  -0.043006  0  4.002848  0
C  C105  1  0.52335052  0.69033373  0.12618796  1  -0.048288  0  -0.020776  -0.042905  0  4.002527  0
C  C106  1  0.48275618  0.19074640  0.89255379  1  0.037483  0  -0.088736  -0.102799  0  3.999072  0
C  C107  1  0.51724122  0.80925334  0.10744698  1  0.037439  0  -0.088733  -0.102831  0  3.999182  0
C  C108  1  0.49345188  0.13563356  0.83411725  1  -0.057276  0  -0.085797  -0.128189  0  3.973972  0
C  C109  1  0.50654705  0.86436438  0.16588319  1  -0.057402  0  -0.085822  -0.128269  0  3.974125  0
C  C110  1  0.47146599  0.36700864  0.93724054  1  1.560536  0  0.229313  0.620896  0  4.175182  0
C  C111  1  0.52853302  0.63299110  0.06275898  1  1.560724  0  0.229376  0.620953  0  4.175114  0
C  C112  1  0.69723022  0.69691929  0.59221745  1  1.540983  0  0.218363  0.590762  0  4.159253  0
C  C113  1  0.30276879  0.30308044  0.40778263  1  1.540981  0  0.21837  0.590789  0  4.159392  0
C  C114  1  0.81315483  0.60942650  0.57024440  1  0.029415  0  -0.016063  -0.030378  0  3.994281  0
C  C115  1  0.18684346  0.39057504  0.42975538  1  0.029294  0  -0.016073  -0.03039  0  3.994259  0
C  C116  1  0.87562240  0.49726565  0.62353834  1  -0.080174  0  -0.086048  -0.098745  0  3.987028  0
C  C117  1  0.12437633  0.50273680  0.37645955  1  -0.080157  0  -0.086055  -0.098839  0  3.987048  0
C  C118  1  0.98300479  0.41727538  0.60253067  1  -0.048871  0  -0.085037  -0.124966  0  3.977281  0
C  C119  1  0.01699599  0.58272795  0.39746855  1  -0.048921  0  -0.085025  -0.124896  0  3.97727  0
C  C120  1  0.03175717  0.44356148  0.52710448  1  -0.027547  0  -0.002007  0.081197  0  3.995348  0
C  C121  1  0.96824156  0.55644096  0.47289453  1  0.011824  0  -0.001956  0.081257  0  3.995274  0
C  C122  1  0.85951905  0.63806496  0.49672477  1  -0.049409  0  -0.076123  -0.136152  0  3.91472  0
C  C123  1  0.14048048  0.36193748  0.50327417  1  -0.049208  0  -0.076086  -0.136137  0  3.914664  0
C  C124  1  0.31469817  0.80643511  0.91869332  1  1.526558  0  0.213952  0.582234  0  4.166581  0
C  C125  1  0.68530369  0.19356551  0.08130857  1  1.52667  0  0.213963  0.58224  0  4.16669  0
C  C126  1  0.20358779  0.89392122  0.94575883  1  0.020104  0  -0.015953  -0.034461  0  3.997434  0
C  C127  1  0.79641416  0.10608121  0.05424046  1  0.019901  0  -0.016032  -0.034769  0  3.997594  0
C  C128  1  0.19156092  0.01179687  0.94203967  1  -0.060231  0  -0.083534  -0.098308  0  3.997565  0
C  C129  1  0.80844066  0.98820645  0.05796116  1  -0.060185  0  -0.083462  -0.098105  0  3.997507  0
C  C130  1  0.08950360  0.09218748  0.96830823  1  0.00747  0  -0.082263  -0.122615  0  3.974724  0
C  C131  1  0.91049484  0.90781766  0.03169028  1  0.007086  0  -0.082254  -0.122684  0  3.974747  0
C  C132  1  0.99417525  0.05946244  0.99834435  1  0.030518  0  -0.000816  0.079648  0  3.992824  0
C  C133  1  0.00582437  0.94054181  0.00165200  1  -0.015977  0  -0.000823  0.079726  0  3.992771  0
C  C134  1  0.11234385  0.85948644  0.97521877  1  -0.103592  0  -0.072821  -0.127761  0  3.911597  0
C  C135  1  0.88765820  0.14051780  0.02477793  1  -0.103458  0  -0.072785  -0.127555  0  3.911524  0
C  C136  1  0.24674610  0.08962149  0.72249888  1  0.436437  0  -0.070622  0.14766  0  3.913665  0
C  C137  1  0.75325041  0.91037646  0.27750176  1  0.436647  0  -0.070675  0.147564  0  3.913593  0
C  C138  1  0.13349534  0.07024253  0.73268000  1  -0.066413  0  -0.251103  -0.40943  0  3.962143  0
C  C139  1  0.86650314  0.92975451  0.26732120  1  -0.066454  0  -0.251143  -0.409533  0  3.962143  0
O  O140  1  0.58640015  0.84126445  0.72130758  1  -1.22741  0  -0.379819  -0.63964  0  2.380204  0
O  O141  1  0.41360091  0.15873618  0.27869215  1  -1.227406  0  -0.379806  -0.639651  0  2.380239  0
O  O142  1  0.65640696  0.71556569  0.83713032  1  -1.216205  0  -0.379597  -0.599476  0  2.262237  0
O  O143  1  0.34359257  0.28443675  0.16286918  1  -1.21623  0  -0.379612  -0.599431  0  2.262249  0
O  O144  1  0.34401250  0.79125267  0.66286001  1  -1.212827  0  -0.3775  -0.611104  0  2.290041  0
O  O145  1  0.65599038  0.20874344  0.33714213  1  -1.212868  0  -0.377533  -0.611188  0  2.290004  0
O  O146  1  0.41234574  0.67558445  0.78130003  1  -1.22695  0  -0.382317  -0.652031  0  2.363941  0
O  O147  1  0.58765993  0.32441077  0.21870036  1  -1.226932  0  -0.382291  -0.651985  0  2.364009  0
O  O148  1  0.50622132  0.04610616  0.57299225  1  -1.234827  0  -0.395995  -0.64551  0  2.371506  0
O  O149  1  0.49377579  0.95389628  0.42700690  1  -1.234848  0  -0.396055  -0.64561  0  2.371429  0
O  O150  1  0.54801806  0.18838577  0.48534733  1  -1.19507  0  -0.357313  -0.600526  0  2.247925  0
O  O151  1  0.45198183  0.81161576  0.51465344  1  -1.195075  0  -0.357324  -0.600603  0  2.247856  0
O  O152  1  0.49739103  0.45798494  0.92026772  1  -1.238012  0  -0.393192  -0.650676  0  2.369495  0
O  O153  1  0.50261041  0.54201479  0.07973159  1  -1.238205  0  -0.393199  -0.650686  0  2.36959  0
O  O154  1  0.44237209  0.32266562  0.00537003  1  -1.2019  0  -0.356931  -0.609135  0  2.252134  0
O  O155  1  0.55762817  0.67733502  0.99462920  1  -1.201927  0  -0.35697  -0.609173  0  2.252051  0
O  O156  1  0.62962426  0.66280713  0.64289857  1  -1.199637  0  -0.318787  -0.578265  0  2.2186  0
O  O157  1  0.37037395  0.33719261  0.35710046  1  -1.199601  0  -0.318785  -0.578277  0  2.218615  0
O  O158  1  0.66351668  0.80962767  0.55845806  1  -1.202518  0  -0.345043  -0.610475  0  2.346964  0
O  O159  1  0.33648116  0.19037297  0.44154250  1  -1.202526  0  -0.345029  -0.610463  0  2.347078  0
O  O160  1  0.33985558  0.69320655  0.94322699  1  -1.203523  0  -0.345191  -0.609538  0  2.344123  0
O  O161  1  0.66014423  0.30679318  0.05677413  1  -1.203527  0  -0.345178  -0.609467  0  2.344108  0
O  O162  1  0.38595669  0.84175889  0.87245959  1  -1.191485  0  -0.325137  -0.579861  0  2.217109  0
O  O163  1  0.61404707  0.15823902  0.12754323  1  -1.191408  0  -0.325141  -0.579866  0  2.217133  0
O  O164  1  0.65858844  0.51644574  0.78670687  1  -1.280034  0  -0.596517  -0.781828  0  2.03876  0
O  O165  1  0.34140876  0.48355851  0.21329192  1  -1.280045  0  -0.596529  -0.781877  0  2.038739  0
O  O166  1  0.71487011  0.46893720  0.94969670  1  -1.246638  0  -0.602034  -0.779073  0  2.010806  0
O  O167  1  0.28512656  0.53106436  0.05030210  1  -1.246651  0  -0.602009  -0.779053  0  2.010868  0
O  O168  1  0.28807159  0.03502365  0.55658425  1  -1.256696  0  -0.595092  -0.785693  0  2.057833  0
O  O169  1  0.71192868  0.96497699  0.44341498  1  -1.256731  0  -0.595048  -0.785577  0  2.057991  0
O  O170  1  0.35104592  0.98041534  0.72220305  1  -1.187227  0  -0.427822  -0.540641  0  2.39729  0
O  O171  1  0.64895059  0.01958259  0.27779870  1  -1.187234  0  -0.427807  -0.540597  0  2.397227  0
