# generated using pymatgen
data_ZnH20C23(NO2)3
_symmetry_space_group_name_H-M   'P 1'
_cell_length_a   8.51866528
_cell_length_b   10.27048639
_cell_length_c   15.10206631
_cell_angle_alpha   73.02973418
_cell_angle_beta   91.44480827
_cell_angle_gamma   74.14127302
_symmetry_Int_Tables_number   1
_chemical_formula_structural   ZnH20C23(NO2)3
_chemical_formula_sum   'Zn2 H40 C46 N6 O12'
_cell_volume   1207.71936326
_cell_formula_units_Z   2
loop_
 _symmetry_equiv_pos_site_id
 _symmetry_equiv_pos_as_xyz
  1  'x, y, z'
loop_
 _atom_site_type_symbol
 _atom_site_label
 _atom_site_symmetry_multiplicity
 _atom_site_fract_x
 _atom_site_fract_y
 _atom_site_fract_z
 _atom_site_occupancy
 _atom_site_pbe_bader_charge
 _atom_site_pbe_bader_spin_density
 _atom_site_pbe_cm5_charge
 _atom_site_pbe_ddec_charge
 _atom_site_pbe_ddec_spin_density
 _atom_site_pbe_ddec_sum_bond_order
 _atom_site_pbe_magmom
Zn  Zn0  1  0.56978180  0.07960707  0.58452142  1  1.312605  0  0.681031  0.784213  0  2.35568  0
Zn  Zn1  1  0.43023079  0.92038428  0.41548167  1  1.312663  0  0.681025  0.784259  0  2.355746  0
H  H2  1  0.86469496  0.99495899  0.48442098  1  0.09331  0  0.116333  0.081429  0  1.03622  0
H  H3  1  0.13532324  0.00504407  0.51558371  1  0.093459  0  0.116334  0.081343  0  1.036347  0
H  H4  1  0.67990609  0.55672072  0.16591245  1  0.050412  0  0.102495  0.110373  0  1.035369  0
H  H5  1  0.32007049  0.44328017  0.83409077  1  0.050521  0  0.10251  0.110406  0  1.03519  0
H  H6  1  0.86614216  0.03003425  0.29297811  1  0.06554  0  0.101862  0.106466  0  1.013243  0
H  H7  1  0.13385796  0.96996883  0.70701734  1  0.065635  0  0.101823  0.106386  0  1.013328  0
H  H8  1  0.00192987  0.15068940  0.16678062  1  0.095195  0  0.100385  0.106793  0  1.039753  0
H  H9  1  0.99806530  0.84932538  0.83321645  1  0.095449  0  0.100471  0.106897  0  1.039721  0
H  H10  1  0.68230928  0.75954031  0.70647986  1  0.115436  0  0.120854  0.092478  0  0.995581  0
H  H11  1  0.31770371  0.24045638  0.29351951  1  0.115276  0  0.120838  0.092485  0  0.99543  0
H  H12  1  0.08185252  0.78558943  0.47867952  1  0.129999  0  0.10871  0.125848  0  1.054811  0
H  H13  1  0.91816636  0.21441471  0.52132230  1  0.13009  0  0.108674  0.125847  0  1.05489  0
H  H14  1  0.89298162  0.53719850  0.71228265  1  0.079273  0  0.111505  0.117181  0  1.018118  0
H  H15  1  0.10702716  0.46279608  0.28771252  1  0.079235  0  0.111524  0.117193  0  1.018187  0
H  H16  1  0.08570220  0.36323977  0.71921489  1  0.08908  0  0.111332  0.117296  0  1.011661  0
H  H17  1  0.91430197  0.63675799  0.28077964  1  0.088943  0  0.111275  0.117234  0  1.011641  0
H  H18  1  0.71111592  0.61333545  0.01857170  1  0.071727  0  0.103448  0.104346  0  0.997107  0
H  H19  1  0.28885970  0.38667823  0.98142628  1  0.071643  0  0.103381  0.104294  0  0.997258  0
H  H20  1  0.47464794  0.65804334  0.22345018  1  0.036771  0  0.095701  0.062411  0  0.987796  0
H  H21  1  0.52533682  0.34195116  0.77655697  1  0.036356  0  0.095652  0.062404  0  0.987755  0
H  H22  1  0.31452450  0.61134173  0.28578759  1  0.062459  0  0.103998  0.078698  0  0.984585  0
H  H23  1  0.68545908  0.38865276  0.71421955  1  0.062687  0  0.104073  0.078801  0  0.984586  0
H  H24  1  0.16496575  0.27365615  0.11617806  1  0.0614  0  0.103976  0.106948  0  1.01188  0
H  H25  1  0.83501424  0.72635860  0.88382036  1  0.061616  0  0.10392  0.106842  0  1.011879  0
H  H26  1  0.23100009  0.61136211  0.46694378  1  0.119494  0  0.10974  0.124656  0  1.031893  0
H  H27  1  0.76901204  0.38863672  0.53305250  1  0.119544  0  0.10973  0.124636  0  1.031926  0
H  H28  1  0.44288514  0.39069961  0.46867435  1  0.162187  0  0.118073  0.097116  0  1.034039  0
H  H29  1  0.55713050  0.60929602  0.53132390  1  0.162322  0  0.118095  0.097079  0  1.034152  0
H  H30  1  0.30575214  0.15461874  0.70983548  1  0.166282  0  0.12476  0.104913  0  0.980174  0
H  H31  1  0.69425654  0.84538008  0.29016213  1  0.16628  0  0.124735  0.10485  0  0.98013  0
H  H32  1  0.41926825  0.53947795  0.10781996  1  0.027777  0  0.087253  0.081521  0  0.996445  0
H  H33  1  0.58071850  0.46051761  0.89218697  1  0.02763  0  0.087233  0.081538  0  0.99631  0
H  H34  1  0.27822583  0.47200380  0.17553931  1  -0.008962  0  0.085528  0.074623  0  1.022684  0
H  H35  1  0.72176045  0.52799283  0.82446541  1  -0.00857  0  0.085514  0.07457  0  1.022729  0
H  H36  1  0.08923032  0.71952702  0.14607211  1  0.008284  0  0.080783  0.112577  0  1.022465  0
H  H37  1  0.91075684  0.28047067  0.85393372  1  0.008406  0  0.080775  0.112609  0  1.022424  0
H  H38  1  0.13684652  0.68703462  0.03919114  1  0.049177  0  0.081369  0.115216  0  1.049609  0
H  H39  1  0.86314254  0.31296095  0.96081512  1  0.049096  0  0.081323  0.115162  0  1.049703  0
H  H40  1  0.23239770  0.79292631  0.08308166  1  0.025679  0  0.087313  0.122635  0  0.99315  0
H  H41  1  0.76759282  0.20706820  0.91692348  1  0.025597  0  0.087316  0.122701  0  0.992987  0
C  C42  1  0.13672146  0.50902688  0.59350256  1  0.025476  0  0.014683  0.103677  0  3.955846  0
C  C43  1  0.86328987  0.49097089  0.40649394  1  0.024207  0  0.014617  0.103568  0  3.956  0
C  C44  1  0.00810603  0.63848215  0.59492492  1  -0.02101  0  0.018241  0.110676  0  3.952414  0
C  C45  1  0.99190619  0.36151988  0.40507072  1  -0.021128  0  0.018166  0.11065  0  3.952034  0
C  C46  1  0.85169092  0.36360515  0.15757941  1  0.00562  0  -0.009406  0.08802  0  4.035505  0
C  C47  1  0.14829345  0.63640322  0.84241764  1  0.006174  0  -0.009393  0.088017  0  4.035494  0
C  C48  1  0.69747704  0.22242116  0.30295365  1  -0.037566  0  -0.032524  -0.152896  0  3.970766  0
C  C49  1  0.30251551  0.77757658  0.69704288  1  -0.03757  0  -0.032531  -0.152972  0  3.970765  0
C  C50  1  0.61938305  0.14118996  0.37857652  1  1.557748  0  0.217825  0.600135  0  4.205348  0
C  C51  1  0.38062364  0.85879715  0.62142148  1  1.557778  0  0.217832  0.600133  0  4.205197  0
C  C52  1  0.64330054  0.37223866  0.26558342  1  0.510365  0  0.086093  0.250114  0  4.042168  0
C  C53  1  0.35668403  0.62775906  0.73441777  1  0.510616  0  0.086027  0.250099  0  4.04216  0
C  C54  1  0.87396461  0.89093486  0.53316537  1  0.44582  0  0.044712  0.101066  0  3.948423  0
C  C55  1  0.12605264  0.10906714  0.46683688  1  0.445828  0  0.044628  0.101014  0  3.948387  0
C  C56  1  0.72110323  0.44099288  0.19382106  1  -0.015186  0  -0.110916  -0.276674  0  3.996128  0
C  C57  1  0.27887577  0.55901442  0.80617887  1  -0.01606  0  -0.110981  -0.27681  0  3.996146  0
C  C58  1  0.82718903  0.14597092  0.26606358  1  0.013595  0  -0.0897  -0.06938  0  3.997169  0
C  C59  1  0.17280725  0.85403322  0.73393232  1  0.013436  0  -0.089631  -0.069091  0  3.997082  0
C  C60  1  0.90457544  0.21436961  0.19513622  1  -0.083148  0  -0.104632  -0.156185  0  3.986133  0
C  C61  1  0.09541557  0.78563984  0.80485994  1  -0.083588  0  -0.104732  -0.156444  0  3.986194  0
C  C62  1  0.77296516  0.76016270  0.65689278  1  0.466893  0  0.052274  0.107805  0  3.932923  0
C  C63  1  0.22705096  0.23983506  0.34310570  1  0.466875  0  0.052384  0.107828  0  3.932821  0
C  C64  1  0.99674480  0.77179571  0.53079697  1  -0.020561  0  -0.079706  -0.162795  0  3.901494  0
C  C65  1  0.00327038  0.22820203  0.46920615  1  -0.02037  0  -0.079646  -0.162748  0  3.900983  0
C  C66  1  0.92844878  0.43533734  0.07879927  1  -0.10275  0  -0.007731  0.058569  0  4.000595  0
C  C67  1  0.07152972  0.56468167  0.92119763  1  -0.10192  0  -0.00782  0.058395  0  4.000327  0
C  C68  1  0.89244060  0.63561872  0.65953924  1  0.045014  0  -0.076356  -0.166404  0  3.922382  0
C  C69  1  0.10756945  0.36437905  0.34045527  1  0.045185  0  -0.076408  -0.166465  0  3.922527  0
C  C70  1  0.16111154  0.37665202  0.66202223  1  -0.070186  0  -0.077073  -0.16738  0  3.933994  0
C  C71  1  0.83889583  0.62334681  0.33797274  1  -0.070002  0  -0.076965  -0.167249  0  3.933793  0
C  C72  1  0.83924764  0.56418776  0.01191750  1  0.033803  0  -0.085864  -0.117831  0  3.976247  0
C  C73  1  0.16073656  0.43582487  0.98808068  1  0.033573  0  -0.085797  -0.117625  0  3.97589  0
C  C74  1  0.40711918  0.57795636  0.24121504  1  0.382591  0  -0.06913  0.03127  0  3.868703  0
C  C75  1  0.59286675  0.42203814  0.75879210  1  0.383046  0  -0.069183  0.031125  0  3.868831  0
C  C76  1  0.09126256  0.37270836  0.06521077  1  -0.066905  0  -0.085962  -0.123922  0  3.975887  0
C  C77  1  0.90871900  0.62730533  0.93478853  1  -0.067228  0  -0.08588  -0.123709  0  3.975811  0
C  C78  1  0.24123500  0.51338983  0.52290331  1  -0.006639  0  -0.076356  -0.157172  0  3.897307  0
C  C79  1  0.75878321  0.48660476  0.47709250  1  -0.004527  0  -0.076284  -0.157131  0  3.89707  0
C  C80  1  0.36163296  0.39055990  0.52334964  1  0.439082  0  0.048563  0.095388  0  3.909657  0
C  C81  1  0.63837680  0.60943573  0.47664862  1  0.438216  0  0.048523  0.095404  0  3.909398  0
C  C82  1  0.28458771  0.25857766  0.65786750  1  0.458831  0  0.050286  0.095973  0  3.934297  0
C  C83  1  0.71542072  0.74141901  0.34213453  1  0.458724  0  0.050334  0.09604  0  3.934316  0
C  C84  1  0.32648900  0.56428007  0.15455830  1  0.015814  0  -0.176384  -0.145739  0  3.995684  0
C  C85  1  0.67349807  0.43571443  0.84544818  1  0.01538  0  -0.17638  -0.145674  0  3.995519  0
C  C86  1  0.18870023  0.69826910  0.10268288  1  -0.03765  0  -0.252273  -0.355375  0  3.956446  0
C  C87  1  0.81128765  0.30172646  0.89732338  1  -0.037707  0  -0.25219  -0.355428  0  3.956354  0
N  N88  1  0.76165179  0.88687110  0.59405228  1  -1.238815  0  -0.321284  -0.239189  0  3.537034  0
N  N89  1  0.23836420  0.11312770  0.40595063  1  -1.2392  0  -0.321255  -0.239127  0  3.537102  0
N  N90  1  0.38396705  0.26459337  0.58970899  1  -1.254834  0  -0.319201  -0.219176  0  3.512009  0
N  N91  1  0.61604552  0.73540439  0.41028884  1  -1.254674  0  -0.319178  -0.219063  0  3.512072  0
N  N92  1  0.77533103  0.10082233  0.71665509  1  0.824148  0  0.093587  0.703853  0  4.421398  0
N  N93  1  0.22467953  0.89918822  0.28334016  1  0.823957  0  0.093627  0.703897  0  4.421555  0
O  O94  1  0.59268393  0.18304582  0.44970807  1  -1.170377  0  -0.310905  -0.539864  0  2.399192  0
O  O95  1  0.40732512  0.81693809  0.55029256  1  -1.170561  0  -0.310903  -0.539918  0  2.399286  0
O  O96  1  0.51272111  0.44303267  0.30117452  1  -1.07903  0  -0.189505  -0.224534  0  2.556884  0
O  O97  1  0.48726655  0.55695971  0.69882974  1  -1.07886  0  -0.189391  -0.224406  0  2.55674  0
O  O98  1  0.59122178  0.03141203  0.36696217  1  -1.180084  0  -0.316479  -0.561096  0  2.414724  0
O  O99  1  0.40879666  0.96857189  0.63303844  1  -1.179861  0  -0.316471  -0.561008  0  2.414487  0
O  O100  1  0.75636357  0.16459820  0.62716301  1  -0.601893  0  -0.21079  -0.480984  0  2.090585  0
O  O101  1  0.24364733  0.83541128  0.37283179  1  -0.601715  0  -0.210884  -0.481145  0  2.090615  0
O  O102  1  0.67841940  0.02802074  0.74782648  1  -0.54112  0  -0.195671  -0.449997  0  1.932848  0
O  O103  1  0.32159610  0.97198555  0.25216895  1  -0.541239  0  -0.195741  -0.450012  0  1.932858  0
O  O104  1  0.88442794  0.11263654  0.76718903  1  -0.510491  0  -0.164839  -0.407729  0  1.963302  0
O  O105  1  0.11557845  0.88737612  0.23280712  1  -0.51034  0  -0.164739  -0.407641  0  1.963438  0
