# generated using pymatgen
data_ZnPH4C4O3
_symmetry_space_group_name_H-M   'P 1'
_cell_length_a   5.14516741
_cell_length_b   10.58850995
_cell_length_c   10.87514335
_cell_angle_alpha   93.58912449
_cell_angle_beta   90.00000030
_cell_angle_gamma   90.00001067
_symmetry_Int_Tables_number   1
_chemical_formula_structural   ZnPH4C4O3
_chemical_formula_sum   'Zn4 P4 H16 C16 O12'
_cell_volume   591.31201015
_cell_formula_units_Z   4
loop_
 _symmetry_equiv_pos_site_id
 _symmetry_equiv_pos_as_xyz
  1  'x, y, z'
loop_
 _atom_site_type_symbol
 _atom_site_label
 _atom_site_symmetry_multiplicity
 _atom_site_fract_x
 _atom_site_fract_y
 _atom_site_fract_z
 _atom_site_occupancy
 _atom_site_hle17_bader_spin_density
 _atom_site_hle17_ddec_charge
 _atom_site_hle17_ddec_spin_density
 _atom_site_hle17_ddec_sum_bond_order
 _atom_site_hle17_magmom
 _atom_site_hse06_10hf_bader_spin_density
 _atom_site_hse06_10hf_ddec_charge
 _atom_site_hse06_10hf_ddec_spin_density
 _atom_site_hse06_10hf_ddec_sum_bond_order
 _atom_site_hse06_10hf_magmom
 _atom_site_hse06_bader_spin_density
 _atom_site_hse06_ddec_charge
 _atom_site_hse06_ddec_spin_density
 _atom_site_hse06_ddec_sum_bond_order
 _atom_site_hse06_magmom
 _atom_site_pbe_bader_spin_density
 _atom_site_pbe_cm5_charge
 _atom_site_pbe_ddec_charge
 _atom_site_pbe_ddec_spin_density
 _atom_site_pbe_ddec_sum_bond_order
 _atom_site_pbe_magmom
Zn  Zn0  1  0.70604712  0.64616262  0.00123611  1  0  1.246278  0  1.762385  0  0  1.084257  0  2.233298  0  0  1.127403  0  2.169451  0  0  0.720629  1.05358  0  2.277417  0
Zn  Zn1  1  0.20604789  0.85383765  0.99876435  1  0  1.24628  0  1.762388  0  0  1.084253  0  2.233312  0  0  1.1274  0  2.169466  0  0  0.720631  1.053574  0  2.277434  0
Zn  Zn2  1  0.29395358  0.35383812  0.99876459  1  0  1.246292  0  1.762364  0  0  1.084256  0  2.23328  0  0  1.127397  0  2.169439  0  0  0.720641  1.05358  0  2.277404  0
Zn  Zn3  1  0.79395281  0.14616214  0.00123537  1  0  1.246281  0  1.762402  0  0  1.084239  0  2.233332  0  0  1.127385  0  2.169472  0  0  0.720628  1.053566  0  2.277449  0
P  P4  1  0.20906620  0.58816546  0.84428050  1  0  1.52416  0  4.805023  0  0  1.374945  0  5.290977  0  0  1.423381  0  5.255638  0  0  0.345317  1.340685  0  5.315564  0
P  P5  1  0.70906748  0.91183386  0.15571899  1  0  1.524086  0  4.805009  0  0  1.374881  0  5.290959  0  0  1.423315  0  5.255621  0  0  0.345327  1.340624  0  5.315542  0
P  P6  1  0.79093256  0.41183527  0.15571928  1  0  1.52409  0  4.805037  0  0  1.374864  0  5.290999  0  0  1.4233  0  5.25566  0  0  0.345323  1.340605  0  5.315585  0
P  P7  1  0.29093127  0.08816498  0.84428160  1  0  1.524135  0  4.804948  0  0  1.374912  0  5.290904  0  0  1.423345  0  5.255567  0  0  0.345338  1.340653  0  5.31549  0
H  H8  1  0.27235474  0.73894965  0.69513351  1  0  0.144312  0  0.944908  0  0  0.157155  0  1.002993  0  0  0.159294  0  1.003099  0  0  0.109959  0.155406  0  1.003344  0
H  H9  1  0.77235403  0.76104968  0.30486690  1  0  0.144298  0  0.944913  0  0  0.157144  0  1.002998  0  0  0.159284  0  1.003102  0  0  0.109961  0.155395  0  1.003348  0
H  H10  1  0.72764401  0.26104919  0.30486708  1  0  0.144327  0  0.944888  0  0  0.157159  0  1.002988  0  0  0.159302  0  1.003089  0  0  0.109954  0.15541  0  1.003338  0
H  H11  1  0.22764473  0.23895011  0.69513374  1  0  0.144307  0  0.944907  0  0  0.157152  0  1.002991  0  0  0.159292  0  1.003095  0  0  0.109958  0.155403  0  1.003342  0
H  H12  1  0.51098835  0.61715148  0.68495033  1  0  0.150437  0  0.941712  0  0  0.163745  0  0.998362  0  0  0.1659  0  0.99881  0  0  0.111763  0.162141  0  0.998171  0
H  H13  1  0.01098718  0.88284782  0.31505008  1  0  0.150421  0  0.941732  0  0  0.163719  0  0.998391  0  0  0.16587  0  0.998842  0  0  0.111757  0.162113  0  0.998202  0
H  H14  1  0.48901235  0.38284830  0.31504940  1  0  0.150445  0  0.941726  0  0  0.163734  0  0.998383  0  0  0.165889  0  0.998833  0  0  0.111755  0.162129  0  0.998194  0
H  H15  1  0.98901352  0.11715291  0.68495062  1  0  0.150431  0  0.941728  0  0  0.163727  0  0.998384  0  0  0.165882  0  0.998832  0  0  0.111765  0.162122  0  0.998194  0
H  H16  1  0.86936738  0.71761045  0.57290785  1  0  0.092137  0  0.951674  0  0  0.10556  0  1.009603  0  0  0.107957  0  1.009144  0  0  0.101088  0.103855  0  1.009949  0
H  H17  1  0.36936617  0.78238889  0.42709256  1  0  0.092142  0  0.951688  0  0  0.105573  0  1.009605  0  0  0.107971  0  1.009147  0  0  0.101092  0.103869  0  1.009952  0
H  H18  1  0.13063332  0.28238840  0.42709274  1  0  0.092114  0  0.951682  0  0  0.105547  0  1.009601  0  0  0.107945  0  1.009142  0  0  0.101083  0.103844  0  1.009948  0
H  H19  1  0.63063453  0.21761090  0.57290717  1  0  0.092125  0  0.951703  0  0  0.105565  0  1.009611  0  0  0.107965  0  1.009152  0  0  0.101086  0.103861  0  1.009959  0
H  H20  1  0.39013510  0.40157272  0.58735261  1  0  0.093015  0  0.957004  0  0  0.105756  0  1.0163  0  0  0.108383  0  1.015446  0  0  0.10117  0.103846  0  1.01708  0
H  H21  1  0.89013627  0.09842755  0.41264643  1  0  0.092954  0  0.957059  0  0  0.105722  0  1.01632  0  0  0.108349  0  1.015466  0  0  0.101157  0.103812  0  1.0171  0
H  H22  1  0.60986560  0.59842707  0.41264711  1  0  0.092975  0  0.957058  0  0  0.105743  0  1.016315  0  0  0.10837  0  1.015461  0  0  0.101168  0.103833  0  1.017094  0
H  H23  1  0.10986443  0.90157224  0.58735329  1  0  0.093011  0  0.956982  0  0  0.105752  0  1.01628  0  0  0.108379  0  1.015427  0  0  0.101175  0.103842  0  1.01706  0
C  C24  1  0.30124786  0.63600545  0.69349239  1  0  -0.485892  0  3.684583  0  0  -0.503393  0  3.912244  0  0  -0.514066  0  3.922357  0  0  -0.160382  -0.496059  0  3.905647  0
C  C25  1  0.80124718  0.86399482  0.30650808  1  0  -0.485821  0  3.684547  0  0  -0.503323  0  3.912219  0  0  -0.51399  0  3.922325  0  0  -0.160376  -0.495989  0  3.905622  0
C  C26  1  0.69875285  0.36399434  0.30650826  1  0  -0.485856  0  3.68455  0  0  -0.503343  0  3.912191  0  0  -0.514023  0  3.922308  0  0  -0.160355  -0.49601  0  3.905594  0
C  C27  1  0.19875352  0.13600591  0.69349171  1  0  -0.485839  0  3.684551  0  0  -0.503331  0  3.912239  0  0  -0.514005  0  3.922354  0  0  -0.160377  -0.495998  0  3.905643  0
C  C28  1  0.14854338  0.56744776  0.59206199  1  0  0.140684  0  3.775384  0  0  0.156772  0  4.013243  0  0  0.157915  0  4.038626  0  0  -0.009848  0.156264  0  3.995772  0
C  C29  1  0.64854273  0.93255251  0.40793847  1  0  0.140651  0  3.775371  0  0  0.156743  0  4.013235  0  0  0.157885  0  4.03862  0  0  -0.0099  0.156235  0  3.995763  0
C  C30  1  0.85145732  0.43255204  0.40793957  1  0  0.140574  0  3.775444  0  0  0.156694  0  4.013267  0  0  0.157838  0  4.03865  0  0  -0.009889  0.156185  0  3.995797  0
C  C31  1  0.35145797  0.06744823  0.59206131  1  0  0.140633  0  3.775392  0  0  0.156715  0  4.013274  0  0  0.157857  0  4.038658  0  0  -0.009893  0.156205  0  3.995803  0
C  C32  1  0.92847526  0.62209607  0.54110657  1  0  -0.121905  0  3.741526  0  0  -0.14116  0  3.992229  0  0  -0.143744  0  4.01366  0  0  -0.093144  -0.139132  0  3.977334  0
C  C33  1  0.42847602  0.87790327  0.45889292  1  0  -0.121966  0  3.741537  0  0  -0.141229  0  3.992228  0  0  -0.143814  0  4.01366  0  0  -0.09316  -0.139202  0  3.977334  0
C  C34  1  0.07152350  0.37790277  0.45889402  1  0  -0.121872  0  3.741539  0  0  -0.141142  0  3.992221  0  0  -0.143726  0  4.013652  0  0  -0.093156  -0.139118  0  3.977332  0
C  C35  1  0.57152468  0.12209746  0.54110686  1  0  -0.121933  0  3.741545  0  0  -0.1412  0  3.99225  0  0  -0.143788  0  4.013683  0  0  -0.093154  -0.139175  0  3.977358  0
C  C36  1  0.21772867  0.44446984  0.54934207  1  0  -0.122169  0  3.749073  0  0  -0.142826  0  4.000993  0  0  -0.145733  0  4.022892  0  0  -0.092576  -0.140903  0  3.986082  0
C  C37  1  0.71772787  0.05553041  0.45065789  1  0  -0.122069  0  3.749059  0  0  -0.142742  0  4.000963  0  0  -0.14565  0  4.022864  0  0  -0.092537  -0.140819  0  3.986049  0
C  C38  1  0.78227203  0.55552995  0.45065858  1  0  -0.122092  0  3.749134  0  0  -0.142777  0  4.001029  0  0  -0.145684  0  4.022926  0  0  -0.092571  -0.140853  0  3.986114  0
C  C39  1  0.28227088  0.94446938  0.54934183  1  0  -0.12209  0  3.749  0  0  -0.142748  0  4.000919  0  0  -0.145653  0  4.022817  0  0  -0.09255  -0.140824  0  3.986005  0
O  O40  1  0.34737659  0.68279846  0.94213721  1  0  -0.926781  0  2.116603  0  0  -0.812454  0  2.441028  0  0  -0.842412  0  2.408256  0  0  -0.379599  -0.79113  0  2.462941  0
O  O41  1  0.84737783  0.81719899  0.05786308  1  0  -0.926737  0  2.116635  0  0  -0.812425  0  2.441067  0  0  -0.842391  0  2.408308  0  0  -0.379593  -0.7911  0  2.462975  0
O  O42  1  0.65262411  0.31719944  0.05786240  1  0  -0.926761  0  2.116626  0  0  -0.812406  0  2.441018  0  0  -0.842369  0  2.408258  0  0  -0.379583  -0.79108  0  2.462925  0
O  O43  1  0.15262287  0.18280080  0.94213756  1  0  -0.926785  0  2.116621  0  0  -0.812436  0  2.441019  0  0  -0.842397  0  2.408259  0  0  -0.379594  -0.79111  0  2.462927  0
O  O44  1  0.31614724  0.45455041  0.85783450  1  0  -0.865709  0  1.990662  0  0  -0.773049  0  2.284364  0  0  -0.800858  0  2.257745  0  0  -0.376664  -0.753211  0  2.302526  0
O  O45  1  0.81614838  0.04544890  0.14216449  1  0  -0.865703  0  1.990679  0  0  -0.773033  0  2.284367  0  0  -0.800841  0  2.257741  0  0  -0.376681  -0.753202  0  2.30253  0
O  O46  1  0.68385540  0.54544938  0.14216523  1  0  -0.865695  0  1.990694  0  0  -0.773033  0  2.284395  0  0  -0.800842  0  2.257772  0  0  -0.376663  -0.7532  0  2.302559  0
O  O47  1  0.18385232  0.95455089  0.85783707  1  0  -0.865688  0  1.990704  0  0  -0.773013  0  2.284397  0  0  -0.800822  0  2.257779  0  0  -0.376662  -0.753175  0  2.302557  0
O  O48  1  0.91407145  0.60141851  0.85748603  1  0  -0.868565  0  2.001602  0  0  -0.775316  0  2.292396  0  0  -0.803423  0  2.266813  0  0  -0.3777  -0.755347  0  2.309613  0
O  O49  1  0.41407222  0.89858083  0.14251346  1  0  -0.868549  0  2.001621  0  0  -0.775296  0  2.292395  0  0  -0.803401  0  2.266815  0  0  -0.377694  -0.755327  0  2.30961  0
O  O50  1  0.08592925  0.39858033  0.14251364  1  0  -0.868547  0  2.001585  0  0  -0.775297  0  2.292388  0  0  -0.803401  0  2.266809  0  0  -0.377722  -0.755327  0  2.309605  0
O  O51  1  0.58592848  0.10141896  0.85748719  1  0  -0.868573  0  2.00159  0  0  -0.775316  0  2.292375  0  0  -0.80342  0  2.266789  0  0  -0.377702  -0.755347  0  2.30959  0
