# generated using pymatgen
data_NdH16C9O8
_symmetry_space_group_name_H-M   'P 1'
_cell_length_a   9.03126220
_cell_length_b   9.85211248
_cell_length_c   10.33185401
_cell_angle_alpha   68.38262063
_cell_angle_beta   78.57538482
_cell_angle_gamma   58.40091911
_symmetry_Int_Tables_number   1
_chemical_formula_structural   NdH16C9O8
_chemical_formula_sum   'Nd2 H32 C18 O16'
_cell_volume   727.91104434
_cell_formula_units_Z   2
loop_
 _symmetry_equiv_pos_site_id
 _symmetry_equiv_pos_as_xyz
  1  'x, y, z'
loop_
 _atom_site_type_symbol
 _atom_site_label
 _atom_site_symmetry_multiplicity
 _atom_site_fract_x
 _atom_site_fract_y
 _atom_site_fract_z
 _atom_site_occupancy
 _atom_site_hle17_bader_spin_density
 _atom_site_hle17_ddec_charge
 _atom_site_hle17_ddec_spin_density
 _atom_site_hle17_ddec_sum_bond_order
 _atom_site_hle17_magmom
 _atom_site_hse06_10hf_bader_spin_density
 _atom_site_hse06_10hf_ddec_charge
 _atom_site_hse06_10hf_ddec_spin_density
 _atom_site_hse06_10hf_ddec_sum_bond_order
 _atom_site_hse06_10hf_magmom
 _atom_site_hse06_bader_spin_density
 _atom_site_hse06_ddec_charge
 _atom_site_hse06_ddec_spin_density
 _atom_site_hse06_ddec_sum_bond_order
 _atom_site_hse06_magmom
 _atom_site_pbe_bader_spin_density
 _atom_site_pbe_cm5_charge
 _atom_site_pbe_ddec_charge
 _atom_site_pbe_ddec_spin_density
 _atom_site_pbe_ddec_sum_bond_order
 _atom_site_pbe_magmom
Nd  Nd0  1  0.78247034  0.46057675  0.00961773  1  0  2.296377  0  1.572966  0  0  2.132773  0  2.030781  0  0  2.232988  0  1.883606  0  0  1.458591  2.097285  0  2.066701  0
Nd  Nd1  1  0.21753074  0.53942225  0.99038823  1  0  2.296379  0  1.572925  0  0  2.132654  0  2.03091  0  0  2.23299  0  1.88354  0  0  1.458578  2.097243  0  2.066703  0
H  H2  1  0.62942329  0.92746909  0.15488958  1  0  0.122762  0  0.915086  0  0  0.139691  0  0.97107  0  0  0.142611  0  0.969248  0  0  0.111317  0.137508  0  0.972437  0
H  H3  1  0.37058207  0.07253676  0.84509986  1  0  0.122788  0  0.9152  0  0  0.139704  0  0.971166  0  0  0.142623  0  0.969346  0  0  0.111328  0.137544  0  0.972508  0
H  H4  1  0.54686425  0.96663976  0.31491254  1  0  0.10202  0  0.91262  0  0  0.119049  0  0.965534  0  0  0.121245  0  0.964525  0  0  0.100661  0.117477  0  0.966011  0
H  H5  1  0.45314211  0.03336369  0.68508052  1  0  0.102064  0  0.912691  0  0  0.11913  0  0.965516  0  0  0.121326  0  0.964506  0  0  0.100687  0.117556  0  0.965999  0
H  H6  1  0.53772579  0.69776979  0.41608878  1  0  0.056066  0  0.943043  0  0  0.075788  0  1.002527  0  0  0.07646  0  1.002586  0  0  0.088547  0.075217  0  1.002501  0
H  H7  1  0.46226370  0.30224961  0.58391928  1  0  0.056057  0  0.943204  0  0  0.075775  0  1.002715  0  0  0.076443  0  1.002775  0  0  0.088531  0.075202  0  1.002687  0
H  H8  1  0.63173151  0.64975063  0.26147652  1  0  0.071217  0  0.95132  0  0  0.086882  0  1.017405  0  0  0.08752  0  1.019021  0  0  0.099169  0.085908  0  1.01734  0
H  H9  1  0.36825565  0.35026006  0.73853197  1  0  0.071223  0  0.951368  0  0  0.086815  0  1.017575  0  0  0.087467  0  1.019157  0  0  0.099161  0.085838  0  1.017518  0
H  H10  1  0.48968434  0.48347194  0.39813665  1  0  0.104975  0  0.937421  0  0  0.122536  0  0.994903  0  0  0.124302  0  0.99434  0  0  0.106261  0.121627  0  0.995156  0
H  H11  1  0.51030783  0.51654380  0.60187623  1  0  0.10492  0  0.937458  0  0  0.122487  0  0.99494  0  0  0.124246  0  0.994387  0  0  0.106253  0.12158  0  0.995188  0
H  H12  1  0.28507599  0.66780429  0.38801133  1  0  0.102869  0  0.923091  0  0  0.119731  0  0.978319  0  0  0.12209  0  0.976985  0  0  0.099468  0.117975  0  0.97945  0
H  H13  1  0.71490643  0.33220905  0.61199781  1  0  0.102859  0  0.923234  0  0  0.119713  0  0.978457  0  0  0.122076  0  0.977112  0  0  0.099447  0.117955  0  0.979593  0
H  H14  1  0.07749627  0.24205821  0.46834708  1  0  0.099391  0  0.91561  0  0  0.115571  0  0.968823  0  0  0.117893  0  0.967551  0  0  0.098059  0.113892  0  0.969892  0
H  H15  1  0.92250592  0.75791393  0.53164387  1  0  0.099449  0  0.915389  0  0  0.115627  0  0.968601  0  0  0.117965  0  0.967332  0  0  0.098165  0.113953  0  0.969671  0
H  H16  1  0.19215016  0.34391945  0.35276687  1  0  0.110202  0  0.944825  0  0  0.12097  0  1.008874  0  0  0.123618  0  1.008192  0  0  0.103994  0.118974  0  1.009673  0
H  H17  1  0.80785601  0.65605575  0.64724287  1  0  0.110175  0  0.944743  0  0  0.120963  0  1.008768  0  0  0.123622  0  1.008083  0  0  0.104023  0.118971  0  1.009573  0
H  H18  1  0.27959910  0.95617893  0.28072096  1  0  0.056651  0  0.924452  0  0  0.079941  0  0.975753  0  0  0.080316  0  0.976542  0  0  0.089562  0.07952  0  0.975376  0
H  H19  1  0.72039392  0.04382961  0.71926523  1  0  0.056671  0  0.924461  0  0  0.079972  0  0.975715  0  0  0.08035  0  0.976502  0  0  0.08955  0.07954  0  0.97535  0
H  H20  1  0.37797871  0.90640382  0.12572858  1  0  0.068867  0  0.940232  0  0  0.088625  0  0.99889  0  0  0.089652  0  0.99905  0  0  0.095054  0.088079  0  0.998294  0
H  H21  1  0.62203728  0.09359183  0.87426308  1  0  0.068888  0  0.940207  0  0  0.088622  0  0.998871  0  0  0.089648  0  0.999036  0  0  0.095054  0.088075  0  0.998269  0
H  H22  1  0.16764030  0.18230634  0.02693260  1  0  0.440067  0  0.866099  0  0  0.405466  0  0.936661  0  0  0.416793  0  0.920308  0  0  0.299681  0.397511  0  0.948258  0
H  H23  1  0.83236330  0.81769738  0.97306654  1  0  0.440086  0  0.866086  0  0  0.405484  0  0.93665  0  0  0.416811  0  0.920298  0  0  0.299702  0.397529  0  0.948246  0
H  H24  1  0.05323809  0.08937636  0.07338913  1  0  0.44141  0  0.812576  0  0  0.4252  0  0.862032  0  0  0.433326  0  0.850269  0  0  0.330175  0.419481  0  0.870447  0
H  H25  1  0.94676538  0.91062693  0.92659757  1  0  0.441415  0  0.812451  0  0  0.425191  0  0.86203  0  0  0.433322  0  0.850258  0  0  0.330177  0.419474  0  0.870444  0
H  H26  1  0.78682137  0.20155788  0.24725685  1  0  0.431256  0  0.853459  0  0  0.410298  0  0.899244  0  0  0.419551  0  0.885654  0  0  0.309443  0.403497  0  0.909407  0
H  H27  1  0.21317491  0.79844233  0.75274445  1  0  0.431244  0  0.853486  0  0  0.410281  0  0.899283  0  0  0.419537  0  0.885689  0  0  0.309456  0.403483  0  0.90944  0
H  H28  1  0.63322572  0.22354195  0.17450918  1  0  0.440163  0  0.859613  0  0  0.410472  0  0.920571  0  0  0.42128  0  0.905072  0  0  0.298285  0.402901  0  0.931524  0
H  H29  1  0.36677446  0.77646285  0.82548226  1  0  0.440291  0  0.859433  0  0  0.410533  0  0.920491  0  0  0.421341  0  0.904993  0  0  0.2983  0.40296  0  0.931448  0
H  H30  1  0.82685609  0.52124639  0.47413079  1  0  0.059981  0  0.95122  0  0  0.077854  0  1.015499  0  0  0.078068  0  1.016764  0  0  0.089415  0.077728  0  1.014471  0
H  H31  1  0.17314815  0.47871503  0.52587819  1  0  0.05991  0  0.95134  0  0  0.077889  0  1.015449  0  0  0.078104  0  1.016705  0  0  0.089413  0.077756  0  1.014422  0
H  H32  1  0.93544598  0.62403084  0.35375251  1  0  0.07692  0  0.919551  0  0  0.096967  0  0.975193  0  0  0.098293  0  0.975  0  0  0.097902  0.095942  0  0.975462  0
H  H33  1  0.06456144  0.37593206  0.64626525  1  0  0.07712  0  0.919385  0  0  0.097151  0  0.975023  0  0  0.098451  0  0.974861  0  0  0.097966  0.096124  0  0.975293  0
C  C34  1  0.37862296  0.60240719  0.20011764  1  0  0.76205  0  3.81099  0  0  0.722246  0  4.102819  0  0  0.756435  0  4.096916  0  0  0.228916  0.698932  0  4.108438  0
C  C35  1  0.62136946  0.39761773  0.79987067  1  0  0.761928  0  3.811392  0  0  0.722209  0  4.103075  0  0  0.756427  0  4.097122  0  0  0.22887  0.698891  0  4.108691  0
C  C36  1  0.50812061  0.98393700  0.21314798  1  0  -0.265581  0  3.669086  0  0  -0.30262  0  3.921715  0  0  -0.308089  0  3.929071  0  0  -0.161437  -0.298542  0  3.915924  0
C  C37  1  0.49186958  0.01606941  0.78684707  1  0  -0.265737  0  3.669324  0  0  -0.302731  0  3.921827  0  0  -0.308198  0  3.929177  0  0  -0.161514  -0.298669  0  3.916032  0
C  C38  1  0.50660980  0.70955821  0.31329666  1  0  -0.086334  0  3.699066  0  0  -0.129499  0  3.965887  0  0  -0.130033  0  3.980389  0  0  -0.163397  -0.128875  0  3.955756  0
C  C39  1  0.49337782  0.29045961  0.68670056  1  0  -0.086224  0  3.698866  0  0  -0.129426  0  3.965741  0  0  -0.12996  0  3.980264  0  0  -0.163389  -0.128788  0  3.955577  0
C  C40  1  0.97280502  0.38429774  0.26304857  1  0  0.736427  0  3.835071  0  0  0.696256  0  4.129947  0  0  0.729568  0  4.125944  0  0  0.218025  0.673186  0  4.136001  0
C  C41  1  0.02720967  0.61569706  0.73691737  1  0  0.736094  0  3.835212  0  0  0.696078  0  4.129821  0  0  0.729433  0  4.125799  0  0  0.218023  0.673002  0  4.135886  0
C  C42  1  0.40967228  0.61443571  0.33344885  1  0  -0.269059  0  3.667595  0  0  -0.309272  0  3.91977  0  0  -0.314628  0  3.927101  0  0  -0.160607  -0.305468  0  3.913893  0
C  C43  1  0.59032060  0.38557727  0.66655714  1  0  -0.26895  0  3.667713  0  0  -0.30915  0  3.919835  0  0  -0.31452  0  3.927175  0  0  -0.160526  -0.305343  0  3.913957  0
C  C44  1  0.06305549  0.35721543  0.38562066  1  0  -0.265808  0  3.661767  0  0  -0.304468  0  3.91345  0  0  -0.310231  0  3.920605  0  0  -0.160163  -0.300086  0  3.907976  0
C  C45  1  0.93695944  0.64275724  0.61439466  1  0  -0.265572  0  3.661962  0  0  -0.304266  0  3.913565  0  0  -0.310113  0  3.920812  0  0  -0.160206  -0.299911  0  3.908131  0
C  C46  1  0.41160206  0.16959885  0.13587394  1  0  0.718677  0  3.813839  0  0  0.671101  0  4.112589  0  0  0.703518  0  4.10971  0  0  0.217534  0.648721  0  4.116771  0
C  C47  1  0.58840596  0.83040823  0.86411668  1  0  0.718831  0  3.813354  0  0  0.671177  0  4.1122  0  0  0.703598  0  4.109305  0  0  0.217558  0.648796  0  4.116385  0
C  C48  1  0.40564627  0.89486066  0.22942226  1  0  -0.080519  0  3.69564  0  0  -0.121131  0  3.955655  0  0  -0.121423  0  3.969764  0  0  -0.163684  -0.120651  0  3.945099  0
C  C49  1  0.59435171  0.10513682  0.77057395  1  0  -0.080619  0  3.695479  0  0  -0.121169  0  3.955383  0  0  -0.121468  0  3.969495  0  0  -0.16366  -0.120684  0  3.94483  0
C  C50  1  0.95537477  0.50898432  0.43970047  1  0  -0.07723  0  3.663299  0  0  -0.119088  0  3.927245  0  0  -0.119525  0  3.941136  0  0  -0.156866  -0.118382  0  3.916996  0
C  C51  1  0.04463719  0.49098481  0.56031938  1  0  -0.077471  0  3.663299  0  0  -0.119351  0  3.927219  0  0  -0.119757  0  3.941132  0  0  -0.156904  -0.118631  0  3.916972  0
O  O52  1  0.50252553  0.56890417  0.11153411  1  0  -0.806822  0  2.090056  0  0  -0.753335  0  2.356913  0  0  -0.788826  0  2.344635  0  0  -0.423993  -0.735165  0  2.364424  0
O  O53  1  0.49748279  0.43108860  0.88847795  1  0  -0.806865  0  2.090033  0  0  -0.753385  0  2.356831  0  0  -0.788903  0  2.34453  0  0  -0.424001  -0.735244  0  2.364375  0
O  O54  1  0.00091441  0.46650744  0.14001563  1  0  -0.816142  0  2.072778  0  0  -0.755553  0  2.330621  0  0  -0.793232  0  2.319625  0  0  -0.429078  -0.736847  0  2.337012  0
O  O55  1  0.99908952  0.53349562  0.86000115  1  0  -0.816302  0  2.072048  0  0  -0.755773  0  2.329804  0  0  -0.793467  0  2.318808  0  0  -0.429136  -0.737058  0  2.336197  0
O  O56  1  0.31583174  0.22620341  0.03185655  1  0  -0.701149  0  2.027105  0  0  -0.641125  0  2.266292  0  0  -0.672267  0  2.258414  0  0  -0.346313  -0.622726  0  2.271316  0
O  O57  1  0.68417470  0.77379267  0.96814102  1  0  -0.701155  0  2.026841  0  0  -0.641123  0  2.266057  0  0  -0.672253  0  2.258175  0  0  -0.346303  -0.622716  0  2.271079  0
O  O58  1  0.23295065  0.62134657  0.18214908  1  0  -0.705563  0  1.932307  0  0  -0.656027  0  2.170788  0  0  -0.686596  0  2.157849  0  0  -0.392171  -0.638828  0  2.177628  0
O  O59  1  0.76704591  0.37865399  0.81786272  1  0  -0.705439  0  1.93258  0  0  -0.655946  0  2.171013  0  0  -0.686506  0  2.158065  0  0  -0.39212  -0.638732  0  2.177854  0
O  O60  1  0.42627621  0.27174083  0.17413775  1  0  -0.716968  0  2.018738  0  0  -0.658863  0  2.249037  0  0  -0.688973  0  2.238984  0  0  -0.360771  -0.64123  0  2.255417  0
O  O61  1  0.57371701  0.72826321  0.82586357  1  0  -0.717039  0  2.018467  0  0  -0.658931  0  2.248845  0  0  -0.689025  0  2.238784  0  0  -0.36075  -0.641286  0  2.255227  0
O  O62  1  0.86357174  0.33517237  0.27971652  1  0  -0.712318  0  1.934131  0  0  -0.662998  0  2.159728  0  0  -0.691196  0  2.147422  0  0  -0.357824  -0.646664  0  2.167837  0
O  O63  1  0.13641679  0.66485872  0.72026625  1  0  -0.712036  0  1.934158  0  0  -0.662769  0  2.159665  0  0  -0.690981  0  2.147345  0  0  -0.357794  -0.646442  0  2.167769  0
O  O64  1  0.05529920  0.19118120  0.01411316  1  0  -0.897901  0  1.839945  0  0  -0.854425  0  2.03046  0  0  -0.877902  0  1.995423  0  0  -0.63421  -0.841953  0  2.051936  0
O  O65  1  0.94470279  0.80882619  0.98588199  1  0  -0.897947  0  1.839828  0  0  -0.85446  0  2.030419  0  0  -0.877955  0  1.995374  0  0  -0.634241  -0.841999  0  2.051888  0
O  O66  1  0.75599236  0.20096624  0.16178291  1  0  -0.896931  0  1.801754  0  0  -0.848967  0  1.957358  0  0  -0.872602  0  1.923395  0  0  -0.6296  -0.835928  0  1.978743  0
O  O67  1  0.24400607  0.79903740  0.83821013  1  0  -0.897058  0  1.801582  0  0  -0.849017  0  1.957265  0  0  -0.872675  0  1.923286  0  0  -0.629645  -0.835986  0  1.97865  0
