# generated using pymatgen
data_NdH24C26Cl3O11
_symmetry_space_group_name_H-M   'P 1'
_cell_length_a   8.67239822
_cell_length_b   10.10452424
_cell_length_c   17.81310000
_cell_angle_alpha   77.31228910
_cell_angle_beta   76.93916582
_cell_angle_gamma   71.05463300
_symmetry_Int_Tables_number   1
_chemical_formula_structural   NdH24C26Cl3O11
_chemical_formula_sum   'Nd2 H48 C52 Cl6 O22'
_cell_volume   1419.97785250
_cell_formula_units_Z   2
loop_
 _symmetry_equiv_pos_site_id
 _symmetry_equiv_pos_as_xyz
  1  'x, y, z'
loop_
 _atom_site_type_symbol
 _atom_site_label
 _atom_site_symmetry_multiplicity
 _atom_site_fract_x
 _atom_site_fract_y
 _atom_site_fract_z
 _atom_site_occupancy
 _atom_site_hle17_bader_spin_density
 _atom_site_hle17_ddec_charge
 _atom_site_hle17_ddec_spin_density
 _atom_site_hle17_ddec_sum_bond_order
 _atom_site_hle17_magmom
 _atom_site_hse06_10hf_bader_spin_density
 _atom_site_hse06_10hf_ddec_charge
 _atom_site_hse06_10hf_ddec_spin_density
 _atom_site_hse06_10hf_ddec_sum_bond_order
 _atom_site_hse06_10hf_magmom
 _atom_site_hse06_bader_spin_density
 _atom_site_hse06_ddec_charge
 _atom_site_hse06_ddec_spin_density
 _atom_site_hse06_ddec_sum_bond_order
 _atom_site_hse06_magmom
 _atom_site_pbe_bader_charge
 _atom_site_pbe_bader_spin_density
 _atom_site_pbe_cm5_charge
 _atom_site_pbe_ddec_charge
 _atom_site_pbe_ddec_spin_density
 _atom_site_pbe_ddec_sum_bond_order
 _atom_site_pbe_magmom
Nd  Nd0  1  0.25346751  0.50383162  0.49271032  1  0  2.253431  0  1.631922  0  0  2.080553  0  2.101373  0  0  2.190984  0  1.93965  0  2.227569  0  1.485271  2.043718  0  2.136236  0
Nd  Nd1  1  0.74653653  0.49616519  0.50728947  1  0  2.253375  0  1.631999  0  0  2.080473  0  2.101504  0  0  2.190929  0  1.939736  0  2.227507  0  1.485213  2.043605  0  2.136423  0
H  H2  1  0.47959831  0.48598498  0.21009349  1  0  0.082053  0  0.947734  0  0  0.086738  0  1.022159  0  0  0.088717  0  1.020202  0  0.106276  0  0.101428  0.085513  0  1.023257  0
H  H3  1  0.52039852  0.51400865  0.78990692  1  0  0.082028  0  0.947728  0  0  0.086713  0  1.022185  0  0  0.08868  0  1.020219  0  0.106205  0  0.101412  0.085489  0  1.023282  0
H  H4  1  0.36615254  0.35906188  0.23994562  1  0  0.082426  0  0.934195  0  0  0.095093  0  0.996517  0  0  0.096614  0  0.994742  0  0.071393  0  0.111554  0.094112  0  0.997698  0
H  H5  1  0.63383859  0.64093811  0.76005575  1  0  0.082385  0  0.934242  0  0  0.095079  0  0.996539  0  0  0.096587  0  0.994756  0  0.071529  0  0.111549  0.0941  0  0.997714  0
H  H6  1  0.03728820  0.74464680  0.11209147  1  0  0.113143  0  0.948999  0  0  0.119666  0  1.016248  0  0  0.12367  0  1.01342  0  0.094841  0  0.101845  0.116875  0  1.018157  0
H  H7  1  0.96270670  0.25535955  0.88791375  1  0  0.113037  0  0.949055  0  0  0.119605  0  1.016265  0  0  0.12361  0  1.013437  0  0.094905  0  0.101813  0.116815  0  1.018172  0
H  H8  1  0.02165651  0.73202698  0.97656441  1  0  0.10227  0  0.966417  0  0  0.107371  0  1.037576  0  0  0.110671  0  1.03515  0  0.10406  0  0.094235  0.104971  0  1.039385  0
H  H9  1  0.97834134  0.26798467  0.02343982  1  0  0.102238  0  0.966338  0  0  0.107374  0  1.037469  0  0  0.110674  0  1.035044  0  0.1037  0  0.094231  0.104972  0  1.039276  0
H  H10  1  0.41444448  0.33779110  0.98483351  1  0  0.107189  0  0.943987  0  0  0.117107  0  1.004682  0  0  0.120387  0  1.002489  0  0.082422  0  0.102688  0.115011  0  1.005662  0
H  H11  1  0.58555172  0.66221842  0.01516892  1  0  0.10716  0  0.944049  0  0  0.117122  0  1.004718  0  0  0.120357  0  1.002574  0  0.082786  0  0.102668  0.115026  0  1.005699  0
H  H12  1  0.43371264  0.35113263  0.11800957  1  0  0.107254  0  0.960854  0  0  0.116379  0  1.023762  0  0  0.119534  0  1.022587  0  0.092198  0  0.102879  0.11406  0  1.024943  0
H  H13  1  0.56628190  0.64887478  0.88199219  1  0  0.107222  0  0.960918  0  0  0.116386  0  1.023779  0  0  0.11954  0  1.022607  0  0.092127  0  0.102921  0.114066  0  1.024961  0
H  H14  1  0.86424994  0.91183187  0.56909009  1  0  0.115516  0  0.923262  0  0  0.124066  0  0.98447  0  0  0.126919  0  0.981834  0  0.118233  0  0.121996  0.122062  0  0.986263  0
H  H15  1  0.13575266  0.08816918  0.43090764  1  0  0.115505  0  0.923289  0  0  0.124062  0  0.984481  0  0  0.12691  0  0.981847  0  0.118145  0  0.121974  0.122054  0  0.986283  0
H  H16  1  0.01828240  0.87629756  0.48454276  1  0  0.105304  0  0.958868  0  0  0.10883  0  1.0302  0  0  0.111567  0  1.028317  0  0.111683  0  0.115987  0.106873  0  1.031701  0
H  H17  1  0.98171974  0.12370138  0.51545697  1  0  0.105318  0  0.958891  0  0  0.108844  0  1.030229  0  0  0.111577  0  1.028345  0  0.11171  0  0.115976  0.106887  0  1.031728  0
H  H18  1  0.55816837  0.16924952  0.38960324  1  0  0.128315  0  0.945032  0  0  0.137579  0  1.005005  0  0  0.142015  0  1.001705  0  0.099118  0  0.111509  0.134358  0  1.007411  0
H  H19  1  0.44183624  0.83075259  0.61039413  1  0  0.128305  0  0.945003  0  0  0.137532  0  1.005035  0  0  0.141968  0  1.001737  0  0.099507  0  0.111519  0.134313  0  1.007439  0
H  H20  1  0.56858044  0.18941813  0.24615843  1  0  0.086881  0  0.97927  0  0  0.097673  0  1.044763  0  0  0.100077  0  1.043363  0  0.076262  0  0.093561  0.095847  0  1.045979  0
H  H21  1  0.43142073  0.81058716  0.75383892  1  0  0.086831  0  0.979222  0  0  0.097594  0  1.044765  0  0  0.099995  0  1.043368  0  0.076328  0  0.093553  0.095766  0  1.045979  0
H  H22  1  0.03672260  0.86602938  0.23164903  1  0  0.111068  0  0.940223  0  0  0.121091  0  1.000361  0  0  0.12398  0  0.99915  0  0.061466  0  0.102887  0.118983  0  1.001288  0
H  H23  1  0.96328284  0.13397379  0.76834868  1  0  0.111066  0  0.940214  0  0  0.121063  0  1.00038  0  0  0.123953  0  0.999167  0  0.061424  0  0.102878  0.118952  0  1.001315  0
H  H24  1  0.03174934  0.84879211  0.37142660  1  0  0.129527  0  0.98691  0  0  0.137709  0  1.049109  0  0  0.14196  0  1.046325  0  0.146377  0  0.110189  0.13472  0  1.051116  0
H  H25  1  0.96825280  0.15120682  0.62857200  1  0  0.129596  0  0.986872  0  0  0.137768  0  1.049068  0  0  0.142017  0  1.046287  0  0.14637  0  0.110213  0.134779  0  1.051075  0
H  H26  1  0.49552881  0.90206073  0.43563316  1  0  0.134306  0  0.912824  0  0  0.140436  0  0.977008  0  0  0.143671  0  0.974039  0  0.143087  0  0.130209  0.137964  0  0.979415  0
H  H27  1  0.50447179  0.09793926  0.56436436  1  0  0.13437  0  0.912778  0  0  0.14049  0  0.976976  0  0  0.143728  0  0.974005  0  0.14305  0  0.130247  0.138021  0  0.97939  0
H  H28  1  0.59435925  0.82754465  0.35005256  1  0  0.102777  0  0.928636  0  0  0.110165  0  0.99615  0  0  0.1115  0  0.996176  0  0.098264  0  0.117256  0.109161  0  0.996182  0
H  H29  1  0.40564099  0.17245640  0.64994544  1  0  0.102735  0  0.928608  0  0  0.110147  0  0.996113  0  0  0.111484  0  0.996136  0  0.098309  0  0.117254  0.109143  0  0.996148  0
H  H30  1  0.18795468  0.19123564  0.26699481  1  0  0.100071  0  0.957709  0  0  0.111451  0  1.018165  0  0  0.114944  0  1.016258  0  0.060143  0  0.101686  0.109004  0  1.019622  0
H  H31  1  0.81203860  0.80875799  0.73300375  1  0  0.100045  0  0.957751  0  0  0.111472  0  1.018154  0  0  0.114968  0  1.016244  0  0.060046  0  0.101696  0.109024  0  1.019613  0
H  H32  1  0.14652395  0.20807444  0.13095878  1  0  0.102093  0  0.953109  0  0  0.111498  0  1.016375  0  0  0.114414  0  1.014788  0  0.06994  0  0.098433  0.109372  0  1.017666  0
H  H33  1  0.85347015  0.79192026  0.86903955  1  0  0.102046  0  0.953046  0  0  0.111418  0  1.016368  0  0  0.114329  0  1.014779  0  0.069946  0  0.098417  0.109294  0  1.017656  0
H  H34  1  0.46346602  0.78037187  0.12632064  1  0  0.099215  0  0.952771  0  0  0.109071  0  1.016131  0  0  0.112171  0  1.013718  0  0.068792  0  0.098359  0.106869  0  1.017894  0
H  H35  1  0.53653435  0.21962176  0.87367882  1  0  0.099278  0  0.952683  0  0  0.109086  0  1.016102  0  0  0.112185  0  1.013692  0  0.068895  0  0.098378  0.106889  0  1.017859  0
H  H36  1  0.50309301  0.76331158  0.26131287  1  0  0.099554  0  0.975051  0  0  0.11079  0  1.036383  0  0  0.113936  0  1.034784  0  0.069122  0  0.10101  0.10849  0  1.03768  0
H  H37  1  0.49690712  0.23668629  0.73868609  1  0  0.099577  0  0.974973  0  0  0.11077  0  1.036357  0  0  0.113915  0  1.034762  0  0.068673  0  0.101012  0.108472  0  1.037655  0
H  H38  1  0.29557334  0.40863188  0.70539025  1  0  0.055531  0  0.937092  0  0  0.070673  0  1.001877  0  0  0.070772  0  1.001428  0  0.022341  0  0.102586  0.070573  0  1.002185  0
H  H39  1  0.70443590  0.59136705  0.29460814  1  0  0.055436  0  0.937078  0  0  0.070581  0  1.00187  0  0  0.07068  0  1.001422  0  0.0224  0  0.102547  0.070481  0  1.002179  0
H  H40  1  0.08352328  0.43590947  0.75003747  1  0  0.067889  0  0.930189  0  0  0.080603  0  0.995563  0  0  0.081256  0  0.994672  0  0.081438  0  0.103548  0.080218  0  0.995852  0
H  H41  1  0.91648324  0.56409052  0.24996165  1  0  0.067842  0  0.930213  0  0  0.080554  0  0.995576  0  0  0.081207  0  0.994687  0  0.081506  0  0.103523  0.080168  0  0.995869  0
H  H42  1  0.01313691  0.67061292  0.66077182  1  0  0.062075  0  0.921849  0  0  0.080437  0  0.978927  0  0  0.080143  0  0.97937  0  0.044807  0  0.109479  0.080486  0  0.978969  0
H  H43  1  0.98686960  0.32938708  0.33922561  1  0  0.062072  0  0.921795  0  0  0.080452  0  0.978879  0  0  0.080157  0  0.979317  0  0.044752  0  0.109497  0.080502  0  0.97892  0
H  H44  1  0.16404453  0.66690264  0.71549840  1  0  0.06156  0  0.933583  0  0  0.074848  0  1.00014  0  0  0.074625  0  1.000849  0  0.050209  0  0.100402  0.075262  0  0.999383  0
H  H45  1  0.83595962  0.33309735  0.28449985  1  0  0.061475  0  0.933614  0  0  0.074794  0  1.000171  0  0  0.074567  0  1.00088  0  0.04983  0  0.100388  0.075209  0  0.999413  0
H  H46  1  0.02250490  0.41327476  0.64152855  1  0  0.402211  0  0.891955  0  0  0.37766  0  0.961977  0  0  0.388039  0  0.948328  0  0.671886  0  0.312241  0.370292  0  0.970261  0
H  H47  1  0.97750067  0.58672099  0.35847176  1  0  0.402128  0  0.892048  0  0  0.377575  0  0.962072  0  0  0.387954  0  0.948442  0  0.671864  0  0.312204  0.370207  0  0.970356  0
H  H48  1  0.35851263  0.62242593  0.61073016  1  0  0.399251  0  0.879784  0  0  0.376119  0  0.949497  0  0  0.38547  0  0.940011  0  0.660994  0  0.318392  0.369323  0  0.957202  0
H  H49  1  0.64149532  0.37756982  0.38926933  1  0  0.39928  0  0.879821  0  0  0.376135  0  0.94956  0  0  0.385487  0  0.940072  0  0.661069  0  0.318375  0.369337  0  0.957265  0
C  C50  1  0.32481791  0.49143647  0.32355244  1  0  0.690351  0  3.854555  0  0  0.643266  0  4.149686  0  0  0.6748  0  4.147808  0  1.594094  0  0.212654  0.621447  0  4.153958  0
C  C51  1  0.67518282  0.50855610  0.67644880  1  0  0.690396  0  3.854392  0  0  0.643377  0  4.149473  0  0  0.674894  0  4.147587  0  1.594306  0  0.212698  0.621558  0  4.153744  0
C  C52  1  0.35881968  0.47071042  0.23904553  1  0  -0.056908  0  3.639068  0  0  -0.11118  0  3.89595  0  0  -0.107416  0  3.895936  0  0.402006  0  -0.06202  -0.113722  0  3.895471  0
C  C53  1  0.64117607  0.52928639  0.76095573  1  0  -0.056781  0  3.638842  0  0  -0.11118  0  3.895811  0  0  -0.107345  0  3.895716  0  0.401793  0  -0.061961  -0.113719  0  3.895333  0
C  C54  1  0.23371298  0.54849803  0.12458384  1  0  0.252897  0  3.808222  0  0  0.242797  0  4.070921  0  0  0.253081  0  4.087967  0  0.423706  0  0.075429  0.235602  0  4.059371  0
C  C55  1  0.76628300  0.45150514  0.87542165  1  0  0.25277  0  3.808417  0  0  0.242652  0  4.071106  0  0  0.252938  0  4.088158  0  0.423496  0  0.075392  0.235462  0  4.059554  0
C  C56  1  0.11886133  0.65543691  0.08393387  1  0  -0.162642  0  3.752971  0  0  -0.186088  0  4.014106  0  0  -0.190449  0  4.03232  0  -0.049545  0  -0.103414  -0.183236  0  4.001413  0
C  C57  1  0.88113120  0.34456944  0.91607385  1  0  -0.162553  0  3.753106  0  0  -0.186029  0  4.014273  0  0  -0.190388  0  4.032488  0  -0.049545  0  -0.103417  -0.183177  0  4.001574  0
C  C58  1  0.11034846  0.64833429  0.00803506  1  0  -0.111961  0  3.788913  0  0  -0.135949  0  4.043137  0  0  -0.13641  0  4.063618  0  0.036139  0  -0.100155  -0.135353  0  4.029228  0
C  C59  1  0.88964170  0.35167206  0.99197236  1  0  -0.111846  0  3.7886  0  0  -0.135962  0  4.042985  0  0  -0.136417  0  4.063447  0  0.036534  0  -0.100088  -0.135376  0  4.0291  0
C  C60  1  0.21693571  0.53356047  0.97278387  1  0  0.115397  0  3.801967  0  0  0.126239  0  4.0687  0  0  0.127118  0  4.091735  0  0.011868  0  -0.00103  0.125316  0  4.053189  0
C  C61  1  0.78306213  0.46645117  0.02721980  1  0  0.115298  0  3.801987  0  0  0.126247  0  4.068621  0  0  0.127129  0  4.091642  0  0.011393  0  -0.001058  0.125327  0  4.053102  0
C  C62  1  0.33142095  0.42686534  0.01253827  1  0  -0.106302  0  3.775404  0  0  -0.128519  0  4.025625  0  0  -0.12915  0  4.046451  0  -0.002474  0  -0.097166  -0.12763  0  4.010742  0
C  C63  1  0.66857607  0.57314525  0.98746450  1  0  -0.106258  0  3.775551  0  0  -0.128544  0  4.025741  0  0  -0.129135  0  4.046584  0  -0.002651  0  -0.097113  -0.127656  0  4.010856  0
C  C64  1  0.34107402  0.43448937  0.08870477  1  0  -0.18814  0  3.768001  0  0  -0.206029  0  4.019945  0  0  -0.212207  0  4.042116  0  0.001266  0  -0.109286  -0.202015  0  4.005324  0
C  C65  1  0.65892016  0.56551910  0.91129914  1  0  -0.187965  0  3.768129  0  0  -0.205912  0  4.020101  0  0  -0.212089  0  4.04226  0  0.001517  0  -0.109304  -0.201898  0  4.005477  0
C  C66  1  0.84574727  0.75284841  0.51296222  1  0  0.704641  0  3.842141  0  0  0.657372  0  4.141906  0  0  0.689962  0  4.139676  0  1.546835  0  0.21691  0.634953  0  4.147078  0
C  C67  1  0.15425641  0.24714946  0.48703635  1  0  0.704513  0  3.842316  0  0  0.65729  0  4.142008  0  0  0.689878  0  4.139774  0  1.546853  0  0.216861  0.634871  0  4.147181  0
C  C68  1  0.88724728  0.88938686  0.50923256  1  0  -0.090874  0  3.615775  0  0  -0.141598  0  3.868295  0  0  -0.139141  0  3.867755  0  0.395551  0  -0.063167  -0.143248  0  3.868089  0
C  C69  1  0.11275486  0.11061207  0.49076548  1  0  -0.09076  0  3.615896  0  0  -0.141495  0  3.868381  0  0  -0.139019  0  3.867812  0  0.395761  0  -0.063069  -0.143143  0  3.868171  0
C  C70  1  0.79435728  0.01003926  0.38968566  1  0  0.258475  0  3.788332  0  0  0.249468  0  4.050096  0  0  0.259717  0  4.06588  0  0.394302  0  0.079013  0.242412  0  4.039555  0
C  C71  1  0.20564722  0.98995967  0.61031269  1  0  0.258442  0  3.78837  0  0  0.249421  0  4.050163  0  0  0.259672  0  4.065948  0  0.394332  0  0.079017  0.242364  0  4.039625  0
C  C72  1  0.66447867  0.10649696  0.35400235  1  0  -0.155813  0  3.727686  0  0  -0.178845  0  3.987688  0  0  -0.181445  0  4.002883  0  0.091694  0  -0.100232  -0.176897  0  3.977184  0
C  C73  1  0.33552594  0.89350515  0.64599615  1  0  -0.155804  0  3.727682  0  0  -0.178815  0  3.987717  0  0  -0.181415  0  4.00291  0  0.091216  0  -0.100274  -0.176869  0  3.977213  0
C  C74  1  0.66990486  0.11692834  0.27440839  1  0  -0.121996  0  3.807792  0  0  -0.14585  0  4.063557  0  0  -0.146822  0  4.084103  0  -0.035424  0  -0.105641  -0.145341  0  4.049533  0
C  C75  1  0.33009431  0.88307589  0.72559044  1  0  -0.121895  0  3.8076  0  0  -0.145707  0  4.063367  0  0  -0.146675  0  4.083916  0  -0.035386  0  -0.105603  -0.145198  0  4.049339  0
C  C76  1  0.80371147  0.03057138  0.23044217  1  0  0.098745  0  3.844618  0  0  0.110502  0  4.110071  0  0  0.111245  0  4.133678  0  -0.03513  0  -0.007249  0.109854  0  4.094227  0
C  C77  1  0.19628604  0.96943073  0.76955711  1  0  0.098652  0  3.844681  0  0  0.110375  0  4.110172  0  0  0.11111  0  4.133787  0  -0.035425  0  -0.007306  0.109735  0  4.094318  0
C  C78  1  0.93225555  0.93349264  0.26577387  1  0  -0.104175  0  3.771692  0  0  -0.124221  0  4.020064  0  0  -0.125005  0  4.040712  0  0.065358  0  -0.099466  -0.123752  0  4.006138  0
C  C79  1  0.06774835  0.06651159  0.73422332  1  0  -0.104015  0  3.771695  0  0  -0.124023  0  4.020043  0  0  -0.124805  0  4.040693  0  0.065719  0  -0.099391  -0.123558  0  4.006116  0
C  C80  1  0.92785498  0.92308776  0.34567104  1  0  -0.183778  0  3.727087  0  0  -0.203953  0  3.978464  0  0  -0.208699  0  3.996974  0  -0.082761  0  -0.107586  -0.200955  0  3.966446  0
C  C81  1  0.07214845  0.07691435  0.65432703  1  0  -0.183946  0  3.727139  0  0  -0.204097  0  3.978528  0  0  -0.208843  0  3.997037  0  -0.082781  0  -0.107638  -0.201099  0  3.966511  0
C  C82  1  0.40188896  0.74160948  0.42191868  1  0  0.716008  0  3.829005  0  0  0.663256  0  4.135151  0  0  0.696922  0  4.130654  0  1.556044  0  0.219272  0.639913  0  4.142087  0
C  C83  1  0.59811117  0.25838840  0.57807916  1  0  0.716116  0  3.828799  0  0  0.663306  0  4.13506  0  0  0.696975  0  4.13056  0  1.556083  0  0.21937  0.639968  0  4.142001  0
C  C84  1  0.47335295  0.86418749  0.38696247  1  0  -0.088663  0  3.625212  0  0  -0.141574  0  3.882172  0  0  -0.139426  0  3.883285  0  0.42431  0  -0.059297  -0.142781  0  3.881081  0
C  C85  1  0.52664800  0.13581144  0.61303514  1  0  -0.088667  0  3.625029  0  0  -0.141563  0  3.882141  0  0  -0.139419  0  3.883249  0  0.424286  0  -0.059312  -0.142806  0  3.881066  0
C  C86  1  0.34899302  0.97785172  0.27276545  1  0  0.275373  0  3.801261  0  0  0.262259  0  4.066889  0  0  0.274018  0  4.082599  0  0.47178  0  0.082352  0.254393  0  4.055892  0
C  C87  1  0.65100499  0.02214191  0.72723371  1  0  0.275258  0  3.801293  0  0  0.262143  0  4.066981  0  0  0.2739  0  4.082693  0  0.47166  0  0.082277  0.254256  0  4.055985  0
C  C88  1  0.24862823  0.10219427  0.23529296  1  0  -0.172565  0  3.760042  0  0  -0.194059  0  4.019662  0  0  -0.199425  0  4.039055  0  -0.033979  0  -0.104891  -0.190626  0  4.006941  0
C  C89  1  0.75136268  0.89779937  0.76470642  1  0  -0.172414  0  3.759911  0  0  -0.193908  0  4.019488  0  0  -0.199278  0  4.038883  0  -0.034163  0  -0.104776  -0.190478  0  4.006776  0
C  C90  1  0.22523283  0.11122568  0.15949523  1  0  -0.110487  0  3.790625  0  0  -0.131449  0  4.040064  0  0  -0.132057  0  4.061417  0  0.024298  0  -0.097342  -0.13116  0  4.026016  0
C  C91  1  0.77476008  0.88876901  0.84050436  1  0  -0.110427  0  3.790475  0  0  -0.131357  0  4.040006  0  0  -0.131955  0  4.061352  0  0.024478  0  -0.097284  -0.13107  0  4.02596  0
C  C92  1  0.30363814  0.99507309  0.12030059  1  0  0.10933  0  3.828181  0  0  0.119289  0  4.096737  0  0  0.119965  0  4.119589  0  0.005784  0  -0.003907  0.118631  0  4.081312  0
C  C93  1  0.69635549  0.00491948  0.87969918  1  0  0.109335  0  3.828143  0  0  0.119214  0  4.096795  0  0  0.119889  0  4.119646  0  0.007154  0  -0.003968  0.118554  0  4.081372  0
C  C94  1  0.40304456  0.87060868  0.15709974  1  0  -0.10432  0  3.781029  0  0  -0.128312  0  4.034041  0  0  -0.127873  0  4.053303  0  0.040171  0  -0.098412  -0.12891  0  4.021574  0
C  C95  1  0.59695345  0.12938496  0.84289886  1  0  -0.104446  0  3.780949  0  0  -0.128385  0  4.034016  0  0  -0.127948  0  4.053277  0  0.038706  0  -0.098461  -0.128987  0  4.021548  0
C  C96  1  0.42556899  0.86148188  0.23347506  1  0  -0.179758  0  3.74766  0  0  -0.198538  0  3.998987  0  0  -0.203856  0  4.018492  0  -0.018056  0  -0.107981  -0.194882  0  3.985931  0
C  C97  1  0.57442984  0.13851281  0.76652332  1  0  -0.179781  0  3.747717  0  0  -0.198485  0  3.999022  0  0  -0.203803  0  4.018527  0  -0.017738  0  -0.107992  -0.194827  0  3.985959  0
C  C98  1  0.16726387  0.45997488  0.69593982  1  0  0.095824  0  3.650867  0  0  0.035209  0  3.930941  0  0  0.042263  0  3.937294  0  0.440383  0  -0.079988  0.030524  0  3.927419  0
C  C99  1  0.83274419  0.54002405  0.30405926  1  0  0.096005  0  3.650727  0  0  0.035423  0  3.930773  0  0  0.042472  0  3.937129  0  0.44023  0  -0.079914  0.030738  0  3.927247  0
C  C100  1  0.14043970  0.61806919  0.67134994  1  0  0.100013  0  3.638934  0  0  0.039141  0  3.915942  0  0  0.045873  0  3.923843  0  0.432681  0  -0.077178  0.034172  0  3.91225  0
C  C101  1  0.85956681  0.38193080  0.32864806  1  0  0.100149  0  3.638644  0  0  0.039202  0  3.915726  0  0  0.045949  0  3.923611  0  0.433177  0  -0.07719  0.034233  0  3.912033  0
Cl  Cl102  1  0.20685133  0.52546802  0.87731950  1  0  -0.121929  0  1.332696  0  0  -0.099492  0  1.559916  0  0  -0.103464  0  1.55598  0  -0.263236  0  -0.004354  -0.096668  0  1.562759  0
Cl  Cl103  1  0.79314450  0.47454257  0.12268340  1  0  -0.121929  0  1.332861  0  0  -0.09953  0  1.560073  0  0  -0.103502  0  1.556134  0  -0.263201  0  -0.004385  -0.096708  0  1.562915  0
Cl  Cl104  1  0.80897688  0.04635463  0.13087345  1  0  -0.119872  0  1.379598  0  0  -0.100146  0  1.612313  0  0  -0.104407  0  1.608426  0  -0.235484  0  -0.02016  -0.097158  0  1.615181  0
Cl  Cl105  1  0.19102619  0.95364854  0.86912565  1  0  -0.119875  0  1.379624  0  0  -0.100138  0  1.612347  0  0  -0.104396  0  1.608462  0  -0.235454  0  -0.020156  -0.097154  0  1.615211  0
Cl  Cl106  1  0.27769303  0.00700194  0.02510948  1  0  -0.118432  0  1.386451  0  0  -0.102717  0  1.621815  0  0  -0.106794  0  1.617726  0  -0.232501  0  -0.020365  -0.099463  0  1.623775  0
Cl  Cl107  1  0.72230781  0.99299381  0.97488855  1  0  -0.118436  0  1.386443  0  0  -0.102684  0  1.621827  0  0  -0.10676  0  1.617737  0  -0.232584  0  -0.020351  -0.099431  0  1.623788  0
O  O108  1  0.96463995  0.63671914  0.51239234  1  0  -0.811341  0  2.118808  0  0  -0.751234  0  2.387087  0  0  -0.790236  0  2.376402  0  -1.220674  0  -0.43512  -0.732704  0  2.393123  0
O  O109  1  0.03536455  0.36327979  0.48760938  1  0  -0.811345  0  2.118909  0  0  -0.75128  0  2.387212  0  0  -0.790288  0  2.376533  0  -1.220588  0  -0.435128  -0.732747  0  2.393249  0
O  O110  1  0.17764803  0.53900561  0.35796011  1  0  -0.676352  0  2.07047  0  0  -0.620005  0  2.307193  0  0  -0.650264  0  2.298859  0  -1.193944  0  -0.349372  -0.602707  0  2.312185  0
O  O111  1  0.82235424  0.46098591  0.64204277  1  0  -0.676408  0  2.070487  0  0  -0.620065  0  2.307148  0  0  -0.650326  0  2.298813  0  -1.193968  0  -0.349372  -0.602763  0  2.31214  0
O  O112  1  0.77966838  0.00811577  0.46845840  1  0  -0.24939  0  2.319278  0  0  -0.185888  0  2.554619  0  0  -0.20174  0  2.556537  0  -1.078687  0  -0.177132  -0.174336  0  2.55259  0
O  O113  1  0.22033422  0.99188528  0.53154045  1  0  -0.249397  0  2.319255  0  0  -0.185905  0  2.554625  0  0  -0.201764  0  2.556536  0  -1.078918  0  -0.177148  -0.17435  0  2.55259  0
O  O114  1  0.49432430  0.62968752  0.45793955  1  0  -0.816024  0  2.125456  0  0  -0.753891  0  2.394962  0  0  -0.793212  0  2.383657  0  -1.224217  0  -0.445968  -0.735275  0  2.40171  0
O  O115  1  0.50568103  0.37031247  0.54205689  1  0  -0.816075  0  2.125476  0  0  -0.753852  0  2.394904  0  0  -0.793168  0  2.383586  0  -1.224026  0  -0.446001  -0.735239  0  2.401651  0
O  O116  1  0.69840878  0.75283887  0.51797934  1  0  -0.656298  0  1.969164  0  0  -0.608936  0  2.210411  0  0  -0.638529  0  2.201411  0  -1.167366  0  -0.354222  -0.592371  0  2.21567  0
O  O117  1  0.30159490  0.24715900  0.48202092  1  0  -0.65625  0  1.969165  0  0  -0.608902  0  2.210381  0  0  -0.638493  0  2.201381  0  -1.167458  0  -0.354192  -0.592341  0  2.21564  0
O  O118  1  0.36391100  0.98193610  0.34700343  1  0  -0.255962  0  2.372013  0  0  -0.189172  0  2.607136  0  0  -0.206386  0  2.61053  0  -1.086852  0  -0.175011  -0.176972  0  2.604217  0
O  O119  1  0.63608913  0.01806177  0.65299384  1  0  -0.255893  0  2.371886  0  0  -0.1892  0  2.607104  0  0  -0.206414  0  2.610498  0  -1.086571  0  -0.175039  -0.176944  0  2.604162  0
O  O120  1  0.24673529  0.64278106  0.59819279  1  0  -0.618376  0  2.130962  0  0  -0.562973  0  2.375064  0  0  -0.586353  0  2.363978  0  -1.173375  0  -0.444028  -0.550839  0  2.382263  0
O  O121  1  0.75327205  0.35721999  0.40180611  1  0  -0.618428  0  2.130889  0  0  -0.563012  0  2.375025  0  0  -0.586395  0  2.363925  0  -1.173512  0  -0.444004  -0.550872  0  2.382226  0
O  O122  1  0.14368111  0.40170306  0.63393840  1  0  -0.634104  0  2.116458  0  0  -0.57895  0  2.363489  0  0  -0.602977  0  2.349415  0  -1.186783  0  -0.44461  -0.565795  0  2.369946  0
O  O123  1  0.85632340  0.59829587  0.36606163  1  0  -0.634071  0  2.116507  0  0  -0.578918  0  2.363533  0  0  -0.602947  0  2.349477  0  -1.186727  0  -0.444586  -0.565759  0  2.369987  0
O  O124  1  0.44667908  0.45375187  0.35985362  1  0  -0.697311  0  2.018657  0  0  -0.644623  0  2.259957  0  0  -0.675483  0  2.253013  0  -1.207295  0  -0.349878  -0.626606  0  2.264176  0
O  O125  1  0.55332449  0.54624282  0.64014592  1  0  -0.697342  0  2.018636  0  0  -0.644675  0  2.259897  0  0  -0.675539  0  2.252957  0  -1.207406  0  -0.349939  -0.626657  0  2.264121  0
O  O126  1  0.22928205  0.56465114  0.19990565  1  0  -0.259113  0  2.331423  0  0  -0.191931  0  2.563729  0  0  -0.20802  0  2.565551  0  -1.079112  0  -0.181475  -0.180205  0  2.561916  0
O  O127  1  0.77071417  0.43534779  0.80009923  1  0  -0.259138  0  2.331362  0  0  -0.19182  0  2.563597  0  0  -0.207942  0  2.56541  0  -1.078873  0  -0.18147  -0.180106  0  2.561791  0
O  O128  1  0.25688391  0.74802748  0.41750577  1  0  -0.65506  0  2.02405  0  0  -0.606244  0  2.271815  0  0  -0.635731  0  2.262703  0  -1.184207  0  -0.348134  -0.589673  0  2.277317  0
O  O129  1  0.74311693  0.25196827  0.58249337  1  0  -0.65516  0  2.024042  0  0  -0.606329  0  2.271829  0  0  -0.63582  0  2.262713  0  -1.184393  0  -0.348215  -0.589757  0  2.277332  0
