# generated using pymatgen
data_NaH16C10NO2
_symmetry_space_group_name_H-M   'P 1'
_cell_length_a   6.90424839
_cell_length_b   12.34070196
_cell_length_c   13.16090000
_cell_angle_alpha   90.00000000
_cell_angle_beta   90.00000000
_cell_angle_gamma   101.11910910
_symmetry_Int_Tables_number   1
_chemical_formula_structural   NaH16C10NO2
_chemical_formula_sum   'Na4 H64 C40 N4 O8'
_cell_volume   1100.30217242
_cell_formula_units_Z   4
loop_
 _symmetry_equiv_pos_site_id
 _symmetry_equiv_pos_as_xyz
  1  'x, y, z'
loop_
 _atom_site_type_symbol
 _atom_site_label
 _atom_site_symmetry_multiplicity
 _atom_site_fract_x
 _atom_site_fract_y
 _atom_site_fract_z
 _atom_site_occupancy
 _atom_site_hle17_bader_spin_density
 _atom_site_hle17_ddec_charge
 _atom_site_hle17_ddec_spin_density
 _atom_site_hle17_ddec_sum_bond_order
 _atom_site_hle17_magmom
 _atom_site_hse06_10hf_bader_spin_density
 _atom_site_hse06_10hf_ddec_charge
 _atom_site_hse06_10hf_ddec_spin_density
 _atom_site_hse06_10hf_ddec_sum_bond_order
 _atom_site_hse06_10hf_magmom
 _atom_site_hse06_bader_spin_density
 _atom_site_hse06_ddec_charge
 _atom_site_hse06_ddec_spin_density
 _atom_site_hse06_ddec_sum_bond_order
 _atom_site_hse06_magmom
 _atom_site_pbe_bader_charge
 _atom_site_pbe_bader_spin_density
 _atom_site_pbe_cm5_charge
 _atom_site_pbe_ddec_charge
 _atom_site_pbe_ddec_spin_density
 _atom_site_pbe_ddec_sum_bond_order
 _atom_site_pbe_magmom
Na  Na0  1  0.25793937  0.46987264  0.99843704  1  0  0.869333  0  0.418286  0  0  0.80231  0  0.587786  0  0  0.814856  0  0.567078  0  0.866512  0  0.672341  0.793355  0  0.602313  0
Na  Na1  1  0.74206067  0.03012789  0.49843780  1  0  0.869324  0  0.418302  0  0  0.802302  0  0.5878  0  0  0.814846  0  0.567092  0  0.86651  0  0.672342  0.793349  0  0.602326  0
Na  Na2  1  0.74206049  0.53012841  0.00156220  1  0  0.869334  0  0.418282  0  0  0.802311  0  0.587777  0  0  0.814858  0  0.56707  0  0.866515  0  0.67234  0.793357  0  0.602305  0
Na  Na3  1  0.25794180  0.96987234  0.50156220  1  0  0.869336  0  0.418281  0  0  0.80232  0  0.587775  0  0  0.814862  0  0.567066  0  0.866512  0  0.672344  0.793365  0  0.602302  0
H  H4  1  0.48496361  0.43294736  0.80842724  1  0  0.078557  0  0.980722  0  0  0.092092  0  1.043391  0  0  0.095423  0  1.041787  0  0.020912  0  0.09561  0.089736  0  1.044699  0
H  H5  1  0.51503877  0.06705152  0.30842800  1  0  0.078554  0  0.980709  0  0  0.092138  0  1.04333  0  0  0.095475  0  1.041721  0  0.020918  0  0.095614  0.089781  0  1.044641  0
H  H6  1  0.51503654  0.56705452  0.19157200  1  0  0.078496  0  0.98065  0  0  0.092092  0  1.043277  0  0  0.095424  0  1.04167  0  0.02093  0  0.095616  0.089734  0  1.044588  0
H  H7  1  0.48496515  0.93294871  0.69157428  1  0  0.078576  0  0.980704  0  0  0.09212  0  1.043367  0  0  0.095454  0  1.04176  0  0.020932  0  0.095629  0.089763  0  1.044678  0
H  H8  1  0.42355762  0.41358002  0.62354094  1  0  0.063515  0  0.987155  0  0  0.07613  0  1.051914  0  0  0.079124  0  1.048797  0  0.041098  0  0.085173  0.073953  0  1.054127  0
H  H9  1  0.57644533  0.08642051  0.12354170  1  0  0.063517  0  0.987155  0  0  0.076136  0  1.051909  0  0  0.07912  0  1.048804  0  0.041088  0  0.085176  0.073958  0  1.054124  0
H  H10  1  0.57644369  0.58642103  0.37645982  1  0  0.063503  0  0.987173  0  0  0.076128  0  1.05192  0  0  0.079119  0  1.048807  0  0.041065  0  0.085177  0.073953  0  1.054127  0
H  H11  1  0.42355570  0.91357972  0.87645830  1  0  0.063529  0  0.987167  0  0  0.076147  0  1.051926  0  0  0.079142  0  1.048809  0  0.041092  0  0.085182  0.073971  0  1.054136  0
H  H12  1  0.36606306  0.57249178  0.51958833  1  0  0.074514  0  0.996015  0  0  0.085304  0  1.060944  0  0  0.087986  0  1.06091  0  0.037907  0  0.083317  0.083439  0  1.061003  0
H  H13  1  0.63393894  0.92750815  0.01958757  1  0  0.074457  0  0.995989  0  0  0.085229  0  1.060945  0  0  0.08791  0  1.06091  0  0.037888  0  0.083284  0.083369  0  1.060999  0
H  H14  1  0.63393797  0.42750845  0.48041167  1  0  0.074488  0  0.996055  0  0  0.085279  0  1.060985  0  0  0.087961  0  1.060951  0  0.037872  0  0.083302  0.083417  0  1.061039  0
H  H15  1  0.36605572  0.07249043  0.98041319  1  0  0.074416  0  0.995994  0  0  0.085193  0  1.060954  0  0  0.087874  0  1.060918  0  0.037902  0  0.083271  0.083334  0  1.061004  0
H  H16  1  0.37546211  0.75535423  0.60522305  1  0  0.072818  0  0.981941  0  0  0.084223  0  1.045962  0  0  0.087919  0  1.042334  0  0.057191  0  0.094814  0.081548  0  1.04858  0
H  H17  1  0.62453728  0.74464653  0.10522381  1  0  0.072891  0  0.981977  0  0  0.084202  0  1.046084  0  0  0.087897  0  1.042457  0  0.057214  0  0.094813  0.08153  0  1.048697  0
H  H18  1  0.62453312  0.24464600  0.39477695  1  0  0.072808  0  0.981954  0  0  0.084216  0  1.045959  0  0  0.087912  0  1.042332  0  0.056993  0  0.094784  0.081542  0  1.048577  0
H  H19  1  0.37545940  0.25535370  0.89477695  1  0  0.072844  0  0.982009  0  0  0.084228  0  1.046048  0  0  0.087925  0  1.042419  0  0.056936  0  0.09483  0.081555  0  1.048664  0
H  H20  1  0.44178838  0.77680183  0.78875685  1  0  0.073386  0  1.009119  0  0  0.084844  0  1.07731  0  0  0.087468  0  1.076353  0  0.012546  0  0.084056  0.082998  0  1.078075  0
H  H21  1  0.55821246  0.72319893  0.28875609  1  0  0.073431  0  1.009178  0  0  0.084884  0  1.077368  0  0  0.08751  0  1.076408  0  0.012526  0  0.084074  0.08304  0  1.078131  0
H  H22  1  0.55820367  0.22319758  0.21124315  1  0  0.073385  0  1.009128  0  0  0.084834  0  1.077329  0  0  0.08746  0  1.076369  0  0.012499  0  0.084055  0.082988  0  1.078092  0
H  H23  1  0.44179002  0.27680130  0.71124543  1  0  0.073473  0  1.009252  0  0  0.084918  0  1.077423  0  0  0.087545  0  1.076465  0  0.01251  0  0.084099  0.083076  0  1.078185  0
H  H24  1  0.18128532  0.22233706  0.10320951  1  0  0.093478  0  0.951073  0  0  0.112263  0  1.012152  0  0  0.112543  0  1.013069  0  0.075553  0  0.105486  0.111963  0  1.011603  0
H  H25  1  0.81871589  0.27766264  0.60320951  1  0  0.09349  0  0.951079  0  0  0.112282  0  1.01215  0  0  0.112559  0  1.013069  0  0.075538  0  0.105495  0.111982  0  1.011601  0
H  H26  1  0.81871687  0.77766234  0.89679049  1  0  0.093505  0  0.951067  0  0  0.112293  0  1.012135  0  0  0.112573  0  1.013052  0  0.075542  0  0.105507  0.111994  0  1.011586  0
H  H27  1  0.18128340  0.72233676  0.39679049  1  0  0.093482  0  0.951081  0  0  0.112275  0  1.012145  0  0  0.112554  0  1.013063  0  0.075567  0  0.105496  0.111975  0  1.011595  0
H  H28  1  0.04045626  0.12219871  0.01883686  1  0  0.075684  0  0.939857  0  0  0.091748  0  1.007594  0  0  0.092695  0  1.006898  0  0.031852  0  0.093501  0.090962  0  1.00816  0
H  H29  1  0.95954350  0.37780099  0.51883610  1  0  0.075691  0  0.939834  0  0  0.091756  0  1.007572  0  0  0.092703  0  1.006877  0  0.031863  0  0.093505  0.090971  0  1.008137  0
H  H30  1  0.95954592  0.87780069  0.98116314  1  0  0.075714  0  0.939825  0  0  0.091753  0  1.007589  0  0  0.092701  0  1.006894  0  0.031879  0  0.093481  0.090969  0  1.008154  0
H  H31  1  0.04045463  0.62219924  0.48116390  1  0  0.075711  0  0.939843  0  0  0.09175  0  1.007605  0  0  0.092697  0  1.006911  0  0.031876  0  0.093496  0.090965  0  1.008171  0
H  H32  1  0.91597152  0.19780912  0.10531879  1  0  0.06741  0  0.957379  0  0  0.081981  0  1.030993  0  0  0.082789  0  1.030361  0  0.046964  0  0.091805  0.081294  0  1.031531  0
H  H33  1  0.08403113  0.30219058  0.60531803  1  0  0.067412  0  0.957351  0  0  0.081967  0  1.030989  0  0  0.082776  0  1.030355  0  0.04695  0  0.09179  0.081274  0  1.031542  0
H  H34  1  0.08403211  0.80219028  0.89468045  1  0  0.067451  0  0.957352  0  0  0.081993  0  1.030986  0  0  0.0828  0  1.030356  0  0.046928  0  0.091815  0.0813  0  1.031538  0
H  H35  1  0.91596844  0.69780965  0.39468045  1  0  0.067452  0  0.957351  0  0  0.081992  0  1.030987  0  0  0.0828  0  1.030356  0  0.046933  0  0.091818  0.0813  0  1.031537  0
H  H36  1  0.75843259  0.28660802  0.96733886  1  0  0.049523  0  0.949009  0  0  0.059598  0  1.021875  0  0  0.060437  0  1.021035  0  0.059948  0  0.102327  0.058887  0  1.022611  0
H  H37  1  0.24156805  0.21339003  0.46733886  1  0  0.049543  0  0.948984  0  0  0.059621  0  1.021829  0  0  0.060463  0  1.020991  0  0.059949  0  0.102342  0.05891  0  1.022567  0
H  H38  1  0.24156932  0.71339056  0.03266038  1  0  0.049516  0  0.948956  0  0  0.059595  0  1.021835  0  0  0.060434  0  1.020994  0  0.059915  0  0.102328  0.058884  0  1.022569  0
H  H39  1  0.75843268  0.78660937  0.53266038  1  0  0.049533  0  0.948989  0  0  0.059603  0  1.021857  0  0  0.060442  0  1.021017  0  0.059924  0  0.102331  0.058893  0  1.022593  0
H  H40  1  0.85262128  0.19117194  0.88850838  1  0  0.065483  0  0.914322  0  0  0.084358  0  0.969704  0  0  0.083537  0  0.971479  0  0.060012  0  0.106884  0.084866  0  0.96854  0
H  H41  1  0.14737964  0.30882694  0.38850838  1  0  0.065493  0  0.914318  0  0  0.084331  0  0.969725  0  0  0.083511  0  0.9715  0  0.060024  0  0.106866  0.084843  0  0.968557  0
H  H42  1  0.14738409  0.80882829  0.11149162  1  0  0.065467  0  0.914309  0  0  0.084325  0  0.969722  0  0  0.083505  0  0.971497  0  0.060024  0  0.106867  0.084835  0  0.968555  0
H  H43  1  0.85262110  0.69117246  0.61149162  1  0  0.065493  0  0.914315  0  0  0.084355  0  0.9697  0  0  0.083535  0  0.971475  0  0.060023  0  0.106878  0.084866  0  0.968535  0
H  H44  1  0.04937161  0.34608834  0.78902811  1  0  0.056248  0  0.927982  0  0  0.069161  0  0.994601  0  0  0.069318  0  0.994793  0  0.054891  0  0.103571  0.068929  0  0.994624  0
H  H45  1  0.95062931  0.15391054  0.28902735  1  0  0.056261  0  0.927986  0  0  0.06917  0  0.994608  0  0  0.069325  0  0.994799  0  0.054932  0  0.103571  0.068937  0  0.994632  0
H  H46  1  0.95063202  0.65391107  0.21097189  1  0  0.05627  0  0.928022  0  0  0.069177  0  0.994638  0  0  0.069332  0  0.99483  0  0.054894  0  0.103581  0.068944  0  0.994662  0
H  H47  1  0.04937026  0.84608969  0.71097189  1  0  0.056265  0  0.928019  0  0  0.069162  0  0.994644  0  0  0.069318  0  0.994835  0  0.054878  0  0.103567  0.068929  0  0.994667  0
H  H48  1  0.78893475  0.34485620  0.78662326  1  0  0.058617  0  0.943252  0  0  0.072183  0  1.009637  0  0  0.071571  0  1.011121  0  0.062858  0  0.10409  0.072491  0  1.008746  0
H  H49  1  0.21106645  0.15514350  0.28662326  1  0  0.058632  0  0.943212  0  0  0.072206  0  1.009588  0  0  0.071594  0  1.011071  0  0.062843  0  0.104101  0.072514  0  1.008697  0
H  H50  1  0.21106743  0.65514320  0.21337674  1  0  0.058635  0  0.943205  0  0  0.072211  0  1.009577  0  0  0.071599  0  1.011059  0  0.062841  0  0.104099  0.072519  0  1.008687  0
H  H51  1  0.78893312  0.84485673  0.71337674  1  0  0.058629  0  0.943235  0  0  0.072203  0  1.009603  0  0  0.071591  0  1.011086  0  0.062837  0  0.104098  0.072511  0  1.008712  0
H  H52  1  0.08371312  0.53160169  0.73749972  1  0  0.081477  0  0.984309  0  0  0.09729  0  1.05007  0  0  0.096365  0  1.053195  0  0.074772  0  0.093872  0.097769  0  1.048092  0
H  H53  1  0.91628888  0.96839824  0.23749972  1  0  0.081468  0  0.984329  0  0  0.097264  0  1.050101  0  0  0.096339  0  1.053225  0  0.074779  0  0.093873  0.097743  0  1.048123  0
H  H54  1  0.91628790  0.46839854  0.26249953  1  0  0.081463  0  0.984313  0  0  0.09726  0  1.050083  0  0  0.096336  0  1.053208  0  0.07478  0  0.093874  0.09774  0  1.048105  0
H  H55  1  0.08371186  0.03160117  0.76250028  1  0  0.081452  0  0.984325  0  0  0.097249  0  1.050097  0  0  0.096323  0  1.053222  0  0.07477  0  0.093865  0.097729  0  1.048118  0
H  H56  1  0.03659450  0.62900572  0.82964235  1  0  0.089267  0  0.958481  0  0  0.106874  0  1.022564  0  0  0.107071  0  1.022904  0  0.065339  0  0.104667  0.106614  0  1.022443  0
H  H57  1  0.96340866  0.87099338  0.32964159  1  0  0.089249  0  0.958495  0  0  0.106853  0  1.022585  0  0  0.107051  0  1.022925  0  0.065347  0  0.10468  0.106593  0  1.022464  0
H  H58  1  0.96340652  0.37099451  0.17035689  1  0  0.089252  0  0.958473  0  0  0.106856  0  1.022558  0  0  0.107052  0  1.022899  0  0.065297  0  0.104671  0.106596  0  1.022438  0
H  H59  1  0.03659352  0.12900602  0.67035841  1  0  0.089277  0  0.958492  0  0  0.10688  0  1.022573  0  0  0.107076  0  1.022914  0  0.065363  0  0.104685  0.10662  0  1.022452  0
H  H60  1  0.83318807  0.54860716  0.76072305  1  0  0.075029  0  0.976339  0  0  0.088498  0  1.04703  0  0  0.088845  0  1.047659  0  0.060946  0  0.090443  0.088053  0  1.046845  0
H  H61  1  0.16681538  0.95139277  0.26072305  1  0  0.075005  0  0.976312  0  0  0.088452  0  1.047027  0  0  0.088799  0  1.047657  0  0.060931  0  0.090434  0.088007  0  1.046841  0
H  H62  1  0.16681267  0.45139224  0.23927695  1  0  0.07504  0  0.976263  0  0  0.088483  0  1.046983  0  0  0.088829  0  1.047613  0  0.060959  0  0.090457  0.088038  0  1.046797  0
H  H63  1  0.83318709  0.04860746  0.73927771  1  0  0.075023  0  0.97629  0  0  0.088467  0  1.047009  0  0  0.088813  0  1.047638  0  0.060943  0  0.090445  0.088022  0  1.046823  0
H  H64  1  0.49805738  0.69341376  0.94035438  1  0  0.244137  0  1.002693  0  0  0.244899  0  1.060516  0  0  0.249558  0  1.057329  0  0.343475  0  0.245654  0.241624  0  1.062728  0
H  H65  1  0.50194317  0.80658617  0.44035514  1  0  0.244108  0  1.002732  0  0  0.244865  0  1.060565  0  0  0.249524  0  1.057378  0  0.34346  0  0.245636  0.241591  0  1.062776  0
H  H66  1  0.50194103  0.30658729  0.05964486  1  0  0.244144  0  1.002693  0  0  0.244903  0  1.060519  0  0  0.249563  0  1.05733  0  0.34349  0  0.245672  0.241629  0  1.06273  0
H  H67  1  0.49805757  0.19341323  0.55964562  1  0  0.244102  0  1.002742  0  0  0.244859  0  1.060572  0  0  0.249518  0  1.057383  0  0.343464  0  0.245636  0.241586  0  1.062783  0
C  C68  1  0.46806128  0.60696435  0.81575120  1  0  0.327238  0  3.972138  0  0  0.32926  0  4.20656  0  0  0.343436  0  4.226555  0  0.479456  0  0.069065  0.319887  0  4.19273  0
C  C69  1  0.53194100  0.89303640  0.31575044  1  0  0.327244  0  3.972114  0  0  0.329281  0  4.206515  0  0  0.343454  0  4.226513  0  0.479615  0  0.06908  0.319907  0  4.192689  0
C  C70  1  0.53193537  0.39304001  0.18424728  1  0  0.327173  0  3.972152  0  0  0.329151  0  4.206647  0  0  0.343328  0  4.22664  0  0.480041  0  0.069002  0.319775  0  4.192823  0
C  C71  1  0.46805945  0.10696217  0.68425184  1  0  0.327108  0  3.972221  0  0  0.329217  0  4.206523  0  0  0.343389  0  4.226522  0  0.479578  0  0.069009  0.319838  0  4.192703  0
C  C72  1  0.46218959  0.50427089  0.76392420  1  0  -0.237978  0  3.761113  0  0  -0.245107  0  4.002042  0  0  -0.253307  0  4.021321  0  -0.115495  0  -0.127127  -0.239875  0  3.989273  0
C  C73  1  0.53781068  0.99572822  0.26392648  1  0  -0.238029  0  3.761022  0  0  -0.245212  0  4.001943  0  0  -0.253417  0  4.021223  0  -0.115488  0  -0.127171  -0.23998  0  3.989175  0
C  C74  1  0.53780856  0.49572521  0.23607808  1  0  -0.237873  0  3.761279  0  0  -0.245036  0  4.002211  0  0  -0.253239  0  4.021493  0  -0.115512  0  -0.127104  -0.239803  0  3.98944  0
C  C75  1  0.46219091  0.00427366  0.73607200  1  0  -0.237914  0  3.761036  0  0  -0.245085  0  4.001923  0  0  -0.253286  0  4.021205  0  -0.115479  0  -0.127121  -0.239852  0  3.989158  0
C  C76  1  0.42695267  0.49344923  0.65997994  1  0  -0.078987  0  3.90438  0  0  -0.09167  0  4.150899  0  0  -0.088263  0  4.170969  0  -0.089491  0  -0.114477  -0.093433  0  4.136975  0
C  C77  1  0.57305027  0.00655130  0.15997842  1  0  -0.07893  0  3.90426  0  0  -0.091609  0  4.150776  0  0  -0.088197  0  4.170849  0  -0.089473  0  -0.114452  -0.093372  0  4.136853  0
C  C78  1  0.57304196  0.50655348  0.34001702  1  0  -0.078947  0  3.904361  0  0  -0.091642  0  4.150891  0  0  -0.088232  0  4.170961  0  -0.089475  0  -0.114459  -0.093404  0  4.136969  0
C  C79  1  0.42695104  0.99344975  0.84002462  1  0  -0.079038  0  3.904248  0  0  -0.091722  0  4.15076  0  0  -0.088318  0  4.170829  0  -0.089485  0  -0.114493  -0.093482  0  4.13684  0
C  C80  1  0.39473915  0.58263378  0.60069828  1  0  -0.180809  0  3.871724  0  0  -0.191  0  4.121768  0  0  -0.199324  0  4.146619  0  -0.101605  0  -0.145394  -0.185536  0  4.104672  0
C  C81  1  0.60525995  0.91736615  0.10069980  1  0  -0.180738  0  3.87181  0  0  -0.190913  0  4.121835  0  0  -0.199232  0  4.146678  0  -0.101543  0  -0.145334  -0.185455  0  4.104738  0
C  C82  1  0.60525869  0.41736562  0.39930324  1  0  -0.180834  0  3.871584  0  0  -0.191026  0  4.121644  0  0  -0.199351  0  4.146494  0  -0.101726  0  -0.145414  -0.185565  0  4.104545  0
C  C83  1  0.39474281  0.08263491  0.89929868  1  0  -0.180582  0  3.871902  0  0  -0.190768  0  4.121931  0  0  -0.199085  0  4.146778  0  -0.10155  0  -0.14526  -0.185311  0  4.104832  0
C  C84  1  0.40230882  0.68463107  0.64907795  1  0  -0.059742  0  3.872784  0  0  -0.071077  0  4.116364  0  0  -0.067132  0  4.136125  0  -0.063235  0  -0.106997  -0.073302  0  4.102621  0
C  C85  1  0.59769347  0.81536968  0.14907415  1  0  -0.059787  0  3.872524  0  0  -0.071042  0  4.116094  0  0  -0.067099  0  4.135856  0  -0.063304  0  -0.107005  -0.073269  0  4.102354  0
C  C86  1  0.59768641  0.31536916  0.35091977  1  0  -0.059782  0  3.873048  0  0  -0.071117  0  4.116636  0  0  -0.067173  0  4.1364  0  -0.062877  0  -0.106976  -0.073343  0  4.102891  0
C  C87  1  0.40230699  0.18462889  0.85092889  1  0  -0.059801  0  3.872464  0  0  -0.071116  0  4.116039  0  0  -0.067175  0  4.135799  0  -0.063054  0  -0.107041  -0.073341  0  4.102299  0
C  C88  1  0.43980395  0.69694913  0.75260658  1  0  -0.24927  0  3.774466  0  0  -0.256096  0  4.014876  0  0  -0.265686  0  4.036765  0  -0.121672  0  -0.133042  -0.249769  0  4.000021  0
C  C89  1  0.56019487  0.80304997  0.25261114  1  0  -0.249282  0  3.774244  0  0  -0.256104  0  4.014615  0  0  -0.265693  0  4.036502  0  -0.121845  0  -0.133015  -0.24978  0  3.999766  0
C  C90  1  0.56019043  0.30304862  0.24739645  1  0  -0.249199  0  3.774425  0  0  -0.255999  0  4.014824  0  0  -0.265588  0  4.036712  0  -0.122213  0  -0.133018  -0.24967  0  3.999969  0
C  C91  1  0.43980556  0.19695274  0.74738810  1  0  -0.249309  0  3.774152  0  0  -0.256151  0  4.014533  0  0  -0.26574  0  4.036418  0  -0.121815  0  -0.133051  -0.249828  0  3.999687  0
C  C92  1  0.04748048  0.20262536  0.05661771  1  0  -0.07935  0  3.673775  0  0  -0.16982  0  3.93602  0  0  -0.164741  0  3.941421  0  0.384464  0  -0.143565  -0.173031  0  3.9322  0
C  C93  1  0.95252044  0.29737352  0.55661695  1  0  -0.079434  0  3.673885  0  0  -0.169914  0  3.936143  0  0  -0.164834  0  3.941546  0  0.384502  0  -0.143626  -0.173125  0  3.93232  0
C  C94  1  0.95252170  0.79737405  0.94338229  1  0  -0.079491  0  3.673925  0  0  -0.169927  0  3.936164  0  0  -0.16485  0  3.941567  0  0.384512  0  -0.143612  -0.17314  0  3.932342  0
C  C95  1  0.04747885  0.70262588  0.44338229  1  0  -0.079453  0  3.673907  0  0  -0.169885  0  3.936155  0  0  -0.164807  0  3.941557  0  0.384483  0  -0.143605  -0.173097  0  3.932333  0
C  C96  1  0.88651750  0.27525039  0.92094842  1  0  0.053715  0  3.670305  0  0  -0.002249  0  3.937561  0  0  0.003443  0  3.944266  0  0.426151  0  -0.070425  -0.00605  0  3.932922  0
C  C97  1  0.11348371  0.22474931  0.42094766  1  0  0.053623  0  3.670314  0  0  -0.002299  0  3.93752  0  0  0.003387  0  3.944227  0  0.425999  0  -0.070456  -0.006104  0  3.932886  0
C  C98  1  0.11348614  0.72474901  0.07905158  1  0  0.053687  0  3.670157  0  0  -0.002302  0  3.937463  0  0  0.003386  0  3.944167  0  0.426009  0  -0.070447  -0.0061  0  3.93282  0
C  C99  1  0.88651586  0.77525092  0.57905158  1  0  0.053641  0  3.670353  0  0  -0.002307  0  3.937587  0  0  0.003383  0  3.944292  0  0.425967  0  -0.070459  -0.006111  0  3.93295  0
C  C100  1  0.92141376  0.35769206  0.83534865  1  0  0.050169  0  3.665389  0  0  -0.006207  0  3.931805  0  0  -5e-05  0  3.93795  0  0.389627  0  -0.073827  -0.010343  0  3.927668  0
C  C101  1  0.07858716  0.14230682  0.33534865  1  0  0.050174  0  3.665356  0  0  -0.006211  0  3.93176  0  0  -4.9e-05  0  3.937894  0  0.389754  0  -0.073804  -0.010346  0  3.927623  0
C  C102  1  0.07858697  0.64230735  0.16465059  1  0  0.050166  0  3.665365  0  0  -0.006202  0  3.931787  0  0  -3.8e-05  0  3.937921  0  0.389813  0  -0.073805  -0.010338  0  3.927648  0
C  C103  1  0.92141213  0.85769258  0.66465135  1  0  0.050141  0  3.665438  0  0  -0.006215  0  3.931823  0  0  -5.4e-05  0  3.937961  0  0.389606  0  -0.073805  -0.010348  0  3.927682  0
C  C104  1  0.97855970  0.54865836  0.79527236  1  0  -0.092468  0  3.63861  0  0  -0.179206  0  3.894416  0  0  -0.173738  0  3.899725  0  0.330324  0  -0.153193  -0.182651  0  3.890906  0
C  C105  1  0.02144230  0.95134157  0.29527160  1  0  -0.092383  0  3.638612  0  0  -0.179086  0  3.894432  0  0  -0.17362  0  3.899744  0  0.3303  0  -0.153174  -0.182532  0  3.890921  0
C  C106  1  0.02143987  0.45134187  0.20472764  1  0  -0.092361  0  3.638548  0  0  -0.179051  0  3.89436  0  0  -0.173584  0  3.899673  0  0.330344  0  -0.15315  -0.182498  0  3.890852  0
C  C107  1  0.97855872  0.04865866  0.70472840  1  0  -0.092391  0  3.6386  0  0  -0.179077  0  3.894409  0  0  -0.173609  0  3.899722  0  0.330279  0  -0.153153  -0.182523  0  3.890898  0
N  N108  1  0.49576266  0.61356850  0.91803220  1  0  -0.960459  0  2.851459  0  0  -0.921651  0  3.109618  0  0  -0.943873  0  3.107551  0  -1.326423  0  -0.762398  -0.906013  0  3.110616  0
N  N109  1  0.50423905  0.88643060  0.41803296  1  0  -0.960499  0  2.851349  0  0  -0.921699  0  3.109518  0  0  -0.943918  0  3.107448  0  -1.326437  0  -0.762458  -0.906059  0  3.110516  0
N  N110  1  0.50423663  0.38643090  0.08196780  1  0  -0.960445  0  2.851533  0  0  -0.921625  0  3.10972  0  0  -0.943846  0  3.107653  0  -1.32646  0  -0.762381  -0.905987  0  3.11072  0
N  N111  1  0.49576225  0.11357045  0.58196780  1  0  -0.960468  0  2.851311  0  0  -0.921685  0  3.109438  0  0  -0.943905  0  3.107371  0  -1.326394  0  -0.762434  -0.906042  0  3.110438  0
O  O112  1  0.95965872  0.46799636  0.87596061  1  0  -0.357054  0  2.287075  0  0  -0.280543  0  2.546543  0  0  -0.294765  0  2.54496  0  -1.074183  0  -0.307335  -0.270626  0  2.547405  0
O  O113  1  0.04034221  0.03200252  0.37596061  1  0  -0.357087  0  2.287147  0  0  -0.280582  0  2.546625  0  0  -0.294804  0  2.545035  0  -1.074178  0  -0.307376  -0.270667  0  2.547487  0
O  O114  1  0.04034202  0.53200304  0.12403863  1  0  -0.357139  0  2.287149  0  0  -0.280638  0  2.546629  0  0  -0.29486  0  2.545038  0  -1.074213  0  -0.307403  -0.270722  0  2.547493  0
O  O115  1  0.95965737  0.96799771  0.62403939  1  0  -0.357084  0  2.287149  0  0  -0.280593  0  2.546619  0  0  -0.294812  0  2.545028  0  -1.073919  0  -0.307396  -0.270677  0  2.547481  0
O  O116  1  0.05908815  0.28898723  0.98339323  1  0  -0.323491  0  2.327031  0  0  -0.248392  0  2.588076  0  0  -0.263508  0  2.589058  0  -1.090678  0  -0.288889  -0.237741  0  2.586969  0
O  O117  1  0.94091162  0.21101247  0.48339323  1  0  -0.323396  0  2.327179  0  0  -0.248286  0  2.588196  0  0  -0.263402  0  2.589179  0  -1.090682  0  -0.288821  -0.237633  0  2.58709  0
O  O118  1  0.94091433  0.71101300  0.01660677  1  0  -0.323438  0  2.327163  0  0  -0.248294  0  2.588168  0  0  -0.263409  0  2.589151  0  -1.090675  0  -0.288851  -0.237643  0  2.58706  0
O  O119  1  0.05908796  0.78898776  0.51660601  1  0  -0.323421  0  2.327137  0  0  -0.248317  0  2.588155  0  0  -0.263432  0  2.589137  0  -1.090671  0  -0.288862  -0.237664  0  2.587049  0
