# generated using pymatgen
data_TbP3H33C18(NO5)3
_symmetry_space_group_name_H-M   'P 1'
_cell_length_a   12.33909570
_cell_length_b   12.33887541
_cell_length_c   18.71645377
_cell_angle_alpha   89.99993219
_cell_angle_beta   89.99957648
_cell_angle_gamma   90.00059671
_symmetry_Int_Tables_number   1
_chemical_formula_structural   TbP3H33C18(NO5)3
_chemical_formula_sum   'Tb4 P12 H132 C72 N12 O60'
_cell_volume   2849.59065277
_cell_formula_units_Z   4
loop_
 _symmetry_equiv_pos_site_id
 _symmetry_equiv_pos_as_xyz
  1  'x, y, z'
loop_
 _atom_site_type_symbol
 _atom_site_label
 _atom_site_symmetry_multiplicity
 _atom_site_fract_x
 _atom_site_fract_y
 _atom_site_fract_z
 _atom_site_occupancy
 _atom_site_pbe_bader_charge
 _atom_site_pbe_bader_spin_density
 _atom_site_pbe_cm5_charge
 _atom_site_pbe_ddec_charge
 _atom_site_pbe_ddec_spin_density
 _atom_site_pbe_ddec_sum_bond_order
 _atom_site_pbe_magmom
Tb  Tb0  1  0.96251919  0.07024145  0.11668586  1  2.199492  0  1.593819  2.250948  0  2.173021  0
Tb  Tb1  1  0.03747658  0.92976266  0.61668314  1  2.199457  0  1.593735  2.250942  0  2.173198  0
Tb  Tb2  1  0.92974127  0.96251038  0.36669129  1  2.199499  0  1.593995  2.251148  0  2.173108  0
Tb  Tb3  1  0.07026305  0.03749004  0.86668590  1  2.199313  0  1.594006  2.251076  0  2.173022  0
P  P4  1  0.02941892  0.20050844  0.28955630  1  3.407726  0  0.379474  1.37951  0  5.32714  0
P  P5  1  0.97058546  0.79949455  0.78957478  1  3.408255  0  0.379444  1.379433  0  5.327275  0
P  P6  1  0.79947873  0.02942127  0.53955324  1  3.409309  0  0.379381  1.379497  0  5.327032  0
P  P7  1  0.20051709  0.97058055  0.03955470  1  3.409338  0  0.379405  1.379432  0  5.327055  0
P  P8  1  0.07387566  0.26610803  0.98846848  1  3.416288  0  0.367531  1.382184  0  5.355596  0
P  P9  1  0.92612892  0.73388326  0.48847140  1  3.415901  0  0.367552  1.38222  0  5.355489  0
P  P10  1  0.73388670  0.07387663  0.23845575  1  3.415079  0  0.367392  1.381928  0  5.355583  0
P  P11  1  0.26611824  0.92612645  0.73846527  1  3.415776  0  0.367303  1.381876  0  5.355653  0
P  P12  1  0.81368845  0.07297844  0.94195688  1  3.402739  0  0.370053  1.371414  0  5.375586  0
P  P13  1  0.18631746  0.92702509  0.44195417  1  3.402306  0  0.370019  1.371175  0  5.37568  0
P  P14  1  0.92702166  0.81367443  0.19195579  1  3.402505  0  0.370029  1.371151  0  5.375385  0
P  P15  1  0.07297813  0.18633035  0.69196897  1  3.402155  0  0.370113  1.371318  0  5.375231  0
H  H16  1  0.15305055  0.30295435  0.34917890  1  0.652552  0  0.295766  0.375761  0  0.976996  0
H  H17  1  0.84694992  0.69704772  0.84918203  1  0.652549  0  0.295758  0.375696  0  0.977071  0
H  H18  1  0.69704123  0.15305270  0.59917264  1  0.652694  0  0.295766  0.375711  0  0.977034  0
H  H19  1  0.30295879  0.84694334  0.09916889  1  0.652757  0  0.295772  0.37577  0  0.97696  0
H  H20  1  0.18340985  0.39038819  0.04971875  1  0.662291  0  0.294655  0.376964  0  0.98062  0
H  H21  1  0.81659073  0.60961280  0.54971783  1  0.662315  0  0.294701  0.377109  0  0.980426  0
H  H22  1  0.60962742  0.18341184  0.29970799  1  0.662494  0  0.294745  0.377263  0  0.980277  0
H  H23  1  0.39037198  0.81658951  0.79970898  1  0.662484  0  0.294755  0.377225  0  0.980344  0
H  H24  1  0.67522650  0.18893882  0.97971485  1  0.653152  0  0.29236  0.374661  0  0.9837  0
H  H25  1  0.32477412  0.81106383  0.47971423  1  0.653058  0  0.292343  0.374588  0  0.983793  0
H  H26  1  0.81107787  0.67520737  0.22970206  1  0.653184  0  0.292373  0.374643  0  0.983746  0
H  H27  1  0.18892312  0.32479654  0.72970495  1  0.653075  0  0.292336  0.374569  0  0.983861  0
H  H28  1  0.94282344  0.38337014  0.37617992  1  0.534077  0  0.311457  0.255466  0  0.976607  0
H  H29  1  0.05717673  0.61663350  0.87617895  1  0.533353  0  0.311475  0.255484  0  0.976588  0
H  H30  1  0.61660980  0.94282115  0.62617337  1  0.534139  0  0.311516  0.255484  0  0.976403  0
H  H31  1  0.38339073  0.05717970  0.12617305  1  0.534133  0  0.311514  0.255507  0  0.976409  0
H  H32  1  0.97002054  0.45916517  0.04669433  1  0.541641  0  0.310359  0.255509  0  0.967992  0
H  H33  1  0.02998331  0.54083583  0.54669463  1  0.541773  0  0.310364  0.255542  0  0.967968  0
H  H34  1  0.54084853  0.97000262  0.29669446  1  0.542063  0  0.310464  0.255653  0  0.967852  0
H  H35  1  0.45914766  0.02999306  0.79669520  1  0.542064  0  0.310442  0.255585  0  0.967843  0
H  H36  1  0.61189771  0.96968063  0.98346488  1  0.528339  0  0.312714  0.256431  0  0.956248  0
H  H37  1  0.38810369  0.03031796  0.48346509  1  0.528316  0  0.312705  0.256477  0  0.95609  0
H  H38  1  0.03032096  0.61188148  0.23346859  1  0.528359  0  0.312722  0.256355  0  0.956231  0
H  H39  1  0.96967513  0.38811756  0.73346976  1  0.528385  0  0.312741  0.256388  0  0.956196  0
H  H40  1  0.73736807  0.39649028  0.29341474  1  0.090612  0  0.12599  0.099554  0  0.95094  0
H  H41  1  0.26262978  0.60351190  0.79341331  1  0.090749  0  0.125971  0.099516  0  0.95099  0
H  H42  1  0.60349559  0.73736402  0.54340834  1  0.090677  0  0.125905  0.099456  0  0.950903  0
H  H43  1  0.39650506  0.26263536  0.04340779  1  0.090694  0  0.125912  0.099482  0  0.950901  0
H  H44  1  0.75915243  0.53003242  0.42771999  1  0.107652  0  0.09598  0.113627  0  1.027811  0
H  H45  1  0.24084716  0.46996627  0.92771984  1  0.107646  0  0.095993  0.11361  0  1.02774  0
H  H46  1  0.46995761  0.75913666  0.67771508  1  0.107404  0  0.095932  0.113642  0  1.027974  0
H  H47  1  0.53003991  0.24086491  0.17771604  1  0.107407  0  0.095924  0.113613  0  1.027902  0
H  H48  1  0.64594703  0.45787537  0.39339275  1  0.014392  0  0.09788  0.101264  0  0.97912  0
H  H49  1  0.35405213  0.54212905  0.89339039  1  0.01441  0  0.097856  0.101163  0  0.979124  0
H  H50  1  0.54210999  0.64594037  0.64339061  1  0.014317  0  0.097811  0.101145  0  0.979045  0
H  H51  1  0.45788630  0.35406126  0.14339183  1  0.014185  0  0.097813  0.101129  0  0.979073  0
H  H52  1  0.69299629  0.31725981  0.47553164  1  0.069646  0  0.097369  0.102371  0  1.009453  0
H  H53  1  0.30700276  0.68274447  0.97552994  1  0.069635  0  0.097361  0.102337  0  1.00944  0
H  H54  1  0.68272867  0.69300285  0.72552760  1  0.06983  0  0.097322  0.10229  0  1.009408  0
H  H55  1  0.31726751  0.30699620  0.22552847  1  0.069794  0  0.09732  0.102263  0  1.00946  0
H  H56  1  0.81805674  0.38192193  0.49425548  1  0.044153  0  0.092331  0.093822  0  1.001384  0
H  H57  1  0.18194372  0.61808231  0.99425444  1  0.044165  0  0.092344  0.09384  0  1.001439  0
H  H58  1  0.61805835  0.81806414  0.74424974  1  0.043985  0  0.092374  0.093862  0  1.00135  0
H  H59  1  0.38193762  0.18193731  0.24424986  1  0.04406  0  0.092382  0.093881  0  1.001361  0
H  H60  1  0.76563459  0.22315608  0.37340692  1  0.08989  0  0.116691  0.107527  0  0.993292  0
H  H61  1  0.23436479  0.77684514  0.87340443  1  0.089858  0  0.11668  0.107485  0  0.99324  0
H  H62  1  0.77682728  0.76563728  0.62339635  1  0.08998  0  0.116664  0.107574  0  0.993135  0
H  H63  1  0.22317166  0.23436033  0.12339614  1  0.089985  0  0.116672  0.107528  0  0.993137  0
H  H64  1  0.88299379  0.22583760  0.42848010  1  0.125493  0  0.120822  0.117175  0  0.992997  0
H  H65  1  0.11700254  0.77416676  0.92848032  1  0.125708  0  0.120854  0.117215  0  0.992985  0
H  H66  1  0.77414424  0.88300529  0.67847352  1  0.125634  0  0.12089  0.117342  0  0.992836  0
H  H67  1  0.22585409  0.11699304  0.17847338  1  0.125601  0  0.120876  0.117307  0  0.992884  0
H  H68  1  0.94333948  0.36039005  0.24606180  1  0.101567  0  0.124185  0.14396  0  1.003878  0
H  H69  1  0.05665890  0.63961221  0.74606188  1  0.101611  0  0.124186  0.143982  0  1.003849  0
H  H70  1  0.63959682  0.94334899  0.49605572  1  0.101311  0  0.124226  0.144005  0  1.003575  0
H  H71  1  0.36040606  0.05665120  0.99605638  1  0.10128  0  0.124243  0.144065  0  1.003525  0
H  H72  1  0.84720378  0.25344057  0.25712934  1  0.11226  0  0.126794  0.138163  0  1.041235  0
H  H73  1  0.15279204  0.74655924  0.75712941  1  0.111943  0  0.126799  0.138236  0  1.041159  0
H  H74  1  0.74654331  0.84720868  0.50712116  1  0.112412  0  0.126756  0.138154  0  1.041164  0
H  H75  1  0.25346098  0.15279158  0.00712140  1  0.112421  0  0.126776  0.138199  0  1.041139  0
H  H76  1  0.76557654  0.44644656  0.96233891  1  0.089304  0  0.125284  0.098762  0  0.953788  0
H  H77  1  0.23442914  0.55355693  0.46233840  1  0.089609  0  0.125318  0.098775  0  0.953773  0
H  H78  1  0.55355066  0.76556274  0.21233452  1  0.089463  0  0.125254  0.098812  0  0.953768  0
H  H79  1  0.44644891  0.23443391  0.71233355  1  0.089513  0  0.125286  0.098802  0  0.953734  0
H  H80  1  0.81891272  0.59829210  0.08730918  1  0.08351  0  0.099305  0.112804  0  0.998376  0
H  H81  1  0.18108825  0.40170558  0.58730617  1  0.083536  0  0.099318  0.112825  0  0.998366  0
H  H82  1  0.40173846  0.81891597  0.33731848  1  0.083563  0  0.099414  0.112844  0  0.998384  0
H  H83  1  0.59826214  0.18108126  0.83731788  1  0.083538  0  0.099409  0.112848  0  0.998371  0
H  H84  1  0.68965856  0.56732105  0.05110607  1  0.03785  0  0.101917  0.10575  0  0.995073  0
H  H85  1  0.31034039  0.43267670  0.55110561  1  0.037734  0  0.101886  0.10569  0  0.995149  0
H  H86  1  0.43268029  0.68965722  0.30111875  1  0.037502  0  0.101958  0.105786  0  0.994953  0
H  H87  1  0.56731828  0.31034008  0.80111607  1  0.037535  0  0.101952  0.1058  0  0.994996  0
H  H88  1  0.68572430  0.39441462  0.10955899  1  0.058094  0  0.099382  0.104518  0  0.988659  0
H  H89  1  0.31428290  0.60558140  0.60956533  1  0.058115  0  0.099366  0.104483  0  0.988661  0
H  H90  1  0.60560509  0.68571281  0.35955034  1  0.057771  0  0.099272  0.104334  0  0.988815  0
H  H91  1  0.39439445  0.31428843  0.85955117  1  0.057749  0  0.099257  0.104301  0  0.988845  0
H  H92  1  0.78424043  0.45444081  0.16614744  1  0.025074  0  0.094045  0.093339  0  1.014771  0
H  H93  1  0.21575236  0.54555024  0.66614735  1  0.024735  0  0.094052  0.093306  0  1.014747  0
H  H94  1  0.54560008  0.78423520  0.41614130  1  0.025118  0  0.093949  0.093023  0  1.014946  0
H  H95  1  0.45440126  0.21576675  0.91614137  1  0.025116  0  0.093993  0.093093  0  1.014928  0
H  H96  1  0.91198441  0.32818933  0.11827379  1  0.089671  0  0.118803  0.093029  0  1.013144  0
H  H97  1  0.08802269  0.67181396  0.61827370  1  0.089771  0  0.118768  0.093024  0  1.013024  0
H  H98  1  0.67184771  0.91197040  0.36825580  1  0.089864  0  0.118801  0.093149  0  1.012794  0
H  H99  1  0.32815255  0.08802759  0.86826033  1  0.089734  0  0.118827  0.093163  0  1.012691  0
H  H100  1  0.81189533  0.28196504  0.05633230  1  0.087557  0  0.121057  0.099877  0  1.000798  0
H  H101  1  0.18811490  0.71803107  0.55633115  1  0.087514  0  0.121069  0.099974  0  1.000839  0
H  H102  1  0.71805108  0.81187891  0.30630489  1  0.087812  0  0.121161  0.100067  0  1.000909  0
H  H103  1  0.28194662  0.18812000  0.80631064  1  0.087821  0  0.121167  0.10009  0  1.000827  0
H  H104  1  0.97992450  0.40015014  0.91954772  1  0.127606  0  0.123251  0.146845  0  1.02164  0
H  H105  1  0.02007923  0.59985180  0.41954875  1  0.127638  0  0.123235  0.146771  0  1.021709  0
H  H106  1  0.59982364  0.97993912  0.16954096  1  0.127406  0  0.123255  0.146985  0  1.021425  0
H  H107  1  0.40017074  0.02006490  0.66954305  1  0.127488  0  0.123313  0.146988  0  1.021473  0
H  H108  1  0.89137192  0.29089011  0.94390195  1  0.090764  0  0.125902  0.144267  0  1.019747  0
H  H109  1  0.10863396  0.70911260  0.44390460  1  0.090644  0  0.125937  0.144306  0  1.019758  0
H  H110  1  0.70910009  0.89138378  0.19387226  1  0.090907  0  0.125862  0.144392  0  1.019565  0
H  H111  1  0.29089563  0.10861695  0.69387588  1  0.090833  0  0.125902  0.144429  0  1.019538  0
H  H112  1  0.65117305  0.76400656  0.90500128  1  0.100667  0  0.12819  0.111583  0  0.966223  0
H  H113  1  0.34882760  0.23599703  0.40500153  1  0.100633  0  0.128171  0.111588  0  0.966148  0
H  H114  1  0.23600199  0.65119172  0.15501572  1  0.100691  0  0.128149  0.111558  0  0.966172  0
H  H115  1  0.76399741  0.34880260  0.65501845  1  0.100677  0  0.128148  0.111504  0  0.96621  0
H  H116  1  0.45914217  0.76921025  0.00340200  1  0.044531  0  0.099759  0.108398  0  1.003221  0
H  H117  1  0.54086136  0.23079730  0.50340164  1  0.044816  0  0.099756  0.108405  0  1.003261  0
H  H118  1  0.23079260  0.45914168  0.25340731  1  0.044882  0  0.09974  0.108452  0  1.003135  0
H  H119  1  0.76920651  0.54085489  0.75340826  1  0.044933  0  0.099745  0.10843  0  1.003208  0
H  H120  1  0.55708414  0.66644038  0.98912753  1  0.066877  0  0.098833  0.099895  0  0.984822  0
H  H121  1  0.44291071  0.33356711  0.48912777  1  0.06666  0  0.098842  0.099937  0  0.984782  0
H  H122  1  0.33356977  0.55710416  0.23913882  1  0.066439  0  0.098837  0.099962  0  0.984778  0
H  H123  1  0.66643112  0.44289730  0.73913929  1  0.066432  0  0.098832  0.099934  0  0.984843  0
H  H124  1  0.63410076  0.73099041  0.10044829  1  0.050013  0  0.09948  0.102717  0  0.997335  0
H  H125  1  0.36590492  0.26900805  0.60045142  1  0.050101  0  0.099449  0.102693  0  0.997347  0
H  H126  1  0.26900322  0.63411317  0.35045384  1  0.049744  0  0.099472  0.102754  0  0.997375  0
H  H127  1  0.73099318  0.36588323  0.85045512  1  0.049597  0  0.099455  0.102732  0  0.997392  0
H  H128  1  0.55781951  0.85263401  0.09283373  1  0.051692  0  0.093697  0.088176  0  1.036885  0
H  H129  1  0.44218625  0.14736447  0.59283339  1  0.051615  0  0.093702  0.088192  0  1.0369  0
H  H130  1  0.14737240  0.55781305  0.34284322  1  0.051881  0  0.093735  0.088199  0  1.036782  0
H  H131  1  0.85262409  0.44218337  0.84284384  1  0.051957  0  0.093708  0.08817  0  1.036936  0
H  H132  1  0.74145744  0.91772844  0.06744811  1  0.117934  0  0.122924  0.119717  0  1.001028  0
H  H133  1  0.25854699  0.08227171  0.56745032  1  0.117998  0  0.122901  0.119734  0  1.001058  0
H  H134  1  0.08225284  0.74143967  0.31745922  1  0.117626  0  0.122839  0.119599  0  1.001177  0
H  H135  1  0.91774312  0.25855597  0.81746021  1  0.1177  0  0.122796  0.119564  0  1.001025  0
H  H136  1  0.77183858  0.79912221  0.01726764  1  0.077735  0  0.118788  0.110537  0  0.955936  0
H  H137  1  0.22816398  0.20088046  0.51727150  1  0.077879  0  0.118798  0.110616  0  0.955902  0
H  H138  1  0.20085274  0.77184424  0.26729076  1  0.077661  0  0.118732  0.110489  0  0.956119  0
H  H139  1  0.79914460  0.22815068  0.76728968  1  0.077614  0  0.118715  0.110445  0  0.956083  0
H  H140  1  0.70660057  0.96193903  0.86490159  1  0.104582  0  0.129667  0.158004  0  0.97495  0
H  H141  1  0.29340134  0.03806788  0.36490226  1  0.104616  0  0.129609  0.157993  0  0.975031  0
H  H142  1  0.03808200  0.70658313  0.11490121  1  0.104569  0  0.129571  0.157935  0  0.975045  0
H  H143  1  0.96191947  0.29341612  0.61490355  1  0.104652  0  0.129595  0.157994  0  0.974987  0
H  H144  1  0.80861550  0.88445353  0.90946644  1  0.100703  0  0.129481  0.155406  0  1.001007  0
H  H145  1  0.19138592  0.11555249  0.40946808  1  0.100686  0  0.129479  0.155384  0  1.001077  0
H  H146  1  0.11554906  0.80860656  0.15947406  1  0.100859  0  0.129444  0.155365  0  1.001116  0
H  H147  1  0.88445596  0.19139261  0.65947579  1  0.100861  0  0.129476  0.155425  0  1.001111  0
C  C148  1  0.79293128  0.43384564  0.33224513  1  0.223247  0  0.013379  -0.033478  0  3.736352  0
C  C149  1  0.20706533  0.56615890  0.83224347  1  0.223197  0  0.013388  -0.03348  0  3.736396  0
C  C150  1  0.56613717  0.79292477  0.58223735  1  0.223457  0  0.013477  -0.0333  0  3.736369  0
C  C151  1  0.43386466  0.20707373  0.08223720  1  0.223209  0  0.013428  -0.033376  0  3.736389  0
C  C152  1  0.73333990  0.45351642  0.40344519  1  -0.01642  0  -0.159247  -0.187027  0  3.851879  0
C  C153  1  0.26665833  0.54648312  0.90344325  1  -0.016533  0  -0.159216  -0.18683  0  3.851843  0
C  C154  1  0.54646646  0.73333651  0.65343680  1  -0.016182  0  -0.159177  -0.186923  0  3.852005  0
C  C155  1  0.45352971  0.26666429  0.15343651  1  -0.015972  0  -0.159187  -0.186915  0  3.852045  0
C  C156  1  0.76369143  0.35587069  0.45122290  1  -0.030182  0  -0.160487  -0.155777  0  3.882335  0
C  C157  1  0.23631032  0.64412472  0.95122103  1  -0.030176  0  -0.160575  -0.155888  0  3.882407  0
C  C158  1  0.64410236  0.76369064  0.70121964  1  -0.029965  0  -0.160516  -0.155827  0  3.882332  0
C  C159  1  0.35589328  0.23630846  0.20121878  1  -0.030029  0  -0.16049  -0.155794  0  3.882408  0
C  C160  1  0.82175794  0.27591561  0.40240051  1  0.188224  0  -0.060147  -0.064399  0  3.729073  0
C  C161  1  0.17824030  0.72408961  0.90240207  1  0.18802  0  -0.060076  -0.064275  0  3.728852  0
C  C162  1  0.72406908  0.82175960  0.65239874  1  0.187376  0  -0.060114  -0.064512  0  3.728673  0
C  C163  1  0.27592953  0.17823796  0.15239779  1  0.186876  0  -0.060121  -0.064366  0  3.728623  0
C  C164  1  0.91587178  0.29546094  0.28186194  1  -0.278084  0  -0.068601  -0.399656  0  3.806812  0
C  C165  1  0.08412620  0.70453963  0.78186291  1  -0.278069  0  -0.068622  -0.39969  0  3.806753  0
C  C166  1  0.70452100  0.91587758  0.53185776  1  -0.278722  0  -0.068717  -0.399711  0  3.806146  0
C  C167  1  0.29548058  0.08412182  0.03185731  1  -0.278687  0  -0.068808  -0.399916  0  3.806336  0
C  C168  1  0.84228812  0.53428215  0.29752472  1  1.584768  0  0.218544  0.571299  0  4.195032  0
C  C169  1  0.15771130  0.46572245  0.79752605  1  1.584721  0  0.21859  0.571358  0  4.194983  0
C  C170  1  0.46568942  0.84227318  0.54752854  1  1.583813  0  0.218676  0.571373  0  4.19525  0
C  C171  1  0.53431605  0.15772700  0.04753007  1  1.583711  0  0.218793  0.571552  0  4.194969  0
C  C172  1  0.82366191  0.49408327  0.99391899  1  0.207063  0  0.01071  -0.033135  0  3.749911  0
C  C173  1  0.17634261  0.50591368  0.49391772  1  0.20675  0  0.01071  -0.033007  0  3.749895  0
C  C174  1  0.50592492  0.82365203  0.24391805  1  0.206443  0  0.010791  -0.033228  0  3.749979  0
C  C175  1  0.49407429  0.17634699  0.74392010  1  0.206419  0  0.010811  -0.03317  0  3.750078  0
C  C176  1  0.77005319  0.53406073  0.06257494  1  -0.018071  0  -0.155147  -0.182719  0  3.872112  0
C  C177  1  0.22995049  0.46593943  0.56257485  1  -0.01803  0  -0.155127  -0.18274  0  3.872227  0
C  C178  1  0.46595456  0.77004963  0.31257808  1  -0.01763  0  -0.155369  -0.182935  0  3.87199  0
C  C179  1  0.53404551  0.22994845  0.81257775  1  -0.017548  0  -0.155352  -0.18295  0  3.872028  0
C  C180  1  0.76587137  0.43272890  0.11075025  1  -0.008063  0  -0.157212  -0.151067  0  3.848668  0
C  C181  1  0.23413258  0.56727036  0.61075166  1  -0.007509  0  -0.157165  -0.150925  0  3.848616  0
C  C182  1  0.56729476  0.76586497  0.36074133  1  -0.007142  0  -0.156921  -0.150323  0  3.848358  0
C  C183  1  0.43270558  0.23413627  0.86074150  1  -0.007231  0  -0.156948  -0.150391  0  3.848337  0
C  C184  1  0.85010745  0.35357061  0.08002684  1  0.201409  0  -0.053919  -0.063947  0  3.723066  0
C  C185  1  0.14990170  0.64642870  0.58002646  1  0.201153  0  -0.053947  -0.064104  0  3.723137  0
C  C186  1  0.64645757  0.85008865  0.33001039  1  0.199886  0  -0.054088  -0.064532  0  3.723148  0
C  C187  1  0.35354149  0.14991022  0.83001315  1  0.200122  0  -0.054114  -0.064575  0  3.722918  0
C  C188  1  0.95491404  0.34602673  0.96295827  1  -0.290768  0  -0.070266  -0.393812  0  3.763374  0
C  C189  1  0.04509083  0.65397190  0.46295967  1  -0.29025  0  -0.070212  -0.393683  0  3.763639  0
C  C190  1  0.65396256  0.95492087  0.21294061  1  -0.290496  0  -0.070243  -0.393969  0  3.763722  0
C  C191  1  0.34603700  0.04508388  0.71294563  1  -0.29045  0  -0.07028  -0.394078  0  3.763709  0
C  C192  1  0.87301957  0.58212887  0.94639220  1  1.594925  0  0.211764  0.563273  0  4.233498  0
C  C193  1  0.12697900  0.41787060  0.44639018  1  1.594808  0  0.211667  0.563174  0  4.233497  0
C  C194  1  0.41787686  0.87301106  0.19639535  1  1.595023  0  0.211642  0.563358  0  4.233509  0
C  C195  1  0.58212046  0.12698156  0.69640022  1  1.594932  0  0.211631  0.563202  0  4.23364  0
C  C196  1  0.59406281  0.81633678  0.93406513  1  0.236171  0  0.012964  -0.041823  0  3.725908  0
C  C197  1  0.40593994  0.18366838  0.43406621  1  0.236218  0  0.012946  -0.04182  0  3.725729  0
C  C198  1  0.18366949  0.59407357  0.18407693  1  0.235384  0  0.013067  -0.041937  0  3.72566  0
C  C199  1  0.81632553  0.40592718  0.68407669  1  0.235327  0  0.013011  -0.041782  0  3.725645  0
C  C200  1  0.54617126  0.75358764  0.99792994  1  -0.025403  0  -0.153657  -0.176932  0  3.856215  0
C  C201  1  0.45383321  0.24641902  0.49792966  1  -0.02559  0  -0.15364  -0.176952  0  3.856214  0
C  C202  1  0.24642065  0.54617320  0.24793397  1  -0.024415  0  -0.15364  -0.177106  0  3.85625  0
C  C203  1  0.75357771  0.45382419  0.74793614  1  -0.024474  0  -0.15361  -0.177036  0  3.856348  0
C  C204  1  0.60900546  0.79528467  0.06361282  1  -0.039189  0  -0.162541  -0.175849  0  3.910577  0
C  C205  1  0.39100144  0.20471630  0.56361375  1  -0.039285  0  -0.162497  -0.175772  0  3.910635  0
C  C206  1  0.20472387  0.60899794  0.31362117  1  -0.039487  0  -0.162583  -0.17577  0  3.910479  0
C  C207  1  0.79527456  0.39099609  0.81362319  1  -0.039399  0  -0.162554  -0.175813  0  3.910728  0
C  C208  1  0.70689399  0.85461962  0.03352406  1  0.218683  0  -0.057973  -0.059788  0  3.735766  0
C  C209  1  0.29310920  0.14538464  0.53352818  1  0.218463  0  -0.057989  -0.059947  0  3.735786  0
C  C210  1  0.14537336  0.70688421  0.28353812  1  0.218975  0  -0.057904  -0.059842  0  3.736041  0
C  C211  1  0.85462217  0.29311231  0.78353886  1  0.218886  0  -0.057772  -0.059551  0  3.735582  0
C  C212  1  0.74612498  0.94693944  0.91643530  1  -0.234295  0  -0.065227  -0.390513  0  3.785232  0
C  C213  1  0.25387717  0.05306575  0.41643615  1  -0.234046  0  -0.065233  -0.390585  0  3.785451  0
C  C214  1  0.05306681  0.74611188  0.16643923  1  -0.233954  0  -0.06517  -0.39053  0  3.785294  0
C  C215  1  0.94693408  0.25389133  0.66644328  1  -0.233592  0  -0.065196  -0.390636  0  3.785347  0
C  C216  1  0.51113749  0.85952672  0.88110016  1  1.611153  0  0.219727  0.572356  0  4.204668  0
C  C217  1  0.48886424  0.14047206  0.38109926  1  1.610902  0  0.219732  0.572303  0  4.204765  0
C  C218  1  0.14048791  0.51115660  0.13110923  1  1.61049  0  0.219875  0.572778  0  4.203841  0
C  C219  1  0.85951094  0.48884100  0.63110819  1  1.610197  0  0.219814  0.572571  0  4.204062  0
N  N220  1  0.87648062  0.34833421  0.34838424  1  -1.01505  0  -0.342045  0.019338  0  3.566526  0
N  N221  1  0.12351823  0.65167029  0.84838505  1  -1.01438  0  -0.342094  0.01923  0  3.566611  0
N  N222  1  0.65164864  0.87647901  0.59838012  1  -1.014486  0  -0.341987  0.019408  0  3.566077  0
N  N223  1  0.34835301  0.12351947  0.09837885  1  -1.013999  0  -0.341981  0.019336  0  3.566098  0
N  N224  1  0.90741619  0.41473051  0.02086055  1  -1.006122  0  -0.335772  0.020097  0  3.532877  0
N  N225  1  0.09259038  0.58526729  0.52086050  1  -1.006314  0  -0.335746  0.019998  0  3.533145  0
N  N226  1  0.58528435  0.90740479  0.27085241  1  -1.005569  0  -0.335764  0.020177  0  3.533091  0
N  N227  1  0.41471537  0.09259500  0.77085545  1  -1.005847  0  -0.33583  0.020322  0  3.532795  0
N  N228  1  0.66238009  0.90521231  0.96659727  1  -1.026382  0  -0.338504  0.022206  0  3.56875  0
N  N229  1  0.33762311  0.09479280  0.46659928  1  -1.026226  0  -0.338433  0.022261  0  3.568489  0
N  N230  1  0.09479200  0.66237185  0.21660518  1  -1.026423  0  -0.338515  0.022491  0  3.568366  0
N  N231  1  0.90520428  0.33763046  0.71660670  1  -1.026473  0  -0.338618  0.022276  0  3.568356  0
O  O232  1  0.03289660  0.14509586  0.21712379  1  -1.468533  0  -0.466119  -0.88475  0  2.262651  0
O  O233  1  0.96710453  0.85491375  0.71712728  1  -1.46857  0  -0.466181  -0.884928  0  2.261986  0
O  O234  1  0.85491029  0.03290006  0.46712539  1  -1.468956  0  -0.466109  -0.884785  0  2.262648  0
O  O235  1  0.14508886  0.96710342  0.96712799  1  -1.468951  0  -0.466125  -0.884763  0  2.262692  0
O  O236  1  0.01354424  0.12636297  0.35356316  1  -1.467751  0  -0.466477  -0.876083  0  2.269486  0
O  O237  1  0.98645212  0.87363018  0.85356867  1  -1.468081  0  -0.466318  -0.8759  0  2.270164  0
O  O238  1  0.87360771  0.01355468  0.60356893  1  -1.467832  0  -0.466273  -0.875997  0  2.269324  0
O  O239  1  0.12639307  0.98644703  0.10357074  1  -1.467851  0  -0.466249  -0.875894  0  2.269279  0
O  O240  1  0.13420893  0.27180964  0.29838622  1  -1.436286  0  -0.382158  -0.661202  0  2.226251  0
O  O241  1  0.86579129  0.72819738  0.79839083  1  -1.436164  0  -0.382149  -0.661043  0  2.226246  0
O  O242  1  0.72817822  0.13420840  0.54838037  1  -1.436552  0  -0.382163  -0.661099  0  2.226204  0
O  O243  1  0.27182237  0.86578854  0.04837889  1  -1.436587  0  -0.382162  -0.661159  0  2.226044  0
O  O244  1  0.77131257  0.60239254  0.27584234  1  -1.182794  0  -0.321795  -0.533719  0  2.210546  0
O  O245  1  0.22868872  0.39761128  0.77584658  1  -1.182656  0  -0.321776  -0.533688  0  2.210532  0
O  O246  1  0.39758936  0.77127853  0.52585102  1  -1.182862  0  -0.321818  -0.533757  0  2.210693  0
O  O247  1  0.60241634  0.22872169  0.02585270  1  -1.182675  0  -0.321832  -0.533819  0  2.210647  0
O  O248  1  0.94370487  0.54183442  0.29156768  1  -1.169912  0  -0.315337  -0.54104  0  2.171289  0
O  O249  1  0.05629300  0.45816613  0.79156951  1  -1.169905  0  -0.31538  -0.54108  0  2.171193  0
O  O250  1  0.45813351  0.94369163  0.54156745  1  -1.169516  0  -0.315386  -0.541114  0  2.171229  0
O  O251  1  0.54187040  0.05630856  0.04157010  1  -1.169514  0  -0.315431  -0.54115  0  2.171133  0
O  O252  1  0.04491896  0.20707821  0.05736484  1  -1.47836  0  -0.48103  -0.918703  0  2.331068  0
O  O253  1  0.95508072  0.79291790  0.55737004  1  -1.478457  0  -0.481067  -0.918686  0  2.330949  0
O  O254  1  0.79294884  0.04492124  0.30734153  1  -1.478389  0  -0.481021  -0.918688  0  2.330704  0
O  O255  1  0.20705452  0.95506956  0.80734170  1  -1.478446  0  -0.480973  -0.918613  0  2.331377  0
O  O256  1  0.10123746  0.19563746  0.92442212  1  -1.466471  0  -0.477423  -0.879299  0  2.253073  0
O  O257  1  0.89876703  0.80436123  0.42442832  1  -1.466285  0  -0.477499  -0.879375  0  2.252904  0
O  O258  1  0.80434699  0.10124584  0.17440550  1  -1.465956  0  -0.477334  -0.879137  0  2.252917  0
O  O259  1  0.19565057  0.89874926  0.67440471  1  -1.46642  0  -0.477297  -0.879188  0  2.252352  0
O  O260  1  0.17031663  0.34585323  0.99933994  1  -1.451302  0  -0.380838  -0.686383  0  2.258969  0
O  O261  1  0.82968621  0.65414615  0.49934338  1  -1.451357  0  -0.380812  -0.686466  0  2.259073  0
O  O262  1  0.65415116  0.17032341  0.24933243  1  -1.45135  0  -0.380768  -0.686448  0  2.258909  0
O  O263  1  0.34585205  0.82967804  0.74933309  1  -1.451341  0  -0.380784  -0.686432  0  2.258937  0
O  O264  1  0.80463904  0.64151969  0.91364683  1  -1.190135  0  -0.324752  -0.556116  0  2.190464  0
O  O265  1  0.19536152  0.35848388  0.41364024  1  -1.190105  0  -0.324747  -0.556117  0  2.190345  0
O  O266  1  0.35848497  0.80463096  0.16364573  1  -1.19018  0  -0.32474  -0.556166  0  2.190311  0
O  O267  1  0.64151838  0.19536496  0.66365132  1  -1.189918  0  -0.324836  -0.556234  0  2.190338  0
O  O268  1  0.97486825  0.58760559  0.94337802  1  -1.164829  0  -0.315331  -0.537282  0  2.208649  0
O  O269  1  0.02513360  0.41239550  0.44337597  1  -1.164702  0  -0.315275  -0.537265  0  2.208834  0
O  O270  1  0.41240050  0.97485662  0.19337339  1  -1.164715  0  -0.31528  -0.537403  0  2.2089  0
O  O271  1  0.58759360  0.02513925  0.69337884  1  -1.164867  0  -0.315205  -0.537214  0  2.208789  0
O  O272  1  0.85861825  0.06191204  0.01733877  1  -1.482008  0  -0.475992  -0.906908  0  2.296485  0
O  O273  1  0.14137621  0.93809387  0.51733661  1  -1.481868  0  -0.475972  -0.90684  0  2.296344  0
O  O274  1  0.93808630  0.85862017  0.26733488  1  -1.482138  0  -0.475961  -0.906793  0  2.296276  0
O  O275  1  0.06191508  0.14139502  0.76734067  1  -1.482007  0  -0.475972  -0.906856  0  2.29677  0
O  O276  1  0.89748754  0.08761397  0.88342261  1  -1.459139  0  -0.481416  -0.875742  0  2.295107  0
O  O277  1  0.10251660  0.91238723  0.38341925  1  -1.459149  0  -0.481419  -0.875635  0  2.294945  0
O  O278  1  0.91239494  0.89746892  0.13341639  1  -1.459097  0  -0.481425  -0.875644  0  2.294987  0
O  O279  1  0.08760876  0.10252625  0.63341942  1  -1.45914  0  -0.481493  -0.875717  0  2.294453  0
O  O280  1  0.73005157  0.16739099  0.93523462  1  -1.447859  0  -0.382043  -0.689551  0  2.250258  0
O  O281  1  0.26994794  0.83261255  0.43523638  1  -1.447683  0  -0.381989  -0.689374  0  2.250386  0
O  O282  1  0.83260592  0.73004396  0.18522882  1  -1.448065  0  -0.381998  -0.689435  0  2.250255  0
O  O283  1  0.16739395  0.26995760  0.68522972  1  -1.447996  0  -0.381971  -0.689417  0  2.250399  0
O  O284  1  0.44962463  0.78569149  0.85577877  1  -1.178422  0  -0.316673  -0.520209  0  2.210003  0
O  O285  1  0.55037495  0.21430895  0.35577804  1  -1.178166  0  -0.316708  -0.520243  0  2.210012  0
O  O286  1  0.21433674  0.44966356  0.10578270  1  -1.177276  0  -0.316688  -0.52029  0  2.209666  0
O  O287  1  0.78565510  0.55033409  0.60578196  1  -1.17705  0  -0.316678  -0.520291  0  2.209446  0
O  O288  1  0.51062589  0.95908848  0.86623619  1  -1.191953  0  -0.315261  -0.541968  0  2.187156  0
O  O289  1  0.48937924  0.04091438  0.36623270  1  -1.191948  0  -0.31523  -0.541919  0  2.187273  0
O  O290  1  0.04093126  0.51063822  0.11624234  1  -1.192051  0  -0.315263  -0.541996  0  2.18683  0
O  O291  1  0.95906290  0.48936022  0.61624081  1  -1.191973  0  -0.315222  -0.541921  0  2.187124  0
