# generated using pymatgen
data_ZnH16C20SN3O10
_symmetry_space_group_name_H-M   'P 1'
_cell_length_a   14.64102223
_cell_length_b   15.99140097
_cell_length_c   19.13230917
_cell_angle_alpha   90.25471384
_cell_angle_beta   89.96908394
_cell_angle_gamma   89.96704502
_symmetry_Int_Tables_number   1
_chemical_formula_structural   ZnH16C20SN3O10
_chemical_formula_sum   'Zn2 H32 C40 S2 N6 O20'
_cell_volume   4479.41062703
_cell_formula_units_Z   2
loop_
 _symmetry_equiv_pos_site_id
 _symmetry_equiv_pos_as_xyz
  1  'x, y, z'
loop_
 _atom_site_type_symbol
 _atom_site_label
 _atom_site_symmetry_multiplicity
 _atom_site_fract_x
 _atom_site_fract_y
 _atom_site_fract_z
 _atom_site_occupancy
 _atom_site_pbe_bader_charge
 _atom_site_pbe_bader_spin_density
 _atom_site_pbe_cm5_charge
 _atom_site_pbe_ddec_charge
 _atom_site_pbe_ddec_spin_density
 _atom_site_pbe_ddec_sum_bond_order
 _atom_site_pbe_magmom
Zn  Zn0  1  0.40486979  0.50629961  0.50346152  1  1.310617  0  0.679785  0.889089  0  2.430175  0
Zn  Zn1  1  0.59603336  0.49523723  0.50530588  1  1.317204  0  0.685948  0.894264  0  2.4309  0
H  H2  1  0.35657427  0.51143853  0.28283773  1  0.094853  0  0.10513  0.110993  0  0.995405  0
H  H3  1  0.06674210  0.56120780  0.40069088  1  0.090267  0  0.108867  0.116337  0  0.966254  0
H  H4  1  0.92170288  0.63306881  0.49506947  1  0.053277  0  0.107497  0.110511  0  0.958874  0
H  H5  1  0.07867758  0.63691052  0.46794069  1  0.059644  0  0.108375  0.112776  0  0.959477  0
H  H6  1  0.35364705  0.48333414  0.15356283  1  0.086461  0  0.10567  0.104123  0  1.012899  0
H  H7  1  0.64439493  0.44301745  0.15637583  1  0.113003  0  0.106268  0.104606  0  1.013818  0
H  H8  1  0.35084144  0.44274006  0.85167675  1  0.103442  0  0.105368  0.103623  0  1.015303  0
H  H9  1  0.64402903  0.46106765  0.85585642  1  0.105158  0  0.105551  0.104191  0  1.013202  0
H  H10  1  0.35301343  0.46488604  0.72176891  1  0.108046  0  0.103875  0.109297  0  0.99879  0
H  H11  1  0.64491439  0.48465216  0.72616121  1  0.098428  0  0.104854  0.110603  0  0.99749  0
H  H12  1  0.63725385  0.09072116  0.49572192  1  0.060465  0  0.106019  0.055789  0  0.949557  0
H  H13  1  0.64579850  0.46913467  0.28582737  1  0.111501  0  0.108274  0.11625  0  0.991259  0
H  H14  1  0.34900620  0.04746019  0.48639713  1  0.036788  0  0.102353  0.046549  0  0.961163  0
H  H15  1  0.65311852  0.95064259  0.47863502  1  0.112512  0  0.113801  0.077019  0  1.004109  0
H  H16  1  0.36575653  0.90888269  0.51925471  1  0.094457  0  0.101539  0.055597  0  1.020175  0
H  H17  1  0.43178511  0.07023382  0.38194753  1  0.133573  0  0.109433  0.131101  0  0.979482  0
H  H18  1  0.55143912  0.07502737  0.38340497  1  0.083523  0  0.116665  0.137744  0  0.962004  0
H  H19  1  0.27215450  0.93730985  0.40694594  1  0.6567  0  0.360741  0.404908  0  0.83011  0
H  H20  1  0.54687375  0.80223515  0.34249792  1  0.684131  0  0.336376  0.40351  0  0.877498  0
H  H21  1  0.97792584  0.39689972  0.36686036  1  0.623024  0  0.325379  0.368331  0  0.90549  0
H  H22  1  0.15991725  0.37400286  0.41937814  1  0.64132  0  0.34707  0.386568  0  0.858085  0
H  H23  1  0.45457002  0.87255366  0.61146684  1  0.598066  0  0.335283  0.372549  0  0.873086  0
H  H24  1  0.07536967  0.37349294  0.51684992  1  0.062509  0  0.115595  0.058764  0  0.952758  0
H  H25  1  0.59498434  0.95190350  0.61682741  1  0.639968  0  0.312572  0.355881  0  0.925304  0
H  H26  1  0.40762132  0.04907440  0.62395094  1  0.614342  0  0.31574  0.362207  0  0.919797  0
H  H27  1  0.55834770  0.13727871  0.59833891  1  0.628008  0  0.324601  0.361667  0  0.894599  0
H  H28  1  0.92330617  0.36339409  0.48859152  1  0.072899  0  0.109169  0.050102  0  0.948302  0
H  H29  1  0.90984061  0.54711302  0.60846998  1  0.073932  0  0.112887  0.120542  0  0.956282  0
H  H30  1  0.06452351  0.58289439  0.59603482  1  0.064695  0  0.11006  0.11619  0  0.955484  0
H  H31  1  0.93300894  0.43890624  0.60290947  1  0.056608  0  0.106279  0.107088  0  0.966323  0
H  H32  1  0.08717280  0.47664358  0.61418908  1  0.085162  0  0.108572  0.112  0  0.961885  0
H  H33  1  0.90969093  0.58247170  0.41299055  1  0.086478  0  0.113912  0.126137  0  0.960183  0
C  C34  1  0.48480644  0.33846311  0.49559363  1  1.65737  0  0.217463  0.674475  0  4.239267  0
C  C35  1  0.58157834  0.05750243  0.52287088  1  0.487841  0  0.001641  0.122188  0  3.808876  0
C  C36  1  0.59875393  0.96150082  0.51662466  1  0.493651  0  0.001162  0.134999  0  3.762329  0
C  C37  1  0.42575841  0.94609824  0.53301444  1  0.448025  0  -0.006642  0.097665  0  3.829465  0
C  C38  1  0.51212377  0.75305097  0.50086528  1  -0.5166  0  -0.042393  -0.161832  0  3.937466  0
C  C39  1  0.49030778  0.08176259  0.48656709  1  0.114209  0  -0.011778  0.046234  0  3.917545  0
C  C40  1  0.50877927  0.91800599  0.48562183  1  0.107064  0  -0.005676  0.034725  0  3.846111  0
C  C41  1  0.50197051  0.50158387  0.36939400  1  1.5457  0  0.215115  0.590577  0  4.175758  0
C  C42  1  0.49725354  0.95181628  0.40920137  1  -0.154956  0  0.012598  -0.188963  0  3.59126  0
C  C43  1  0.49211305  0.04847809  0.41059658  1  -0.07982  0  -0.151167  -0.237876  0  3.882384  0
C  C44  1  0.51472045  0.82790029  0.49067328  1  0.222727  0  -0.051256  -0.077773  0  4.117469  0
C  C45  1  0.49738375  0.44279568  0.07219080  1  0.959589  0  0.240729  0.249096  0  3.990789  0
C  C46  1  0.48185587  0.17211794  0.48692437  1  -0.444551  0  -0.040289  -0.056362  0  4.071701  0
C  C47  1  0.48148287  0.24799861  0.49039761  1  0.158851  0  -0.047747  -0.183451  0  3.964015  0
C  C48  1  0.95252049  0.42012247  0.46448374  1  0.483941  0  0.013162  0.134141  0  3.822251  0
C  C49  1  0.05829860  0.41959963  0.47627251  1  0.487947  0  0.012422  0.117012  0  3.824109  0
C  C50  1  0.94737631  0.49958657  0.57849927  1  -0.025627  0  -0.142612  -0.194135  0  3.864861  0
C  C51  1  0.05082191  0.51866787  0.57847421  1  -0.070782  0  -0.142244  -0.185485  0  3.85675  0
C  C52  1  0.91224149  0.49828464  0.50212356  1  0.121862  0  0.013747  0.050801  0  3.893088  0
C  C53  1  0.08807786  0.50793872  0.50314592  1  0.120605  0  0.006535  0.041624  0  3.916703  0
C  C54  1  0.04804595  0.57620335  0.45485438  1  -0.064369  0  -0.145401  -0.185049  0  3.848704  0
C  C55  1  0.94339100  0.57870407  0.46394351  1  -0.011128  0  -0.144036  -0.183466  0  3.840407  0
C  C56  1  0.41490925  0.45207552  0.82379466  1  -0.056418  0  -0.082942  -0.109135  0  3.971269  0
C  C57  1  0.18667702  0.51189962  0.50344305  1  0.844247  0  0.240073  0.292958  0  3.890476  0
C  C58  1  0.81344653  0.49303563  0.50219045  1  0.883161  0  0.251476  0.319007  0  3.845828  0
C  C59  1  0.50874985  0.66270738  0.50702836  1  1.684385  0  0.218673  0.671106  0  4.241854  0
C  C60  1  0.50020093  0.48816104  0.63902375  1  1.574865  0  0.215518  0.593777  0  4.170522  0
C  C61  1  0.41892148  0.49625424  0.25435445  1  0.014305  0  -0.081913  -0.088126  0  3.970172  0
C  C62  1  0.58258051  0.47277966  0.25600607  1  -0.004659  0  -0.079733  -0.085403  0  3.964734  0
C  C63  1  0.41743455  0.48096244  0.18278740  1  -0.058609  0  -0.082507  -0.108761  0  3.96856  0
C  C64  1  0.58172277  0.45818388  0.18440284  1  -0.09699  0  -0.080389  -0.106061  0  3.965556  0
C  C65  1  0.49882554  0.46097381  0.14729773  1  0.018636  0  -0.00481  0.01805  0  4.003098  0
C  C66  1  0.50117505  0.49116947  0.29158044  1  -0.03721  0  -0.00964  -0.016641  0  3.944777  0
C  C67  1  0.58055874  0.46242353  0.82617630  1  -0.079007  0  -0.08262  -0.108626  0  3.969324  0
C  C68  1  0.49674043  0.43749297  0.93732141  1  0.982093  0  0.2396  0.247847  0  3.995244  0
C  C69  1  0.41609218  0.46440911  0.75194975  1  -0.010868  0  -0.082439  -0.087991  0  3.975029  0
C  C70  1  0.58113541  0.47527180  0.75438548  1  -0.069297  0  -0.081329  -0.086675  0  3.971305  0
C  C71  1  0.49905415  0.47603633  0.71664993  1  0.013948  0  -0.010786  -0.017972  0  3.943404  0
C  C72  1  0.49733398  0.45054442  0.86155035  1  0.003821  0  -0.004965  0.018491  0  4.003434  0
C  C73  1  0.40634715  0.04046404  0.52332257  1  0.531458  0  0.001606  0.137954  0  3.847378  0
S  S74  1  0.39771427  0.90605229  0.35825793  1  2.979098  0  0.544867  1.11785  0  5.841068  0
S  S75  1  0.59439825  0.92618977  0.34626483  1  3.071405  0  0.535828  1.105422  0  5.976643  0
N  N76  1  0.57746383  0.42722168  0.03909644  1  -0.544656  0  -0.156736  -0.148956  0  3.224464  0
N  N77  1  0.41570477  0.43367994  0.03963379  1  -0.541326  0  -0.160175  -0.154581  0  3.215663  0
N  N78  1  0.57722639  0.42382794  0.97041371  1  -0.586085  0  -0.159465  -0.154637  0  3.221034  0
N  N79  1  0.41555910  0.43172556  0.97086599  1  -0.58109  0  -0.158681  -0.152143  0  3.225563  0
N  N80  1  0.26578812  0.51299932  0.50340703  1  -1.129612  0  -0.283431  -0.297676  0  3.13089  0
N  N81  1  0.73453480  0.48948364  0.50417722  1  -1.145889  0  -0.281159  -0.298391  0  3.118031  0
O  O82  1  0.41084759  0.37795095  0.48399481  1  -1.150509  0  -0.32223  -0.558186  0  2.235819  0
O  O83  1  0.42347180  0.82239555  0.33755286  1  -1.275187  0  -0.288288  -0.502208  0  2.16387  0
O  O84  1  0.31646537  0.89231248  0.41463630  1  -1.187768  0  -0.345038  -0.506729  0  2.17579  0
O  O85  1  0.56054445  0.94833308  0.27834275  1  -1.259988  0  -0.300243  -0.497875  0  2.133462  0
O  O86  1  0.67748846  0.96310461  0.37156795  1  -1.278005  0  -0.29456  -0.483157  0  2.137876  0
O  O87  1  0.60712659  0.82826440  0.35338246  1  -1.223306  0  -0.340068  -0.493024  0  2.189138  0
O  O88  1  0.92891430  0.42436046  0.39312594  1  -1.111793  0  -0.392566  -0.477777  0  2.17979  0
O  O89  1  0.09919066  0.39697948  0.41155279  1  -1.139945  0  -0.382841  -0.503253  0  2.240123  0
O  O90  1  0.44626676  0.93259813  0.60507937  1  -1.108961  0  -0.387692  -0.495748  0  2.266759  0
O  O91  1  0.62945096  0.92522684  0.57903912  1  -1.126487  0  -0.407219  -0.477036  0  2.198164  0
O  O92  1  0.37846003  0.07980751  0.58588862  1  -1.11812  0  -0.410725  -0.492046  0  2.182736  0
O  O93  1  0.56218869  0.36901343  0.51163889  1  -1.140934  0  -0.314098  -0.547169  0  2.243931  0
O  O94  1  0.58074404  0.07985273  0.59504462  1  -1.145507  0  -0.399725  -0.502318  0  2.228483  0
O  O95  1  0.42739206  0.52298020  0.39897603  1  -1.161972  0  -0.32087  -0.555135  0  2.314483  0
O  O96  1  0.57719715  0.48644769  0.40023657  1  -1.159554  0  -0.315477  -0.548125  0  2.331488  0
O  O97  1  0.43064915  0.63164413  0.52046263  1  -1.145909  0  -0.319613  -0.552116  0  2.24352  0
O  O98  1  0.58349038  0.62401728  0.49749753  1  -1.140886  0  -0.310395  -0.538508  0  2.244054  0
O  O99  1  0.42391403  0.48253948  0.60721522  1  -1.165703  0  -0.319528  -0.556465  0  2.323387  0
O  O100  1  0.57734459  0.50251264  0.61070286  1  -1.162581  0  -0.319321  -0.553095  0  2.319741  0
O  O101  1  0.36414258  0.96653901  0.30924688  1  -1.259203  0  -0.296264  -0.496765  0  2.122589  0
