# generated using pymatgen
data_ZnH19C28N3O4
_symmetry_space_group_name_H-M   'P 1'
_cell_length_a   15.71280524
_cell_length_b   18.23876646
_cell_length_c   19.39106004
_cell_angle_alpha   90.59667616
_cell_angle_beta   90.25074726
_cell_angle_gamma   67.00665845
_symmetry_Int_Tables_number   1
_chemical_formula_structural   ZnH19C28N3O4
_chemical_formula_sum   'Zn2 H38 C56 N6 O8'
_cell_volume   5115.34193181
_cell_formula_units_Z   2
loop_
 _symmetry_equiv_pos_site_id
 _symmetry_equiv_pos_as_xyz
  1  'x, y, z'
loop_
 _atom_site_type_symbol
 _atom_site_label
 _atom_site_symmetry_multiplicity
 _atom_site_fract_x
 _atom_site_fract_y
 _atom_site_fract_z
 _atom_site_occupancy
 _atom_site_pbe_bader_charge
 _atom_site_pbe_bader_spin_density
 _atom_site_pbe_cm5_charge
 _atom_site_pbe_ddec_charge
 _atom_site_pbe_ddec_spin_density
 _atom_site_pbe_ddec_sum_bond_order
 _atom_site_pbe_magmom
Zn  Zn0  1  0.51073737  0.42028486  0.50054869  1  1.282173  0  0.664427  0.817569  0  2.411705  0
Zn  Zn1  1  0.50387539  0.57483371  0.49757592  1  1.283556  0  0.665723  0.819126  0  2.433199  0
H  H2  1  0.12078809  0.28400130  0.44529516  1  0.057641  0  0.094812  0.092354  0  1.0068  0
H  H3  1  0.89386277  0.71325217  0.44377515  1  0.048301  0  0.095094  0.092811  0  1.006878  0
H  H4  1  0.42075772  0.40946843  0.93017158  1  0.012459  0  0.096926  0.104907  0  1.01072  0
H  H5  1  0.41054313  0.64147960  0.06750405  1  0.038548  0  0.096255  0.10332  0  1.012966  0
H  H6  1  0.39699778  0.34285947  0.43347419  1  0.130514  0  0.128023  0.102434  0  0.979241  0
H  H7  1  0.62364226  0.65259539  0.55820623  1  0.132684  0  0.130976  0.10767  0  0.965759  0
H  H8  1  0.38989269  0.20738032  0.42967608  1  0.062985  0  0.112808  0.121724  0  0.987145  0
H  H9  1  0.62400292  0.79018255  0.56382499  1  0.08356  0  0.113403  0.121799  0  0.987672  0
H  H10  1  0.61184899  0.13172348  0.57856620  1  0.074447  0  0.113656  0.120797  0  0.987665  0
H  H11  1  0.38854295  0.86556048  0.42676603  1  0.087339  0  0.112912  0.119109  0  0.989224  0
H  H12  1  0.60823237  0.27047130  0.57678153  1  0.086323  0  0.130733  0.106105  0  0.964691  0
H  H13  1  0.39634526  0.72560520  0.42915646  1  0.129633  0  0.129627  0.107093  0  0.973343  0
H  H14  1  0.64392525  0.88263872  0.46847483  1  0.051666  0  0.102265  0.112124  0  1.001737  0
H  H15  1  0.36138630  0.11564252  0.53105513  1  0.070229  0  0.103091  0.113686  0  0.999068  0
H  H16  1  0.23741880  0.46562503  0.48076504  1  0.083833  0  0.10106  0.103324  0  1.036153  0
H  H17  1  0.77638141  0.53303536  0.47643932  1  0.097163  0  0.101383  0.103484  0  1.034926  0
H  H18  1  0.19838551  0.71043796  0.47242545  1  0.073717  0  0.100588  0.104088  0  1.00554  0
H  H19  1  0.81538504  0.28792330  0.47121324  1  0.066968  0  0.101322  0.105534  0  1.00331  0
H  H20  1  0.98561332  0.24769558  0.45440318  1  0.050774  0  0.094814  0.092106  0  1.005347  0
H  H21  1  0.02836275  0.74997803  0.45393508  1  0.071716  0  0.095256  0.092634  0  1.005605  0
H  H22  1  0.18755911  0.38512713  0.44894491  1  0.032336  0  0.097742  0.096582  0  1.023696  0
H  H23  1  0.82690812  0.61233962  0.44667294  1  0.000963  0  0.100333  0.100923  0  1.016536  0
H  H24  1  0.55994945  0.56140835  0.26943905  1  0.093719  0  0.103885  0.10893  0  0.994894  0
H  H25  1  0.57887826  0.39257480  0.73123314  1  0.095667  0  0.101657  0.10354  0  0.998918  0
H  H26  1  0.52973503  0.56890507  0.14268533  1  0.062516  0  0.100481  0.101409  0  1.004113  0
H  H27  1  0.54650546  0.40657136  0.85773360  1  0.068512  0  0.099775  0.100893  0  1.00391  0
H  H28  1  0.31990752  0.47555569  0.17323710  1  0.053469  0  0.099753  0.095985  0  1.006474  0
H  H29  1  0.32425154  0.63357455  0.82324234  1  0.060421  0  0.099296  0.095715  0  1.005655  0
H  H30  1  0.36085701  0.45747013  0.29772484  1  0.09305  0  0.100318  0.102378  0  1.003977  0
H  H31  1  0.36620190  0.62363566  0.69872769  1  0.062395  0  0.103142  0.108039  0  0.995763  0
H  H32  1  0.39981454  0.34982157  0.03407410  1  0.417149  0  0.298339  0.292016  0  0.953779  0
H  H33  1  0.40686577  0.38677981  0.11324233  1  0.445431  0  0.286596  0.277012  0  1.013341  0
H  H34  1  0.41066049  0.66836586  0.88401592  1  0.424055  0  0.287548  0.277664  0  1.011024  0
H  H35  1  0.39707549  0.71239775  0.96263507  1  0.436195  0  0.298514  0.29242  0  0.955202  0
H  H36  1  0.67016933  0.07158892  0.47117481  1  0.43359  0  0.295374  0.287503  0  0.986996  0
H  H37  1  0.72506871  0.97126163  0.46484290  1  0.431706  0  0.306341  0.300493  0  0.944613  0
H  H38  1  0.28046011  0.02729271  0.53620996  1  0.437209  0  0.307574  0.30264  0  0.942637  0
H  H39  1  0.33491190  0.92680207  0.52948883  1  0.423728  0  0.296057  0.287774  0  0.989098  0
C  C40  1  0.49745252  0.50221283  0.63216555  1  1.568056  0  0.211817  0.59787  0  4.168026  0
C  C41  1  0.48855418  0.49688545  0.36570257  1  1.575124  0  0.211089  0.592607  0  4.176178  0
C  C42  1  0.11281534  0.40375128  0.45190196  1  -0.039611  0  -0.095716  -0.131826  0  4.033255  0
C  C43  1  0.90154958  0.59379404  0.45069367  1  0.044412  0  -0.094122  -0.13127  0  4.029778  0
C  C44  1  0.07581060  0.34706661  0.44986067  1  -0.052755  0  -0.096363  -0.139941  0  4.040837  0
C  C45  1  0.93867052  0.65034871  0.44899229  1  -0.078114  0  -0.096496  -0.140249  0  4.043346  0
C  C46  1  0.50906722  0.54106064  0.24721723  1  -0.010388  0  -0.087029  -0.0926  0  4.002339  0
C  C47  1  0.52448591  0.44590828  0.75229110  1  -0.010319  0  -0.087759  -0.091865  0  4.002784  0
C  C48  1  0.49083389  0.54632996  0.17685893  1  -0.104305  0  -0.093724  -0.136854  0  3.986875  0
C  C49  1  0.50528374  0.45339528  0.82259101  1  -0.076653  0  -0.094155  -0.139489  0  3.98558  0
C  C50  1  0.42481341  0.52049058  0.14787412  1  -0.00323  0  -0.003941  0.09655  0  3.984378  0
C  C51  1  0.43455305  0.52168152  0.85022114  1  0.011231  0  -0.004377  0.096815  0  3.983814  0
C  C52  1  0.37618857  0.49075350  0.19304398  1  -0.056674  0  -0.099004  -0.153082  0  4.006691  0
C  C53  1  0.38318985  0.58209309  0.80414339  1  -0.098487  0  -0.098825  -0.154427  0  4.009078  0
C  C54  1  0.39718777  0.48219037  0.26317583  1  -0.073874  0  -0.089256  -0.094062  0  4.004208  0
C  C55  1  0.40481306  0.57619265  0.73417303  1  -0.02608  0  -0.087594  -0.09058  0  3.996751  0
C  C56  1  0.46448545  0.50662528  0.29078672  1  -0.029451  0  -0.021463  -0.031669  0  3.98047  0
C  C57  1  0.47578001  0.50808425  0.70757872  1  -0.027261  0  -0.020098  -0.031804  0  3.97398  0
C  C58  1  0.41448964  0.45670748  0.03268565  1  0.358774  0  0.074609  0.233739  0  4.109407  0
C  C59  1  0.41457657  0.59493515  0.96496716  1  0.363912  0  0.074202  0.231918  0  4.112358  0
C  C60  1  0.41716367  0.46125472  0.96072776  1  0.00326  0  -0.112886  -0.2473  0  4.012713  0
C  C61  1  0.41134239  0.59059581  0.03687232  1  -0.033417  0  -0.114174  -0.247424  0  4.013927  0
C  C62  1  0.68607796  0.43962953  0.48972306  1  1.592332  0  0.213422  0.594706  0  4.166139  0
C  C63  1  0.32718898  0.56004689  0.49237248  1  1.552264  0  0.209981  0.588041  0  4.177125  0
C  C64  1  0.41882239  0.52748456  0.92569395  1  0.028579  0  -0.024686  -0.031203  0  4.000925  0
C  C65  1  0.41287317  0.52330814  0.07203067  1  0.007303  0  -0.025131  -0.034836  0  4.002805  0
C  C66  1  0.44251803  0.29394994  0.46498808  1  0.473659  0  0.062613  0.111168  0  3.919085  0
C  C67  1  0.57262123  0.70222753  0.53047056  1  0.50138  0  0.061973  0.108059  0  3.922055  0
C  C68  1  0.43928069  0.21883809  0.46316333  1  -0.033504  0  -0.080676  -0.184633  0  3.941946  0
C  C69  1  0.57264071  0.77841671  0.53283506  1  -0.020246  0  -0.080877  -0.18446  0  3.945687  0
C  C70  1  0.50201955  0.15734338  0.50283755  1  0.035813  0  0.018808  0.140243  0  3.983805  0
C  C71  1  0.50466509  0.84042931  0.49687992  1  -0.054569  0  0.017628  0.138271  0  3.985433  0
C  C72  1  0.56381838  0.17637990  0.54480507  1  -0.018724  0  -0.08392  -0.197546  0  3.968645  0
C  C73  1  0.44050938  0.82082633  0.45814980  1  -0.03155  0  -0.085662  -0.198348  0  3.968565  0
C  C74  1  0.56214332  0.25306277  0.54446058  1  0.498445  0  0.059965  0.105807  0  3.931716  0
C  C75  1  0.44488613  0.74330817  0.45825602  1  0.463153  0  0.058687  0.105284  0  3.931532  0
C  C76  1  0.58572345  0.00982519  0.48336458  1  0.361518  0  0.080706  0.237213  0  4.120412  0
C  C77  1  0.41968170  0.98830377  0.51640727  1  0.430751  0  0.081725  0.240555  0  4.11608  0
C  C78  1  0.58236920  0.93423439  0.48362164  1  0.021976  0  -0.105407  -0.239055  0  3.995132  0
C  C79  1  0.42296716  0.06401417  0.51600714  1  -0.043236  0  -0.106548  -0.241777  0  3.994479  0
C  C80  1  0.50180189  0.92224499  0.49893125  1  -0.000188  0  -0.022564  -0.038648  0  4.001615  0
C  C81  1  0.50358515  0.07585189  0.50076909  1  -0.01952  0  -0.02183  -0.03693  0  4.004091  0
C  C82  1  0.78748761  0.41360242  0.47566065  1  0.035181  0  -0.017865  -0.023528  0  3.971084  0
C  C83  1  0.22606276  0.58501217  0.47797947  1  0.040807  0  -0.018491  -0.02277  0  3.978416  0
C  C84  1  0.93951512  0.31052874  0.45865905  1  -0.136271  0  -0.096101  -0.142623  0  4.016179  0
C  C85  1  0.07446152  0.68735977  0.45896114  1  -0.116438  0  -0.096676  -0.142425  0  4.018592  0
C  C86  1  0.84578640  0.33222816  0.46823864  1  -0.036846  0  -0.089578  -0.097266  0  4.009971  0
C  C87  1  0.16795981  0.66608329  0.46938491  1  -0.039021  0  -0.090104  -0.098626  0  4.012684  0
C  C88  1  0.82411484  0.47128108  0.47018777  1  -0.007731  0  -0.080448  -0.132182  0  3.936342  0
C  C89  1  0.18982201  0.52698563  0.47274726  1  -0.024845  0  -0.08272  -0.13662  0  3.941066  0
C  C90  1  0.91923311  0.45123566  0.45934226  1  -0.020583  0  -0.003681  0.035226  0  3.948039  0
C  C91  1  0.09502874  0.54654805  0.46049243  1  -0.004073  0  -0.003407  0.036166  0  3.948964  0
C  C92  1  0.97858569  0.36859498  0.45539797  1  -0.009866  0  -0.009274  0.078609  0  4.0189  0
C  C93  1  0.03572651  0.62902944  0.45560514  1  -0.033331  0  -0.009755  0.077671  0  4.021645  0
C  C94  1  0.95846865  0.51090498  0.45539024  1  -0.050356  0  -0.003813  0.034386  0  3.960432  0
C  C95  1  0.05583770  0.48678954  0.45601417  1  0.042067  0  -0.004338  0.032807  0  3.960468  0
N  N96  1  0.50343956  0.31057458  0.50442008  1  -1.237396  0  -0.318861  -0.19686  0  3.516767  0
N  N97  1  0.50917163  0.68517307  0.49445859  1  -1.25149  0  -0.32069  -0.199835  0  3.521433  0
N  N98  1  0.42369861  0.38457725  0.06271670  1  -1.233205  0  -0.615665  -0.636272  0  3.328164  0
N  N99  1  0.42395181  0.66087982  0.93515734  1  -1.226693  0  -0.616336  -0.637009  0  3.331761  0
N  N100  1  0.66467325  0.01918068  0.46024449  1  -1.216105  0  -0.607249  -0.630043  0  3.321662  0
N  N101  1  0.34079096  0.97915924  0.53976662  1  -1.211869  0  -0.606749  -0.630717  0  3.325077  0
O  O102  1  0.53038251  0.43284806  0.60465796  1  -1.175697  0  -0.326306  -0.561357  0  2.298755  0
O  O103  1  0.51895122  0.54580768  0.39301513  1  -1.172713  0  -0.324614  -0.558948  0  2.299938  0
O  O104  1  0.48012643  0.56757255  0.60079795  1  -1.168015  0  -0.322435  -0.553098  0  2.314089  0
O  O105  1  0.47667890  0.44039079  0.39699755  1  -1.167194  0  -0.321926  -0.556139  0  2.310865  0
O  O106  1  0.65000066  0.38851180  0.48133207  1  -1.156983  0  -0.320216  -0.545852  0  2.28422  0
O  O107  1  0.36270089  0.61075504  0.48048468  1  -1.159485  0  -0.319458  -0.549936  0  2.303399  0
O  O108  1  0.64344993  0.51190723  0.50885114  1  -1.180675  0  -0.322303  -0.559267  0  2.345642  0
O  O109  1  0.37022528  0.48965326  0.51453075  1  -1.179299  0  -0.321756  -0.556169  0  2.326815  0
