# generated using pymatgen
data_CdP2H34C25(NO2)4
_symmetry_space_group_name_H-M   'P 1'
_cell_length_a   8.92076721
_cell_length_b   12.93044612
_cell_length_c   13.09500000
_cell_angle_alpha   82.77810402
_cell_angle_beta   70.94467492
_cell_angle_gamma   87.45885663
_symmetry_Int_Tables_number   1
_chemical_formula_structural   CdP2H34C25(NO2)4
_chemical_formula_sum   'Cd2 P4 H68 C50 N8 O16'
_cell_volume   1416.39657401
_cell_formula_units_Z   2
loop_
 _symmetry_equiv_pos_site_id
 _symmetry_equiv_pos_as_xyz
  1  'x, y, z'
loop_
 _atom_site_type_symbol
 _atom_site_label
 _atom_site_symmetry_multiplicity
 _atom_site_fract_x
 _atom_site_fract_y
 _atom_site_fract_z
 _atom_site_occupancy
 _atom_site_hle17_bader_spin_density
 _atom_site_hle17_ddec_charge
 _atom_site_hle17_ddec_spin_density
 _atom_site_hle17_ddec_sum_bond_order
 _atom_site_hle17_magmom
 _atom_site_hse06_10hf_bader_spin_density
 _atom_site_hse06_10hf_ddec_charge
 _atom_site_hse06_10hf_ddec_spin_density
 _atom_site_hse06_10hf_ddec_sum_bond_order
 _atom_site_hse06_10hf_magmom
 _atom_site_hse06_bader_spin_density
 _atom_site_hse06_ddec_charge
 _atom_site_hse06_ddec_spin_density
 _atom_site_hse06_ddec_sum_bond_order
 _atom_site_hse06_magmom
 _atom_site_pbe_bader_charge
 _atom_site_pbe_bader_spin_density
 _atom_site_pbe_cm5_charge
 _atom_site_pbe_ddec_charge
 _atom_site_pbe_ddec_spin_density
 _atom_site_pbe_ddec_sum_bond_order
 _atom_site_pbe_magmom
Cd  Cd0  1  0.99999967  0.00000078  0.49999990  1  0  1.171226  0  1.672104  0  0  0.996474  0  2.113351  0  0  1.046124  0  2.063199  0  1.292405  0  0.780542  0.960124  0  2.149118  0
Cd  Cd1  1  0.00000100  0.49999976  0.49999992  1  0  1.208654  0  1.693482  0  0  1.034608  0  2.138875  0  0  1.081938  0  2.089108  0  1.310179  0  0.802941  1.000901  0  2.173351  0
P  P2  1  0.93210186  0.09343545  0.73850392  1  0  1.398136  0  4.848314  0  0  1.245569  0  5.352581  0  0  1.294774  0  5.315952  0  3.294391  0  0.336703  1.211424  0  5.377097  0
P  P3  1  0.06790217  0.90656562  0.26149444  1  0  1.398246  0  4.848147  0  0  1.245648  0  5.352402  0  0  1.294855  0  5.31577  0  3.294386  0  0.336703  1.211506  0  5.376918  0
P  P4  1  0.01842396  0.58540420  0.73565990  1  0  1.409787  0  4.824167  0  0  1.2587  0  5.328617  0  0  1.307183  0  5.293429  0  3.276985  0  0.347241  1.225148  0  5.351918  0
P  P5  1  0.98157652  0.41459531  0.26434097  1  0  1.409728  0  4.824204  0  0  1.258622  0  5.328666  0  0  1.307105  0  5.293476  0  3.276987  0  0.347195  1.225074  0  5.351962  0
H  H6  1  0.07911839  0.18592296  0.82275982  1  0  0.124897  0  0.943527  0  0  0.140511  0  0.999929  0  0  0.142986  0  0.998866  0  0.04631  0  0.103323  0.13862  0  1.000947  0
H  H7  1  0.92088327  0.81407811  0.17724136  1  0  0.124896  0  0.943573  0  0  0.140507  0  0.99996  0  0  0.142978  0  0.998902  0  0.046346  0  0.103319  0.138615  0  1.00098  0
H  H8  1  0.92152846  0.11261491  0.91968895  1  0  0.132166  0  0.9598  0  0  0.145352  0  1.021361  0  0  0.146172  0  1.024101  0  0.062884  0  0.104318  0.144742  0  1.019626  0
H  H9  1  0.07847082  0.88738694  0.08031037  1  0  0.132154  0  0.959824  0  0  0.145328  0  1.021391  0  0  0.146147  0  1.024133  0  0.062883  0  0.104311  0.144719  0  1.019656  0
H  H10  1  0.99988907  0.89568845  0.84746967  1  0  0.103185  0  0.972403  0  0  0.113149  0  1.03375  0  0  0.116295  0  1.032405  0  0.092269  0  0.101933  0.110651  0  1.035143  0
H  H11  1  0.00011022  0.10431184  0.15253137  1  0  0.103175  0  0.972423  0  0  0.113135  0  1.033764  0  0  0.116283  0  1.032427  0  0.092282  0  0.101934  0.110636  0  1.035157  0
H  H12  1  0.19593256  0.76199352  0.86796263  1  0  0.089539  0  0.95962  0  0  0.101326  0  1.021022  0  0  0.104581  0  1.018768  0  0.073987  0  0.097655  0.098949  0  1.02257  0
H  H13  1  0.80406674  0.23800599  0.13203698  1  0  0.089533  0  0.959589  0  0  0.101315  0  1.020994  0  0  0.104569  0  1.018743  0  0.073999  0  0.097664  0.098939  0  1.022541  0
H  H14  1  0.50401293  0.00225916  0.88591445  1  0  0.097677  0  0.968817  0  0  0.107661  0  1.033936  0  0  0.110883  0  1.031777  0  0.058755  0  0.102869  0.105295  0  1.035767  0
H  H15  1  0.49598754  0.99774113  0.11408327  1  0  0.097612  0  0.968838  0  0  0.107584  0  1.033985  0  0  0.110807  0  1.031824  0  0.058769  0  0.102818  0.105219  0  1.035817  0
H  H16  1  0.30394870  0.13407691  0.87050607  1  0  0.077621  0  0.980632  0  0  0.090021  0  1.04495  0  0  0.092574  0  1.044074  0  0.058154  0  0.095585  0.088313  0  1.045391  0
H  H17  1  0.69605059  0.86592260  0.12949430  1  0  0.077641  0  0.980621  0  0  0.090064  0  1.044919  0  0  0.09262  0  1.044039  0  0.05815  0  0.095595  0.088356  0  1.04536  0
H  H18  1  0.40792588  0.67266166  0.81755317  1  0  0.084917  0  0.96826  0  0  0.095109  0  1.033565  0  0  0.098246  0  1.031333  0  0.064346  0  0.096981  0.092861  0  1.034847  0
H  H19  1  0.59207460  0.32733785  0.18244693  1  0  0.085004  0  0.968299  0  0  0.095203  0  1.033575  0  0  0.098339  0  1.031342  0  0.06434  0  0.097031  0.092956  0  1.034856  0
H  H20  1  0.63098604  0.55415095  0.81387751  1  0  0.099205  0  0.9611  0  0  0.110703  0  1.022374  0  0  0.113461  0  1.021659  0  0.067078  0  0.101968  0.108652  0  1.023089  0
H  H21  1  0.36901444  0.44584856  0.18612336  1  0  0.099187  0  0.961025  0  0  0.110683  0  1.022304  0  0  0.11344  0  1.021589  0  0.067065  0  0.101963  0.108632  0  1.023021  0
H  H22  1  0.82743258  0.77171304  0.95838505  1  0  0.084414  0  0.958401  0  0  0.098345  0  1.017261  0  0  0.100495  0  1.017074  0  0.037534  0  0.097328  0.096302  0  1.018265  0
H  H23  1  0.17256671  0.22828725  0.04161675  1  0  0.084419  0  0.958417  0  0  0.098352  0  1.017269  0  0  0.100502  0  1.017083  0  0.037541  0  0.097334  0.096311  0  1.018271  0
H  H24  1  0.60856596  0.89222799  0.95966351  1  0  0.087939  0  0.978558  0  0  0.097674  0  1.045344  0  0  0.100072  0  1.044295  0  0.083396  0  0.098838  0.095919  0  1.046388  0
H  H25  1  0.39143333  0.10777230  0.04033677  1  0  0.087959  0  0.978547  0  0  0.09769  0  1.045342  0  0  0.100088  0  1.044293  0  0.083402  0  0.098859  0.095935  0  1.046386  0
H  H26  1  0.85725898  0.50487667  0.90868660  1  0  0.129801  0  0.942491  0  0  0.146851  0  0.997192  0  0  0.148823  0  0.997024  0  0.06422  0  0.107677  0.145366  0  0.9974  0
H  H27  1  0.14273913  0.49512284  0.09131403  1  0  0.129761  0  0.942533  0  0  0.146827  0  0.997209  0  0  0.148798  0  0.997042  0  0.064178  0  0.107658  0.145341  0  0.997416  0
H  H28  1  0.96057825  0.61400851  0.92307996  1  0  0.121386  0  0.942716  0  0  0.134759  0  1.003143  0  0  0.137346  0  1.001627  0  0.037617  0  0.101372  0.133121  0  1.003903  0
H  H29  1  0.03942105  0.38599100  0.07692118  1  0  0.121407  0  0.942711  0  0  0.134775  0  1.003143  0  0  0.137363  0  1.001625  0  0.037604  0  0.101388  0.133136  0  1.003901  0
H  H30  1  0.59500181  0.21966378  0.78360162  1  0  0.040102  0  0.93058  0  0  0.057629  0  0.994118  0  0  0.057463  0  0.994599  0  0.057391  0  0.097013  0.0576  0  0.993992  0
H  H31  1  0.40499866  0.78033573  0.21639772  1  0  0.040102  0  0.930557  0  0  0.057632  0  0.994088  0  0  0.057465  0  0.99457  0  0.069522  0  0.097014  0.057603  0  0.993961  0
H  H32  1  0.67775954  0.16289015  0.88395197  1  0  0.038688  0  0.955871  0  0  0.051968  0  1.027178  0  0  0.051519  0  1.028085  0  0.064443  0  0.098714  0.052229  0  1.026635  0
H  H33  1  0.32224094  0.83710936  0.11604661  1  0  0.038745  0  0.955818  0  0  0.051985  0  1.027174  0  0  0.051535  0  1.028081  0  0.06443  0  0.098707  0.052246  0  1.02663  0
H  H34  1  0.59332960  0.34992632  0.90996789  1  0  0.100057  0  0.977879  0  0  0.118586  0  1.045517  0  0  0.118456  0  1.048661  0  0.057394  0  0.087491  0.118628  0  1.043114  0
H  H35  1  0.40667088  0.65007319  0.09003222  1  0  0.100055  0  0.977887  0  0  0.118577  0  1.045525  0  0  0.118447  0  1.04867  0  0.057384  0  0.087485  0.118619  0  1.043122  0
H  H36  1  0.73057818  0.39093027  0.77777134  1  0  0.126106  0  0.953112  0  0  0.148562  0  1.007913  0  0  0.150584  0  1.007361  0  0.06562  0  0.093395  0.147166  0  1.008131  0
H  H37  1  0.26942230  0.60906924  0.22222876  1  0  0.126111  0  0.953074  0  0  0.148565  0  1.007879  0  0  0.150588  0  1.007326  0  0.065612  0  0.093394  0.147169  0  1.008096  0
H  H38  1  0.80086905  0.33259909  0.88349176  1  0  0.09451  0  0.949768  0  0  0.114796  0  1.015065  0  0  0.11565  0  1.015429  0  0.003841  0  0.083804  0.114141  0  1.014545  0
H  H39  1  0.19913143  0.66740042  0.11650682  1  0  0.094508  0  0.949765  0  0  0.114791  0  1.015068  0  0  0.115647  0  1.015429  0  0.003832  0  0.083799  0.114134  0  1.01455  0
H  H40  1  0.09285878  0.40210290  0.86878712  1  0  0.02378  0  0.933496  0  0  0.040471  0  0.998439  0  0  0.040324  0  0.997908  0  -0.012585  0  0.090791  0.040538  0  0.99877  0
H  H41  1  0.90714169  0.59789740  0.13121289  1  0  0.02378  0  0.933493  0  0  0.04047  0  0.998439  0  0  0.040322  0  0.997909  0  -0.01259  0  0.090788  0.040537  0  0.99877  0
H  H42  1  0.12460981  0.37785085  0.73195768  1  0  0.050971  0  0.934924  0  0  0.062925  0  1.001682  0  0  0.063872  0  1.000973  0  0.047111  0  0.100069  0.062183  0  1.002018  0
H  H43  1  0.87539067  0.62214866  0.26804319  1  0  0.050964  0  0.934903  0  0  0.062938  0  1.001647  0  0  0.063886  0  1.000936  0  0.047102  0  0.100063  0.062196  0  1.001984  0
H  H44  1  0.33707352  0.29614853  0.80529684  1  0  0.090226  0  0.97872  0  0  0.108378  0  1.050575  0  0  0.109147  0  1.050992  0  -0.013762  0  0.084979  0.10772  0  1.050447  0
H  H45  1  0.66292696  0.70385098  0.19470251  1  0  0.090215  0  0.978733  0  0  0.108366  0  1.050586  0  0  0.109134  0  1.051002  0  -0.013756  0  0.08498  0.107708  0  1.050458  0
H  H46  1  0.38747383  0.42102822  0.82682467  1  0  0.109328  0  0.942622  0  0  0.132701  0  0.998716  0  0  0.133738  0  0.999753  0  0.029918  0  0.092333  0.132009  0  0.997736  0
H  H47  1  0.61252666  0.57897051  0.17317553  1  0  0.109325  0  0.942642  0  0  0.132671  0  0.998769  0  0  0.133707  0  0.999807  0  0.029919  0  0.092312  0.13198  0  0.997788  0
H  H48  1  0.41861371  0.39107605  0.69203537  1  0  0.110143  0  0.955351  0  0  0.132196  0  1.013206  0  0  0.13368  0  1.013671  0  0.055026  0  0.092356  0.131083  0  1.012878  0
H  H49  1  0.58138795  0.60892346  0.30796371  1  0  0.110145  0  0.955355  0  0  0.132195  0  1.013208  0  0  0.133678  0  1.013673  0  0.055044  0  0.092351  0.131079  0  1.012883  0
H  H50  1  0.22700882  0.87309843  0.64000606  1  0  0.101308  0  0.948731  0  0  0.108602  0  1.018012  0  0  0.110733  0  1.015328  0  0.190044  0  0.135666  0.107083  0  1.019816  0
H  H51  1  0.77298928  0.12690264  0.35999438  1  0  0.101338  0  0.948739  0  0  0.108617  0  1.018027  0  0  0.110751  0  1.015344  0  0.190053  0  0.135671  0.107099  0  1.019831  0
H  H52  1  0.63664330  0.89075073  0.36037425  1  0  0.124967  0  0.958463  0  0  0.135125  0  1.019513  0  0  0.13741  0  1.019243  0  0.156485  0  0.122683  0.132741  0  1.020914  0
H  H53  1  0.36335718  0.10924800  0.63962672  1  0  0.124961  0  0.958462  0  0  0.135118  0  1.019515  0  0  0.137426  0  1.019218  0  0.156483  0  0.122692  0.132732  0  1.020915  0
H  H54  1  0.37046973  0.96176922  0.30119657  1  0  0.112202  0  0.993041  0  0  0.118584  0  1.056781  0  0  0.12107  0  1.056018  0  0.146684  0  0.116285  0.11693  0  1.057077  0
H  H55  1  0.62953193  0.03823107  0.69880317  1  0  0.112225  0  0.993037  0  0  0.118614  0  1.056773  0  0  0.121105  0  1.055994  0  0.146689  0  0.116317  0.116961  0  1.057065  0
H  H56  1  0.65696858  0.87496079  0.56998633  1  0  0.103463  0  0.933979  0  0  0.11331  0  0.999513  0  0  0.114249  0  0.998798  0  0.127204  0  0.134627  0.112443  0  1.000259  0
H  H57  1  0.34302716  0.12503794  0.43001416  1  0  0.103555  0  0.934011  0  0  0.113385  0  0.999532  0  0  0.114323  0  0.998818  0  0.127235  0  0.134691  0.112518  0  1.000278  0
H  H58  1  0.47962002  0.82553917  0.67071993  1  0  0.083868  0  0.937058  0  0  0.09404  0  1.004709  0  0  0.093688  0  1.005947  0  0.109118  0  0.130269  0.094272  0  1.003829  0
H  H59  1  0.52037690  0.17446034  0.32927944  1  0  0.083866  0  0.937054  0  0  0.094023  0  1.00471  0  0  0.093669  0  1.005948  0  0.109135  0  0.130279  0.094255  0  1.00383  0
H  H60  1  0.85703081  0.75505701  0.48526867  1  0  0.110082  0  0.961839  0  0  0.117214  0  1.029016  0  0  0.120348  0  1.024826  0  0.195737  0  0.13509  0.114955  0  1.03194  0
H  H61  1  0.14296849  0.24494250  0.51473476  1  0  0.110115  0  0.961858  0  0  0.117277  0  1.029  0  0  0.120412  0  1.02481  0  0.19575  0  0.135107  0.115014  0  1.03193  0
H  H62  1  0.60732700  0.47097214  0.55821158  1  0  0.099381  0  0.982982  0  0  0.106466  0  1.048389  0  0  0.108853  0  1.047403  0  0.147638  0  0.113906  0.104877  0  1.048925  0
H  H63  1  0.39267704  0.52902815  0.44178764  1  0  0.099357  0  0.98304  0  0  0.106439  0  1.048446  0  0  0.108826  0  1.047464  0  0.14763  0  0.113901  0.104853  0  1.048983  0
H  H64  1  0.39192771  0.63195627  0.62694159  1  0  0.13043  0  0.968396  0  0  0.134576  0  1.036805  0  0  0.138371  0  1.034008  0  0.18489  0  0.123027  0.131763  0  1.03918  0
H  H65  1  0.60807515  0.36804090  0.37305751  1  0  0.130445  0  0.968394  0  0  0.134567  0  1.036817  0  0  0.138362  0  1.03402  0  0.184769  0  0.123023  0.131754  0  1.039191  0
H  H66  1  0.05319020  0.19845981  0.33999281  1  0  0.42889  0  0.869583  0  0  0.397436  0  0.934431  0  0  0.407498  0  0.920013  0  0.638589  0  0.283955  0.390355  0  0.944529  0
H  H67  1  0.94680908  0.80154126  0.66000584  1  0  0.428926  0  0.86954  0  0  0.397476  0  0.934378  0  0  0.407537  0  0.919963  0  0.6386  0  0.283981  0.390396  0  0.944476  0
H  H68  1  0.14751646  0.09541319  0.29526524  1  0  0.422929  0  0.885264  0  0  0.391941  0  0.94944  0  0  0.402326  0  0.934605  0  0.634098  0  0.282577  0.384592  0  0.959898  0
H  H69  1  0.85248401  0.90458788  0.70473391  1  0  0.422927  0  0.885266  0  0  0.391949  0  0.949428  0  0  0.402333  0  0.934593  0  0.634174  0  0.282579  0.384599  0  0.959886  0
H  H70  1  0.13403438  0.68658612  0.53352674  1  0  0.419785  0  0.881636  0  0  0.387506  0  0.948341  0  0  0.397829  0  0.933347  0  0.630803  0  0.287804  0.38014  0  0.959029  0
H  H71  1  0.86596491  0.31341417  0.46647430  1  0  0.419797  0  0.881624  0  0  0.387516  0  0.948333  0  0  0.39784  0  0.933339  0  0.630813  0  0.287803  0.380151  0  0.959022  0
H  H72  1  0.15131786  0.71425184  0.40689379  1  0  0.423727  0  0.86882  0  0  0.392304  0  0.932209  0  0  0.402595  0  0.917199  0  0.621438  0  0.295654  0.384875  0  0.94309  0
H  H73  1  0.84868143  0.28574845  0.59310725  1  0  0.423712  0  0.868842  0  0  0.39229  0  0.932231  0  0  0.402582  0  0.917221  0  0.621425  0  0.295643  0.384861  0  0.943113  0
C  C74  1  0.02053208  0.10950525  0.84307052  1  0  -0.477398  0  3.706852  0  0  -0.498793  0  3.941124  0  0  -0.507583  0  3.949118  0  -0.495906  0  -0.166955  -0.492813  0  3.936165  0
C  C75  1  0.97946958  0.89049582  0.15692913  1  0  -0.477366  0  3.706883  0  0  -0.498717  0  3.941115  0  0  -0.507505  0  3.949112  0  -0.495918  0  -0.166906  -0.49274  0  3.936162  0
C  C76  1  0.13662972  0.02520934  0.85740764  1  0  0.151086  0  3.748644  0  0  0.171576  0  3.978251  0  0  0.173061  0  4.003358  0  -0.039226  0  -0.005539  0.170375  0  3.961681  0
C  C77  1  0.86337075  0.97479095  0.14259237  1  0  0.1511  0  3.748586  0  0  0.171543  0  3.978235  0  0  0.173027  0  4.003341  0  -0.039213  0  -0.005552  0.170343  0  3.961663  0
C  C78  1  0.10980702  0.91900814  0.85738587  1  0  -0.130088  0  3.733211  0  0  -0.147748  0  3.978654  0  0  -0.150697  0  3.999217  0  -0.095123  0  -0.095386  -0.146213  0  3.965844  0
C  C79  1  0.89019226  0.08099293  0.14261354  1  0  -0.130105  0  3.733206  0  0  -0.147738  0  3.978635  0  0  -0.1507  0  3.999219  0  -0.095138  0  -0.095381  -0.146203  0  3.965827  0
C  C80  1  0.22165670  0.84355709  0.86894212  1  0  -0.124155  0  3.763579  0  0  -0.143939  0  4.016758  0  0  -0.145758  0  4.036117  0  -0.068612  0  -0.096469  -0.142267  0  4.004109  0
C  C81  1  0.77834378  0.15644243  0.13105645  1  0  -0.124183  0  3.763594  0  0  -0.143953  0  4.016788  0  0  -0.145772  0  4.036147  0  -0.068637  0  -0.096515  -0.142281  0  4.004138  0
C  C82  1  0.36583605  0.87080653  0.88071981  1  0  0.035698  0  3.805847  0  0  0.048652  0  4.040704  0  0  0.048854  0  4.064566  0  -0.029166  0  -0.01552  0.048472  0  4.024552  0
C  C83  1  0.63416442  0.12919376  0.11927943  1  0  0.035745  0  3.805888  0  0  0.048643  0  4.040786  0  0  0.048846  0  4.064648  0  -0.029158  0  -0.015529  0.048464  0  4.024633  0
C  C84  1  0.39137359  0.97729957  0.88141830  1  0  -0.109139  0  3.74288  0  0  -0.127685  0  3.991261  0  0  -0.129441  0  4.01113  0  -0.079821  0  -0.090461  -0.126353  0  3.97732  0
C  C85  1  0.60862689  0.02269994  0.11858028  1  0  -0.109066  0  3.742815  0  0  -0.127592  0  3.991208  0  0  -0.129346  0  4.011075  0  -0.079897  0  -0.090422  -0.126261  0  3.977267  0
C  C86  1  0.27909444  0.05218593  0.87051617  1  0  -0.125397  0  3.74936  0  0  -0.142857  0  3.992231  0  0  -0.14614  0  4.014212  0  -0.020485  0  -0.095146  -0.140132  0  3.976662  0
C  C87  1  0.72090604  0.94781436  0.12948232  1  0  -0.125457  0  3.749391  0  0  -0.142926  0  3.992265  0  0  -0.146208  0  4.014244  0  -0.02041  0  -0.095144  -0.140201  0  3.976695  0
C  C88  1  0.49026682  0.79351260  0.88759899  1  0  0.032055  0  3.798478  0  0  0.047236  0  4.028624  0  0  0.046384  0  4.052934  0  0.044887  0  -0.015339  0.047581  0  4.012675  0
C  C89  1  0.50973365  0.20648769  0.11240026  1  0  0.032108  0  3.798491  0  0  0.047341  0  4.028581  0  0  0.046489  0  4.052892  0  0.044892  0  -0.015299  0.047686  0  4.012632  0
C  C90  1  0.49837954  0.69551751  0.84978644  1  0  -0.11402  0  3.764  0  0  -0.134243  0  4.015381  0  0  -0.13561  0  4.035342  0  -0.092479  0  -0.09436  -0.13291  0  4.001597  0
C  C91  1  0.50162094  0.30448278  0.15021357  1  0  -0.114156  0  3.764182  0  0  -0.134401  0  4.015564  0  0  -0.135766  0  4.035521  0  -0.092488  0  -0.094407  -0.133067  0  4.001781  0
C  C92  1  0.62408288  0.62731635  0.84842532  1  0  -0.118158  0  3.724487  0  0  -0.138768  0  3.969174  0  0  -0.141202  0  3.989449  0  -0.018687  0  -0.093315  -0.137216  0  3.955542  0
C  C93  1  0.37591760  0.37268317  0.15157479  1  0  -0.118089  0  3.724405  0  0  -0.138693  0  3.969092  0  0  -0.141125  0  3.989366  0  -0.018662  0  -0.093305  -0.137141  0  3.95546  0
C  C94  1  0.74585434  0.65394604  0.88624803  1  0  0.143565  0  3.780677  0  0  0.167366  0  4.007929  0  0  0.16878  0  4.032769  0  -0.025282  0  -0.007176  0.166565  0  3.990965  0
C  C95  1  0.25414614  0.34605347  0.11375284  1  0  0.143515  0  3.780683  0  0  0.167303  0  4.007952  0  0  0.168717  0  4.032792  0  -0.024889  0  -0.007226  0.166501  0  3.990987  0
C  C96  1  0.73452659  0.74947616  0.92804228  1  0  -0.129677  0  3.754534  0  0  -0.148735  0  4.000041  0  0  -0.152126  0  4.022016  0  -0.064944  0  -0.097089  -0.146441  0  3.985727  0
C  C97  1  0.26547270  0.25052413  0.07195799  1  0  -0.129667  0  3.754569  0  0  -0.148728  0  4.000085  0  0  -0.15212  0  4.022063  0  -0.064961  0  -0.097086  -0.146434  0  3.985772  0
C  C98  1  0.60982319  0.81786832  0.92873119  1  0  -0.088451  0  3.74379  0  0  -0.107755  0  3.991873  0  0  -0.108829  0  4.012212  0  -0.076242  0  -0.089079  -0.107437  0  3.979016  0
C  C99  1  0.39017610  0.18213197  0.07126909  1  0  -0.088484  0  3.74376  0  0  -0.1078  0  3.991837  0  0  -0.108876  0  4.012179  0  -0.076237  0  -0.089089  -0.107483  0  3.978981  0
C  C100  1  0.88978603  0.58662265  0.87705443  1  0  -0.473051  0  3.7278  0  0  -0.500379  0  3.971001  0  0  -0.509072  0  3.979199  0  -0.479304  0  -0.165729  -0.494453  0  3.965262  0
C  C101  1  0.11021445  0.41337608  0.12294653  1  0  -0.473048  0  3.727869  0  0  -0.500367  0  3.971043  0  0  -0.509061  0  3.979241  0  -0.479633  0  -0.165716  -0.494435  0  3.965293  0
C  C102  1  0.69406198  0.22455394  0.81535817  1  0  0.187456  0  3.605368  0  0  0.12886  0  3.875172  0  0  0.137849  0  3.881318  0  0.367327  0  -0.06455  0.12282  0  3.87108  0
C  C103  1  0.30593850  0.77544557  0.18464040  1  0  0.187435  0  3.605355  0  0  0.128857  0  3.87515  0  0  0.137845  0  3.8813  0  0.355201  0  -0.064543  0.122817  0  3.871058  0
C  C104  1  0.70486867  0.33104075  0.84831349  1  0  -0.332712  0  3.705452  0  0  -0.410688  0  3.954088  0  0  -0.414071  0  3.964102  0  -0.06792  0  -0.254182  -0.407919  0  3.946486  0
C  C105  1  0.29513181  0.66895876  0.15168585  1  0  -0.33274  0  3.705442  0  0  -0.410708  0  3.95408  0  0  -0.414092  0  3.964093  0  -0.067912  0  -0.254187  -0.407935  0  3.94648  0
C  C106  1  0.17321744  0.41697920  0.78409654  1  0  0.18228  0  3.638377  0  0  0.127979  0  3.909328  0  0  0.13643  0  3.915614  0  0.456158  0  -0.065705  0.122198  0  3.904831  0
C  C107  1  0.82678303  0.58302110  0.21590347  1  0  0.182271  0  3.638369  0  0  0.127947  0  3.909307  0  0  0.136401  0  3.915592  0  0.456162  0  -0.065707  0.122171  0  3.904809  0
C  C108  1  0.33904752  0.37970386  0.77635679  1  0  -0.318072  0  3.70794  0  0  -0.395834  0  3.953577  0  0  -0.399251  0  3.963776  0  -0.017924  0  -0.246952  -0.393329  0  3.946485  0
C  C109  1  0.66095295  0.62029643  0.22364322  1  0  -0.318044  0  3.707979  0  0  -0.395789  0  3.953634  0  0  -0.399206  0  3.963835  0  -0.017931  0  -0.246928  -0.393283  0  3.946541  0
C  C110  1  0.29920265  0.88809322  0.55519766  1  0  0.182738  0  3.652956  0  0  0.120477  0  3.922094  0  0  0.135759  0  3.933921  0  0.971922  0  0.147454  0.110484  0  3.913639  0
C  C111  1  0.70079664  0.11190629  0.44480271  1  0  0.182615  0  3.653093  0  0  0.120376  0  3.922229  0  0  0.135654  0  3.934059  0  0.971931  0  0.147373  0.110383  0  3.913774  0
C  C112  1  0.51204541  0.89657247  0.40710072  1  0  -0.066693  0  3.662049  0  0  -0.110405  0  3.924655  0  0  -0.109273  0  3.944124  0  0.279804  0  -0.003943  -0.110486  0  3.911553  0
C  C113  1  0.48795389  0.10342626  0.59289898  1  0  -0.066688  0  3.661986  0  0  -0.110399  0  3.924619  0  0  -0.109288  0  3.944071  0  0.279823  0  -0.003969  -0.110478  0  3.911514  0
C  C114  1  0.38136790  0.93197374  0.37959616  1  0  -0.006485  0  3.753912  0  0  -0.039121  0  4.023944  0  0  -0.037399  0  4.044357  0  0.368805  0  -0.00645  -0.040394  0  4.009706  0
C  C115  1  0.61863139  0.06802733  0.62040402  1  0  -0.006541  0  3.753956  0  0  -0.039184  0  4.023978  0  0  -0.037459  0  4.044395  0  0.368789  0  -0.006473  -0.040457  0  4.009741  0
C  C116  1  0.55277406  0.82641149  0.58522269  1  0  0.097276  0  3.625723  0  0  0.022974  0  3.863073  0  0  0.032466  0  3.872368  0  0.690585  0  0.065104  0.016629  0  3.856922  0
C  C117  1  0.44722049  0.17358880  0.41477482  1  0  0.097218  0  3.625743  0  0  0.022986  0  3.863035  0  0  0.032482  0  3.872319  0  0.690459  0  0.065038  0.01664  0  3.856884  0
C  C118  1  0.76342230  0.69717329  0.51429288  1  0  0.176318  0  3.639927  0  0  0.116025  0  3.902645  0  0  0.130559  0  3.914332  0  0.958427  0  0.147327  0.106613  0  3.894571  0
C  C119  1  0.23657937  0.30282544  0.48571011  1  0  0.176208  0  3.639956  0  0  0.115899  0  3.90269  0  0  0.13043  0  3.914378  0  0.958383  0  0.147269  0.106489  0  3.894614  0
C  C120  1  0.62604683  0.55386642  0.55341457  1  0  0.006257  0  3.753129  0  0  -0.023871  0  4.014592  0  0  -0.022399  0  4.036171  0  0.39544  0  -0.001456  -0.025083  0  4.000034  0
C  C121  1  0.37395128  0.44613388  0.44658750  1  0  0.006282  0  3.753126  0  0  -0.023834  0  4.014586  0  0  -0.022362  0  4.036166  0  0.395455  0  -0.001466  -0.025049  0  4.000031  0
C  C122  1  0.51945206  0.63222132  0.58774720  1  0  -0.067688  0  3.652178  0  0  -0.108796  0  3.914196  0  0  -0.108022  0  3.93281  0  0.227776  0  -0.000264  -0.10908  0  3.901512  0
C  C123  1  0.48054723  0.36777819  0.41225240  1  0  -0.06772  0  3.652306  0  0  -0.108789  0  3.91432  0  0  -0.108015  0  3.932937  0  0.227962  0  -0.000223  -0.109072  0  3.901636  0
N  N124  1  0.24967862  0.92656829  0.47275512  1  0  -0.396925  0  3.235055  0  0  -0.321236  0  3.513704  0  0  -0.342268  0  3.529887  0  -1.218782  0  -0.357872  -0.306213  0  3.502338  0
N  N125  1  0.75031948  0.07343278  0.52724533  1  0  -0.396815  0  3.23513  0  0  -0.321128  0  3.51379  0  0  -0.342158  0  3.529972  0  -1.218768  0  -0.357826  -0.306104  0  3.502423  0
N  N126  1  0.77690521  0.59538020  0.50787195  1  0  -0.393729  0  3.260461  0  0  -0.31886  0  3.540334  0  0  -0.339808  0  3.557508  0  -1.207966  0  -0.361458  -0.304483  0  3.528477  0
N  N127  1  0.22309409  0.40461853  0.49213080  1  0  -0.393711  0  3.260401  0  0  -0.318871  0  3.540301  0  0  -0.339818  0  3.557475  0  -1.207956  0  -0.361456  -0.304494  0  3.528443  0
N  N128  1  0.45767480  0.86905252  0.51866593  1  0  -0.086922  0  3.584347  0  0  0.003085  0  3.808156  0  0  -0.012217  0  3.833406  0  -1.249436  0  -0.244692  0.0131  0  3.790842  0
N  N129  1  0.54232212  0.13094699  0.48133344  1  0  -0.086938  0  3.584158  0  0  0.003039  0  3.807986  0  0  -0.012264  0  3.833239  0  -1.249405  0  -0.244647  0.013055  0  3.790669  0
N  N130  1  0.60895173  0.72240524  0.56248643  1  0  -0.080449  0  3.580244  0  0  0.008773  0  3.804093  0  0  -0.006495  0  3.829805  0  -1.240715  0  -0.245695  0.01898  0  3.786324  0
N  N131  1  0.39104993  0.27759661  0.43751312  1  0  -0.08038  0  3.580327  0  0  0.008811  0  3.804151  0  0  -0.006455  0  3.829861  0  -1.240763  0  -0.245699  0.019016  0  3.786383  0
O  O132  1  0.06002517  0.09167521  0.62864524  1  0  -0.847481  0  1.934582  0  0  -0.772948  0  2.210323  0  0  -0.799705  0  2.19112  0  -1.457774  0  -0.386724  -0.753701  0  2.223698  0
O  O133  1  0.93997766  0.90832742  0.37135396  1  0  -0.847562  0  1.934538  0  0  -0.773024  0  2.210287  0  0  -0.79978  0  2.191075  0  -1.457706  0  -0.386769  -0.753778  0  2.223663  0
O  O134  1  0.81459510  0.00467735  0.77995956  1  0  -0.838831  0  1.935387  0  0  -0.76095  0  2.174852  0  0  -0.786456  0  2.159146  0  -1.458786  0  -0.37275  -0.742028  0  2.184829  0
O  O135  1  0.18541368  0.99532294  0.22004090  1  0  -0.838835  0  1.93534  0  0  -0.760921  0  2.174798  0  0  -0.786407  0  2.159048  0  -1.45889  0  -0.372707  -0.742001  0  2.184776  0
O  O136  1  0.83877470  0.20392918  0.72799779  1  0  -0.533562  0  2.225296  0  0  -0.437052  0  2.467099  0  0  -0.458571  0  2.459112  0  -1.294397  0  -0.224866  -0.422303  0  2.472581  0
O  O137  1  0.16122696  0.79607111  0.27200120  1  0  -0.5336  0  2.225292  0  0  -0.437074  0  2.467082  0  0  -0.458596  0  2.459096  0  -1.29437  0  -0.224848  -0.422325  0  2.472564  0
O  O138  1  0.07080080  0.69439495  0.68067237  1  0  -0.850238  0  1.905242  0  0  -0.770199  0  2.142378  0  0  -0.796203  0  2.125151  0  -1.46855  0  -0.373156  -0.751848  0  2.15356  0
O  O139  1  0.92919849  0.30560534  0.31932867  1  0  -0.850171  0  1.90526  0  0  -0.770133  0  2.142405  0  0  -0.79613  0  2.125165  0  -1.468555  0  -0.373135  -0.751781  0  2.153586  0
O  O140  1  0.93886393  0.51800832  0.68216984  1  0  -0.855479  0  1.992101  0  0  -0.77488  0  2.268761  0  0  -0.802688  0  2.25066  0  -1.447246  0  -0.381813  -0.755031  0  2.280529  0
O  O141  1  0.06113655  0.48199119  0.31783103  1  0  -0.855452  0  1.992097  0  0  -0.774853  0  2.268758  0  0  -0.802662  0  2.250658  0  -1.447257  0  -0.381788  -0.755003  0  2.280523  0
O  O142  1  0.17823971  0.52821351  0.74990025  1  0  -0.51877  0  2.191838  0  0  -0.431928  0  2.442442  0  0  -0.452032  0  2.43427  0  -1.293761  0  -0.229836  -0.417762  0  2.447564  0
O  O143  1  0.82176077  0.47178678  0.25009976  1  0  -0.518776  0  2.191878  0  0  -0.43191  0  2.442479  0  0  -0.452016  0  2.434307  0  -1.293739  0  -0.229821  -0.417756  0  2.447607  0
O  O144  1  0.11588184  0.13760597  0.35822664  1  0  -0.854056  0  1.827667  0  0  -0.791321  0  2.018517  0  0  -0.813778  0  1.987891  0  -1.266076  0  -0.592763  -0.77557  0  2.039763  0
O  O145  1  0.88411745  0.86239432  0.64177364  1  0  -0.854092  0  1.827652  0  0  -0.791351  0  2.018477  0  0  -0.813801  0  1.987848  0  -1.266171  0  -0.592796  -0.775601  0  2.039726  0
O  O146  1  0.16118789  0.65825153  0.46263058  1  0  -0.832647  0  1.821787  0  0  -0.770595  0  2.000938  0  0  -0.790385  0  1.968303  0  -1.242849  0  -0.585216  -0.756551  0  2.023694  0
O  O147  1  0.83881259  0.34174876  0.53737019  1  0  -0.832658  0  1.821791  0  0  -0.770603  0  2.000934  0  0  -0.790397  0  1.968306  0  -1.242884  0  -0.585212  -0.756558  0  2.023691  0
