# generated using pymatgen
data_CdH6C4SN3ClO3
_symmetry_space_group_name_H-M   'P 1'
_cell_length_a   6.23716507
_cell_length_b   7.95409304
_cell_length_c   8.58179145
_cell_angle_alpha   94.38515278
_cell_angle_beta   102.77649466
_cell_angle_gamma   92.11058348
_symmetry_Int_Tables_number   1
_chemical_formula_structural   CdH6C4SN3ClO3
_chemical_formula_sum   'Cd2 H12 C8 S2 N6 Cl2 O6'
_cell_volume   413.36150091
_cell_formula_units_Z   2
loop_
 _symmetry_equiv_pos_site_id
 _symmetry_equiv_pos_as_xyz
  1  'x, y, z'
loop_
 _atom_site_type_symbol
 _atom_site_label
 _atom_site_symmetry_multiplicity
 _atom_site_fract_x
 _atom_site_fract_y
 _atom_site_fract_z
 _atom_site_occupancy
 _atom_site_pbe_bader_spin_density
 _atom_site_pbe_cm5_charge
 _atom_site_pbe_ddec_charge
 _atom_site_pbe_ddec_spin_density
 _atom_site_pbe_ddec_sum_bond_order
 _atom_site_pbe_magmom
Cd  Cd0  1  0.50000079  0.50000139  0.49999941  1  0  0.705013  0.866599  0  2.363736  0
Cd  Cd1  1  0.50000186  0.99999954  0.50000138  1  0  0.709036  0.858511  0  2.334928  0
H  H2  1  0.32049446  0.44356406  0.97204191  1  0  0.115779  0.098331  0  0.99853  0
H  H3  1  0.67951175  0.55643369  0.02795845  1  0  0.115795  0.098384  0  0.998511  0
H  H4  1  0.40946607  0.28716676  0.84461862  1  0  0.113155  0.105837  0  0.987071  0
H  H5  1  0.59053356  0.71283096  0.15538069  1  0  0.113156  0.10587  0  0.987028  0
H  H6  1  0.30890086  0.05957379  0.01000516  1  0  0.107209  0.142613  0  1.027872  0
H  H7  1  0.69109876  0.94042393  0.98999299  1  0  0.107228  0.142651  0  1.027871  0
H  H8  1  0.22314829  0.21577972  0.14041330  1  0  0.099541  0.133164  0  1.023595  0
H  H9  1  0.77685462  0.78421801  0.85958538  1  0  0.099561  0.133201  0  1.023475  0
H  H10  1  0.99537702  0.55266772  0.79854112  1  0  0.139639  0.121503  0  1.026046  0
H  H11  1  0.00462443  0.44733253  0.20146216  1  0  0.139653  0.121483  0  1.026058  0
H  H12  1  0.01518443  0.02067539  0.76926640  1  0  0.141766  0.126464  0  1.010652  0
H  H13  1  0.98481536  0.97932485  0.23073429  1  0  0.141772  0.126461  0  1.010641  0
C  C14  1  0.29540965  0.31112142  0.92353110  1  0  -0.05063  -0.026204  0  3.861207  0
C  C15  1  0.70459484  0.68887506  0.07647006  1  0  -0.050716  -0.026361  0  3.861157  0
C  C16  1  0.33121423  0.19285850  0.05673913  1  0  -0.164462  -0.371678  0  3.856513  0
C  C17  1  0.66878210  0.80713920  0.94325733  1  0  -0.164517  -0.37175  0  3.856473  0
C  C18  1  0.94493079  0.41988824  0.76910166  1  0  0.166539  0.109999  0  3.867711  0
C  C19  1  0.05507090  0.58011580  0.23090076  1  0  0.166505  0.110041  0  3.867769  0
C  C20  1  0.95634416  0.14639120  0.75499340  1  0  0.171933  0.131046  0  3.839313  0
C  C21  1  0.04365242  0.85361029  0.24500571  1  0  0.171942  0.131079  0  3.839274  0
S  S22  1  0.60802672  0.22212056  0.17564541  1  0  0.50358  1.227719  0  6.110128  0
S  S23  1  0.39197292  0.77787716  0.82435624  1  0  0.50345  1.227524  0  6.110284  0
N  N24  1  0.76756344  0.18369523  0.66376000  1  0  -0.241604  -0.187558  0  3.458802  0
N  N25  1  0.23243660  0.81630879  0.33624216  1  0  -0.241651  -0.187613  0  3.458677  0
N  N26  1  0.07120651  0.29184669  0.82420345  1  0  -0.22382  0.034827  0  3.704147  0
N  N27  1  0.92879855  0.70815862  0.17580077  1  0  -0.223735  0.034877  0  3.704199  0
N  N28  1  0.76033389  0.35630581  0.67216247  1  0  -0.240872  -0.190495  0  3.453769  0
N  N29  1  0.23966458  0.64369947  0.32783953  1  0  -0.240844  -0.19049  0  3.4538  0
Cl  Cl30  1  0.77869278  0.75927447  0.53620018  1  0  -0.286802  -0.468413  0  1.254383  0
Cl  Cl31  1  0.22131039  0.24072705  0.46380346  1  0  -0.286824  -0.468414  0  1.254342  0
O  O32  1  0.63678144  0.07588190  0.27295075  1  0  -0.352704  -0.617886  0  2.326278  0
O  O33  1  0.36321985  0.92411582  0.72705116  1  0  -0.352646  -0.61781  0  2.326292  0
O  O34  1  0.75668481  0.22322761  0.06494285  1  0  -0.348842  -0.600792  0  2.149292  0
O  O35  1  0.24331810  0.77677012  0.93505582  1  0  -0.348809  -0.600706  0  2.149369  0
O  O36  1  0.62109653  0.38625424  0.27105800  1  0  -0.3564  -0.631017  0  2.35335  0
O  O37  1  0.37890153  0.61374473  0.72894115  1  0  -0.356376  -0.630998  0  2.353375  0
