# generated using pymatgen
data_CdH10C10(N2Cl)2
_symmetry_space_group_name_H-M   'P 1'
_cell_length_a   7.04457042
_cell_length_b   9.53274774
_cell_length_c   18.08846078
_cell_angle_alpha   90.00297790
_cell_angle_beta   89.99296393
_cell_angle_gamma   90.00422765
_symmetry_Int_Tables_number   1
_chemical_formula_structural   CdH10C10(N2Cl)2
_chemical_formula_sum   'Cd4 H40 C40 N16 Cl8'
_cell_volume   1214.71452012
_cell_formula_units_Z   4
loop_
 _symmetry_equiv_pos_site_id
 _symmetry_equiv_pos_as_xyz
  1  'x, y, z'
loop_
 _atom_site_type_symbol
 _atom_site_label
 _atom_site_symmetry_multiplicity
 _atom_site_fract_x
 _atom_site_fract_y
 _atom_site_fract_z
 _atom_site_occupancy
 _atom_site_pbe_bader_spin_density
 _atom_site_pbe_cm5_charge
 _atom_site_pbe_ddec_charge
 _atom_site_pbe_ddec_spin_density
 _atom_site_pbe_ddec_sum_bond_order
 _atom_site_pbe_magmom
Cd  Cd0  1  0.74999882  0.91289817  0.00000342  1  0  0.596559  0.75136  0  2.458857  0
Cd  Cd1  1  0.74997328  0.41287916  0.49999902  1  0  0.596636  0.751578  0  2.458748  0
Cd  Cd2  1  0.25003609  0.08711121  0.99999302  1  0  0.596608  0.75137  0  2.458961  0
Cd  Cd3  1  0.25001194  0.58710819  0.50000073  1  0  0.596584  0.751549  0  2.458721  0
H  H4  1  0.69969157  0.36038713  0.94596058  1  0  0.10103  0.120121  0  1.019838  0
H  H5  1  0.80031657  0.86040382  0.44598026  1  0  0.101012  0.120048  0  1.02005  0
H  H6  1  0.19969395  0.63960687  0.94599697  1  0  0.101071  0.120182  0  1.019743  0
H  H7  1  0.69973270  0.86036928  0.55404603  1  0  0.101007  0.120089  0  1.019988  0
H  H8  1  0.30029933  0.63962121  0.05404581  1  0  0.100988  0.120045  0  1.019895  0
H  H9  1  0.19967717  0.13961500  0.55400899  1  0  0.10102  0.120077  0  1.019893  0
H  H10  1  0.80030830  0.36040356  0.05401163  1  0  0.101001  0.120079  0  1.019869  0
H  H11  1  0.30025394  0.13960234  0.44595648  1  0  0.100992  0.120035  0  1.020032  0
H  H12  1  0.55524139  0.37467629  0.82380127  1  0  0.099659  0.10391  0  1.017704  0
H  H13  1  0.94481516  0.87463950  0.32381737  1  0  0.099616  0.103784  0  1.01781  0
H  H14  1  0.05523250  0.62533134  0.82383227  1  0  0.099741  0.10408  0  1.017561  0
H  H15  1  0.55522693  0.87467312  0.67621929  1  0  0.099656  0.103867  0  1.017652  0
H  H16  1  0.44477365  0.62534148  0.17620291  1  0  0.099647  0.103834  0  1.017638  0
H  H17  1  0.05517148  0.12534890  0.67618128  1  0  0.099646  0.103831  0  1.017814  0
H  H18  1  0.94476692  0.37467385  0.17616969  1  0  0.099704  0.104002  0  1.017501  0
H  H19  1  0.44476256  0.12531529  0.32378433  1  0  0.099676  0.10392  0  1.017517  0
H  H20  1  0.53644815  0.82587005  0.84924040  1  0  0.099259  0.081281  0  1.039261  0
H  H21  1  0.96360293  0.32585404  0.34921865  1  0  0.099257  0.081208  0  1.039173  0
H  H22  1  0.03646681  0.17412526  0.84923032  1  0  0.099287  0.08131  0  1.039224  0
H  H23  1  0.53627024  0.32586318  0.65074981  1  0  0.099202  0.081174  0  1.039253  0
H  H24  1  0.46362224  0.17413305  0.15075217  1  0  0.099197  0.08124  0  1.039229  0
H  H25  1  0.03636668  0.67413541  0.65077834  1  0  0.099327  0.081428  0  1.039131  0
H  H26  1  0.96355675  0.82588937  0.15077054  1  0  0.09928  0.08123  0  1.039197  0
H  H27  1  0.46371215  0.67412837  0.34924441  1  0  0.099205  0.081284  0  1.039274  0
H  H28  1  0.47721507  0.54923031  0.71508327  1  0  0.281172  0.293176  0  0.990551  0
H  H29  1  0.02283560  0.04918551  0.21507705  1  0  0.281193  0.293325  0  0.989984  0
H  H30  1  0.97722820  0.45076224  0.71509756  1  0  0.281167  0.29312  0  0.990748  0
H  H31  1  0.47708566  0.04928017  0.78492951  1  0  0.281078  0.293027  0  0.990633  0
H  H32  1  0.52279854  0.45077907  0.28491482  1  0  0.281196  0.293224  0  0.990428  0
H  H33  1  0.97715530  0.95080289  0.78492325  1  0  0.281149  0.293224  0  0.990105  0
H  H34  1  0.02278399  0.54923351  0.28490219  1  0  0.281123  0.293108  0  0.990772  0
H  H35  1  0.52289957  0.95073236  0.21507356  1  0  0.281073  0.293086  0  0.990626  0
H  H36  1  0.42623239  0.71489463  0.73797880  1  0  0.296253  0.286182  0  0.96832  0
H  H37  1  0.07378675  0.21487902  0.23794858  1  0  0.296284  0.286181  0  0.968427  0
H  H38  1  0.92623577  0.28508453  0.73798006  1  0  0.296224  0.286122  0  0.968237  0
H  H39  1  0.42602929  0.21490876  0.76202512  1  0  0.296119  0.28593  0  0.968526  0
H  H40  1  0.57377839  0.28511056  0.26202040  1  0  0.296242  0.286116  0  0.968396  0
H  H41  1  0.92617860  0.78512197  0.76204453  1  0  0.296299  0.286202  0  0.968461  0
H  H42  1  0.07375655  0.71491227  0.26202909  1  0  0.296284  0.286167  0  0.968339  0
H  H43  1  0.57395026  0.78509328  0.23796800  1  0  0.296132  0.285934  0  0.968508  0
C  C44  1  0.79645195  0.58667107  0.03654802  1  0  0.102073  0.140321  0  4.015562  0
C  C45  1  0.70353643  0.08665670  0.53655579  1  0  0.102106  0.140182  0  4.015825  0
C  C46  1  0.29646875  0.41333924  0.03655528  1  0  0.10218  0.140457  0  4.015504  0
C  C47  1  0.79645782  0.08666540  0.46345504  1  0  0.102088  0.140412  0  4.015853  0
C  C48  1  0.20355457  0.41333936  0.96345892  1  0  0.102177  0.140559  0  4.015217  0
C  C49  1  0.29644737  0.91331911  0.46344120  1  0  0.10197  0.140224  0  4.015486  0
C  C50  1  0.70354061  0.58666595  0.96344779  1  0  0.102102  0.140425  0  4.015391  0
C  C51  1  0.20352882  0.91332405  0.53654527  1  0  0.102198  0.140448  0  4.015496  0
C  C52  1  0.66589942  0.46333441  0.92343800  1  0  -0.082458  -0.135144  0  3.96706  0
C  C53  1  0.83411123  0.96333314  0.42345386  1  0  -0.082627  -0.135322  0  3.967435  0
C  C54  1  0.16589789  0.53666808  0.92346370  1  0  -0.082858  -0.135653  0  3.967381  0
C  C55  1  0.66589370  0.96331869  0.57656211  1  0  -0.082391  -0.134976  0  3.96703  0
C  C56  1  0.33410426  0.53667287  0.07656562  1  0  -0.082387  -0.135024  0  3.967191  0
C  C57  1  0.16589529  0.03666995  0.57654368  1  0  -0.082722  -0.135424  0  3.967137  0
C  C58  1  0.83410294  0.46334340  0.07654655  1  0  -0.082622  -0.135285  0  3.967252  0
C  C59  1  0.33409436  0.03665608  0.42343487  1  0  -0.08236  -0.134933  0  3.966939  0
C  C60  1  0.58332512  0.47107362  0.85417603  1  0  -0.084185  -0.135201  0  3.949425  0
C  C61  1  0.91669959  0.97104883  0.35418297  1  0  -0.083866  -0.134791  0  3.948938  0
C  C62  1  0.08332855  0.52892697  0.85419710  1  0  -0.084145  -0.135276  0  3.949167  0
C  C63  1  0.58332309  0.97106024  0.64583654  1  0  -0.084122  -0.134963  0  3.948745  0
C  C64  1  0.41667288  0.52893786  0.14582925  1  0  -0.084192  -0.135089  0  3.949077  0
C  C65  1  0.08329841  0.02894481  0.64581512  1  0  -0.083915  -0.13483  0  3.949148  0
C  C66  1  0.91667370  0.47108871  0.14580984  1  0  -0.084042  -0.135227  0  3.949281  0
C  C67  1  0.41666923  0.02891977  0.35416045  1  0  -0.084235  -0.135113  0  3.948797  0
C  C68  1  0.53456655  0.60222603  0.82383652  1  0  0.095819  0.254756  0  4.101613  0
C  C69  1  0.96549585  0.10219650  0.32383459  1  0  0.095648  0.254693  0  4.101745  0
C  C70  1  0.03457905  0.39776571  0.82384334  1  0  0.095755  0.254672  0  4.101394  0
C  C71  1  0.53448849  0.10222052  0.67617226  1  0  0.095606  0.254405  0  4.101898  0
C  C72  1  0.46544849  0.39778230  0.17616323  1  0  0.095799  0.254604  0  4.101887  0
C  C73  1  0.03449363  0.89779610  0.67616240  1  0  0.095649  0.254774  0  4.101861  0
C  C74  1  0.96544876  0.60224262  0.17615918  1  0  0.095625  0.254654  0  4.1019  0
C  C75  1  0.46549957  0.89776579  0.32382196  1  0  0.095631  0.254501  0  4.102085  0
C  C76  1  0.57365052  0.72027706  0.86783439  1  0  0.025112  -0.032149  0  3.948536  0
C  C77  1  0.92638202  0.22025888  0.36782050  1  0  0.025264  -0.03179  0  3.948713  0
C  C78  1  0.07367475  0.27972216  0.86783285  1  0  0.025138  -0.03213  0  3.948344  0
C  C79  1  0.57350686  0.22026739  0.63216375  1  0  0.025396  -0.031405  0  3.948631  0
C  C80  1  0.42638723  0.27972918  0.13216592  1  0  0.02511  -0.031916  0  3.948541  0
C  C81  1  0.07359611  0.77972742  0.63217815  1  0  0.025171  -0.032205  0  3.949167  0
C  C82  1  0.92635306  0.72028617  0.13217298  1  0  0.025117  -0.032031  0  3.948532  0
C  C83  1  0.42647978  0.77972206  0.36783158  1  0  0.025472  -0.031647  0  3.949078  0
N  N84  1  0.84477549  0.71181196  0.06576286  1  0  -0.332987  -0.247772  0  3.572195  0
N  N85  1  0.65511170  0.21178744  0.56575580  1  0  -0.333228  -0.248201  0  3.573124  0
N  N86  1  0.34481470  0.28820811  0.06575825  1  0  -0.332989  -0.247907  0  3.572398  0
N  N87  1  0.84476645  0.21179724  0.43422986  1  0  -0.333097  -0.247982  0  3.572636  0
N  N88  1  0.15524806  0.28819742  0.93424242  1  0  -0.333043  -0.247749  0  3.571773  0
N  N89  1  0.34486217  0.78819048  0.43423621  1  0  -0.333163  -0.248135  0  3.573031  0
N  N90  1  0.65521595  0.71180023  0.93424316  1  0  -0.33306  -0.247769  0  3.57209  0
N  N91  1  0.15520884  0.78819326  0.56576934  1  0  -0.333043  -0.247813  0  3.572641  0
N  N92  1  0.44200001  0.61553954  0.75713673  1  0  -0.592433  -0.602098  0  3.353362  0
N  N93  1  0.05803222  0.11552302  0.25712164  1  0  -0.592519  -0.602429  0  3.353034  0
N  N94  1  0.94200980  0.38444339  0.75714249  1  0  -0.592312  -0.601912  0  3.353502  0
N  N95  1  0.44186399  0.11555081  0.74286691  1  0  -0.592104  -0.601749  0  3.353724  0
N  N96  1  0.55801219  0.38446669  0.24286302  1  0  -0.592433  -0.602077  0  3.353395  0
N  N97  1  0.94195159  0.88447588  0.74287424  1  0  -0.592457  -0.602362  0  3.353193  0
N  N98  1  0.05798536  0.61556075  0.24286058  1  0  -0.592278  -0.601938  0  3.3539  0
N  N99  1  0.55811555  0.88444808  0.25712842  1  0  -0.592075  -0.601711  0  3.353855  0
Cl  Cl100  1  0.57585518  0.08779850  0.91426374  1  0  -0.306571  -0.503046  0  1.24901  0
Cl  Cl101  1  0.92424973  0.58779513  0.41426701  1  0  -0.306626  -0.503188  0  1.249003  0
Cl  Cl102  1  0.07583043  0.91220208  0.91426535  1  0  -0.30661  -0.503105  0  1.249084  0
Cl  Cl103  1  0.57575855  0.58779623  0.58572939  1  0  -0.306571  -0.503136  0  1.24924  0
Cl  Cl104  1  0.42418115  0.91221927  0.08573380  1  0  -0.306582  -0.503084  0  1.249084  0
Cl  Cl105  1  0.07572698  0.41219432  0.58573053  1  0  -0.306589  -0.503187  0  1.249083  0
Cl  Cl106  1  0.92420306  0.08780835  0.08573274  1  0  -0.306591  -0.503134  0  1.249157  0
Cl  Cl107  1  0.42422383  0.41219008  0.41426649  1  0  -0.306575  -0.503125  0  1.249156  0
