# generated using pymatgen
data_CdH10C10(BrN)2
_symmetry_space_group_name_H-M   'P 1'
_cell_length_a   3.94427803
_cell_length_b   8.46568060
_cell_length_c   18.31439655
_cell_angle_alpha   90.00138159
_cell_angle_beta   84.72194269
_cell_angle_gamma   90.00040125
_symmetry_Int_Tables_number   1
_chemical_formula_structural   CdH10C10(BrN)2
_chemical_formula_sum   'Cd2 H20 C20 Br4 N4'
_cell_volume   608.94306655
_cell_formula_units_Z   2
loop_
 _symmetry_equiv_pos_site_id
 _symmetry_equiv_pos_as_xyz
  1  'x, y, z'
loop_
 _atom_site_type_symbol
 _atom_site_label
 _atom_site_symmetry_multiplicity
 _atom_site_fract_x
 _atom_site_fract_y
 _atom_site_fract_z
 _atom_site_occupancy
 _atom_site_pbe_bader_spin_density
 _atom_site_pbe_cm5_charge
 _atom_site_pbe_ddec_charge
 _atom_site_pbe_ddec_spin_density
 _atom_site_pbe_ddec_sum_bond_order
 _atom_site_pbe_magmom
Cd  Cd0  1  0.99998629  0.99999916  0.99999669  1  0  0.543868  0.654117  0  2.472195  0
Cd  Cd1  1  0.50003070  0.49999604  0.49999564  1  0  0.54377  0.653916  0  2.472069  0
H  H2  1  0.92830067  0.98088804  0.82924874  1  0  0.099407  0.071739  0  1.049968  0
H  H3  1  0.57179026  0.48091649  0.67074125  1  0  0.099393  0.07171  0  1.049701  0
H  H4  1  0.07172707  0.01908277  0.17074494  1  0  0.099389  0.07171  0  1.04983  0
H  H5  1  0.42813516  0.51910275  0.32924654  1  0  0.099337  0.071654  0  1.049751  0
H  H6  1  0.92135097  0.78878731  0.72359070  1  0  0.096278  0.109813  0  1.034969  0
H  H7  1  0.57871943  0.28883783  0.77639896  1  0  0.096304  0.109829  0  1.034967  0
H  H8  1  0.07859372  0.21117878  0.27640955  1  0  0.096207  0.109699  0  1.035058  0
H  H9  1  0.42120427  0.71121212  0.22359487  1  0  0.096277  0.10978  0  1.034736  0
H  H10  1  0.01635038  0.50327146  0.74770065  1  0  0.101438  0.092848  0  1.036985  0
H  H11  1  0.48367474  0.00331956  0.75230061  1  0  0.101446  0.092885  0  1.037026  0
H  H12  1  0.98361577  0.49669580  0.25230438  1  0  0.101357  0.092756  0  1.037015  0
H  H13  1  0.51627494  0.99672922  0.24771767  1  0  0.101435  0.092771  0  1.037142  0
H  H14  1  0.12250810  0.41774020  0.87578045  1  0  0.08973  0.107187  0  1.053387  0
H  H15  1  0.37751063  0.91776232  0.62422048  1  0  0.089784  0.107295  0  1.053351  0
H  H16  1  0.87759654  0.58225069  0.12421930  1  0  0.089849  0.107273  0  1.053313  0
H  H17  1  0.62243588  0.08224865  0.37580000  1  0  0.089759  0.107229  0  1.053332  0
H  H18  1  0.13124113  0.62538111  0.97323412  1  0  0.103425  0.079547  0  1.028037  0
H  H19  1  0.36881957  0.12537102  0.52676442  1  0  0.103403  0.079549  0  1.027915  0
H  H20  1  0.86892481  0.37461923  0.02676413  1  0  0.10339  0.079552  0  1.028024  0
H  H21  1  0.63113658  0.87461160  0.47324013  1  0  0.103351  0.079572  0  1.027948  0
C  C22  1  0.97155136  0.85482754  0.83626703  1  0  0.034955  0.078441  0  3.965914  0
C  C23  1  0.52849139  0.35484250  0.66372518  1  0  0.034914  0.078417  0  3.965913  0
C  C24  1  0.02847320  0.14515981  0.16372886  1  0  0.034897  0.078374  0  3.965466  0
C  C25  1  0.47144787  0.64517438  0.33626745  1  0  0.035007  0.078621  0  3.965909  0
C  C26  1  0.96530394  0.74844119  0.77844490  1  0  -0.090228  -0.131099  0  3.966309  0
C  C27  1  0.53475534  0.24847927  0.72154603  1  0  -0.09032  -0.131148  0  3.966846  0
C  C28  1  0.03468426  0.25154734  0.22155397  1  0  -0.090134  -0.130959  0  3.966612  0
C  C29  1  0.46520984  0.75156714  0.27845354  1  0  -0.09023  -0.131103  0  3.966594  0
C  C30  1  0.01871133  0.58878613  0.79206934  1  0  -0.070482  -0.024804  0  3.954298  0
C  C31  1  0.48131434  0.08881654  0.70793450  1  0  -0.070514  -0.024983  0  3.954303  0
C  C32  1  0.98131359  0.41118823  0.20793421  1  0  -0.070453  -0.024739  0  3.954778  0
C  C33  1  0.51862816  0.91121215  0.29207343  1  0  -0.070491  -0.024625  0  3.954507  0
C  C34  1  0.07832095  0.54116283  0.86260846  1  0  -0.087737  -0.123468  0  3.957278  0
C  C35  1  0.42171080  0.04117875  0.63738935  1  0  -0.087699  -0.123374  0  3.956958  0
C  C36  1  0.92173129  0.45883043  0.13739711  1  0  -0.087781  -0.123428  0  3.957256  0
C  C37  1  0.57825504  0.95882632  0.36261678  1  0  -0.087703  -0.123578  0  3.957071  0
C  C38  1  0.08172528  0.65551773  0.91726329  1  0  0.042788  0.096193  0  3.927471  0
C  C39  1  0.41832085  0.15552371  0.58273458  1  0  0.042725  0.096127  0  3.927749  0
C  C40  1  0.91837522  0.34448025  0.08273320  1  0  0.042752  0.096233  0  3.927224  0
C  C41  1  0.58164484  0.84447664  0.41727210  1  0  0.042788  0.096277  0  3.927574  0
Br  Br42  1  0.47124916  0.82336464  0.07316526  1  0  -0.260375  -0.459488  0  1.353852  0
Br  Br43  1  0.02876422  0.32333782  0.42682802  1  0  -0.26031  -0.459363  0  1.353768  0
Br  Br44  1  0.52875793  0.17663334  0.92682966  1  0  -0.260389  -0.4595  0  1.3538  0
Br  Br45  1  0.97128099  0.67664480  0.57316664  1  0  -0.260337  -0.459441  0  1.353884  0
N  N46  1  0.02830230  0.80944470  0.90439517  1  0  -0.331136  -0.22396  0  3.528948  0
N  N47  1  0.47176278  0.30943968  0.59559770  1  0  -0.33099  -0.223852  0  3.529274  0
N  N48  1  0.97177005  0.19054265  0.09559330  1  0  -0.331037  -0.224046  0  3.528625  0
N  N49  1  0.52819588  0.69056184  0.40439808  1  0  -0.331078  -0.224157  0  3.529386  0
