# generated using pymatgen
data_CuH7C7IN2
_symmetry_space_group_name_H-M   'P 1'
_cell_length_a   8.89568791
_cell_length_b   10.40364824
_cell_length_c   10.47961456
_cell_angle_alpha   105.87978052
_cell_angle_beta   90.02409386
_cell_angle_gamma   115.30811087
_symmetry_Int_Tables_number   1
_chemical_formula_structural   CuH7C7IN2
_chemical_formula_sum   'Cu4 H28 C28 I4 N8'
_cell_volume   835.59756782
_cell_formula_units_Z   4
loop_
 _symmetry_equiv_pos_site_id
 _symmetry_equiv_pos_as_xyz
  1  'x, y, z'
loop_
 _atom_site_type_symbol
 _atom_site_label
 _atom_site_symmetry_multiplicity
 _atom_site_fract_x
 _atom_site_fract_y
 _atom_site_fract_z
 _atom_site_occupancy
 _atom_site_hle17_bader_spin_density
 _atom_site_hle17_ddec_charge
 _atom_site_hle17_ddec_spin_density
 _atom_site_hle17_ddec_sum_bond_order
 _atom_site_hle17_magmom
 _atom_site_hse06_10hf_bader_spin_density
 _atom_site_hse06_10hf_ddec_charge
 _atom_site_hse06_10hf_ddec_spin_density
 _atom_site_hse06_10hf_ddec_sum_bond_order
 _atom_site_hse06_10hf_magmom
 _atom_site_hse06_bader_spin_density
 _atom_site_hse06_ddec_charge
 _atom_site_hse06_ddec_spin_density
 _atom_site_hse06_ddec_sum_bond_order
 _atom_site_hse06_magmom
 _atom_site_pbe_bader_spin_density
 _atom_site_pbe_cm5_charge
 _atom_site_pbe_ddec_charge
 _atom_site_pbe_ddec_spin_density
 _atom_site_pbe_ddec_sum_bond_order
 _atom_site_pbe_magmom
Cu  Cu0  1  0.64428657  0.06707482  0.96569452  1  0  0.299275  0  2.189538  0  0  0.20158  0  2.695289  0  0  0.204334  0  2.645124  0  0  0.352732  0.204461  0  2.724595  0
Cu  Cu1  1  0.57732890  0.93311668  0.53437834  1  0  0.299961  0  2.189249  0  0  0.202155  0  2.694736  0  0  0.20486  0  2.644611  0  0  0.353174  0.204885  0  2.725149  0
Cu  Cu2  1  0.35571626  0.93292351  0.03430896  1  0  0.299298  0  2.18951  0  0  0.201591  0  2.695274  0  0  0.204321  0  2.645098  0  0  0.352755  0.204475  0  2.724568  0
Cu  Cu3  1  0.42266327  0.06687607  0.46562548  1  0  0.299933  0  2.18912  0  0  0.202156  0  2.694569  0  0  0.204903  0  2.644451  0  0  0.35318  0.204857  0  2.725035  0
H  H4  1  0.22481918  0.42780282  0.92370617  1  0  0.103725  0  0.961798  0  0  0.113829  0  1.024133  0  0  0.117102  0  1.023303  0  0  0.102956  0.11096  0  1.026139  0
H  H5  1  0.79691924  0.57231134  0.57642653  1  0  0.104074  0  0.959953  0  0  0.114758  0  1.021416  0  0  0.117721  0  1.021105  0  0  0.10319  0.11119  0  1.024891  0
H  H6  1  0.77517415  0.57219450  0.07628462  1  0  0.103765  0  0.961804  0  0  0.113872  0  1.024134  0  0  0.117142  0  1.023311  0  0  0.102982  0.111001  0  1.026142  0
H  H7  1  0.20309036  0.42768930  0.42356899  1  0  0.104017  0  0.959984  0  0  0.114699  0  1.021455  0  0  0.117664  0  1.021146  0  0  0.10318  0.111129  0  1.024933  0
H  H8  1  0.06971327  0.56516054  0.30655119  1  0  0.098278  0  0.980685  0  0  0.104771  0  1.049043  0  0  0.108628  0  1.047646  0  0  0.089421  0.101535  0  1.051381  0
H  H9  1  0.50472086  0.43530130  0.19335475  1  0  0.098528  0  0.981053  0  0  0.105291  0  1.048993  0  0  0.109061  0  1.047699  0  0  0.089468  0.101451  0  1.052087  0
H  H10  1  0.93029015  0.43484570  0.69344208  1  0  0.098254  0  0.980594  0  0  0.10474  0  1.048976  0  0  0.108598  0  1.047578  0  0  0.08942  0.101502  0  1.051314  0
H  H11  1  0.49527018  0.56469595  0.80664556  1  0  0.098513  0  0.98102  0  0  0.105241  0  1.049011  0  0  0.10901  0  1.047719  0  0  0.08947  0.101402  0  1.052103  0
H  H12  1  0.80501866  0.32192975  0.23341371  1  0  0.06679  0  0.980213  0  0  0.07407  0  1.050274  0  0  0.077423  0  1.047045  0  0  0.101395  0.071294  0  1.053152  0
H  H13  1  0.48333449  0.67855919  0.26654881  1  0  0.067082  0  0.979959  0  0  0.074461  0  1.049781  0  0  0.077736  0  1.046598  0  0  0.101603  0.07126  0  1.05322  0
H  H14  1  0.19498865  0.67807754  0.76658843  1  0  0.066811  0  0.980264  0  0  0.074108  0  1.05029  0  0  0.077453  0  1.047087  0  0  0.101405  0.071331  0  1.053168  0
H  H15  1  0.51665146  0.32144135  0.73345909  1  0  0.067076  0  0.980128  0  0  0.074459  0  1.049928  0  0  0.077734  0  1.046745  0  0  0.101595  0.071237  0  1.053387  0
H  H16  1  0.27925045  0.61875372  0.14323344  1  0  0.09079  0  0.973959  0  0  0.100061  0  1.038837  0  0  0.10372  0  1.036139  0  0  0.095618  0.097176  0  1.041032  0
H  H17  1  0.66049129  0.38150400  0.35677065  1  0  0.089973  0  0.97305  0  0  0.099595  0  1.037804  0  0  0.103054  0  1.035382  0  0  0.095492  0.096757  0  1.040231  0
H  H18  1  0.72075522  0.38125030  0.85675921  1  0  0.090761  0  0.974085  0  0  0.100015  0  1.03897  0  0  0.103689  0  1.036224  0  0  0.095612  0.097128  0  1.041173  0
H  H19  1  0.33951043  0.61850110  0.64322706  1  0  0.089995  0  0.973075  0  0  0.099613  0  1.037822  0  0  0.103066  0  1.035417  0  0  0.095496  0.096777  0  1.040247  0
H  H20  1  0.99310531  0.09272013  0.63095972  1  0  0.13068  0  0.951829  0  0  0.148057  0  1.013405  0  0  0.150807  0  1.01284  0  0  0.093775  0.145981  0  1.013901  0
H  H21  1  0.90054878  0.90729495  0.86922516  1  0  0.130641  0  0.951542  0  0  0.148397  0  1.012653  0  0  0.151099  0  1.012109  0  0  0.093907  0.146164  0  1.013313  0
H  H22  1  0.00688967  0.90727823  0.36904090  1  0  0.130648  0  0.95184  0  0  0.14802  0  1.013426  0  0  0.150771  0  1.01286  0  0  0.09375  0.145945  0  1.01392  0
H  H23  1  0.09946023  0.09270899  0.13077701  1  0  0.130661  0  0.951522  0  0  0.1484  0  1.012653  0  0  0.1511  0  1.012112  0  0  0.093919  0.146168  0  1.013313  0
H  H24  1  0.15666444  0.15299875  0.76362786  1  0  0.129013  0  0.958459  0  0  0.147815  0  1.024437  0  0  0.151047  0  1.023977  0  0  0.086196  0.145419  0  1.024603  0
H  H25  1  0.00362577  0.84695029  0.73655005  1  0  0.128721  0  0.958296  0  0  0.147303  0  1.024655  0  0  0.150493  0  1.02421  0  0  0.086068  0.14469  0  1.02509  0
H  H26  1  0.84333222  0.84700073  0.23637307  1  0  0.128996  0  0.958436  0  0  0.147807  0  1.02441  0  0  0.151039  0  1.023951  0  0  0.086188  0.145414  0  1.024573  0
H  H27  1  0.99637762  0.15305591  0.26344892  1  0  0.128709  0  0.958218  0  0  0.147279  0  1.024601  0  0  0.150467  0  1.024157  0  0  0.08607  0.144666  0  1.025037  0
H  H28  1  0.11176020  0.28555056  0.71672029  1  0  0.112463  0  0.976696  0  0  0.132493  0  1.04199  0  0  0.133585  0  1.044004  0  0  0.090406  0.132032  0  1.040114  0
H  H29  1  0.82620512  0.71444907  0.78343937  1  0  0.113117  0  0.975975  0  0  0.133015  0  1.041255  0  0  0.134028  0  1.043411  0  0  0.090659  0.132385  0  1.039691  0
H  H30  1  0.88823647  0.71444894  0.28327778  1  0  0.112442  0  0.976699  0  0  0.132469  0  1.042  0  0  0.133558  0  1.044018  0  0  0.090419  0.132007  0  1.040124  0
H  H31  1  0.17380725  0.28555710  0.21656342  1  0  0.113103  0  0.975911  0  0  0.132985  0  1.041223  0  0  0.134  0  1.043378  0  0  0.090653  0.132353  0  1.039658  0
C  C32  1  0.98078775  0.27818383  0.95925576  1  0  0.147746  0  3.747854  0  0  0.149555  0  3.982952  0  0  0.154043  0  3.999618  0  0  0.110003  0.14657  0  3.971823  0
C  C33  1  0.70261989  0.72201191  0.54082974  1  0  0.148414  0  3.747303  0  0  0.150397  0  3.982128  0  0  0.154714  0  3.998802  0  0  0.110403  0.14681  0  3.971626  0
C  C34  1  0.01921173  0.72181454  0.04074390  1  0  0.147853  0  3.74775  0  0  0.149649  0  3.982921  0  0  0.154134  0  3.999585  0  0  0.109987  0.146638  0  3.97184  0
C  C35  1  0.29738124  0.27798753  0.45917595  1  0  0.148437  0  3.747481  0  0  0.15034  0  3.982375  0  0  0.154661  0  3.999052  0  0  0.110415  0.146755  0  3.971868  0
C  C36  1  0.93327796  0.16451880  0.82828013  1  0  0.234378  0  3.636704  0  0  0.225905  0  3.893337  0  0  0.242145  0  3.900392  0  0  0.134513  0.214601  0  3.889398  0
C  C37  1  0.76876335  0.83555535  0.67187031  1  0  0.233977  0  3.635335  0  0  0.225453  0  3.891733  0  0  0.24164  0  3.898873  0  0  0.13417  0.213979  0  3.887662  0
C  C38  1  0.06671645  0.83547843  0.17172208  1  0  0.23445  0  3.636439  0  0  0.225876  0  3.893241  0  0  0.242122  0  3.900275  0  0  0.134569  0.214574  0  3.889308  0
C  C39  1  0.23123497  0.16444521  0.32813473  1  0  0.233873  0  3.635706  0  0  0.225421  0  3.892076  0  0  0.241604  0  3.899233  0  0  0.13414  0.213947  0  3.888002  0
C  C40  1  0.13394640  0.40791949  0.99428548  1  0  -0.124988  0  3.701052  0  0  -0.143247  0  3.944277  0  0  -0.147729  0  3.963921  0  0  -0.080889  -0.141674  0  3.932557  0
C  C41  1  0.72600747  0.59223184  0.50577663  1  0  -0.124119  0  3.697639  0  0  -0.142778  0  3.94034  0  0  -0.147068  0  3.960168  0  0  -0.081078  -0.14138  0  3.93104  0
C  C42  1  0.86604970  0.59208112  0.00571385  1  0  -0.125196  0  3.70089  0  0  -0.143473  0  3.944181  0  0  -0.147957  0  3.963828  0  0  -0.080976  -0.141892  0  3.932468  0
C  C43  1  0.27399316  0.40776434  0.49421765  1  0  -0.124084  0  3.69748  0  0  -0.142722  0  3.940197  0  0  -0.147017  0  3.960027  0  0  -0.081097  -0.141326  0  3.930898  0
C  C44  1  0.04734371  0.48500497  0.20783942  1  0  -0.123187  0  3.728886  0  0  -0.134323  0  3.97853  0  0  -0.137965  0  3.995259  0  0  -0.091369  -0.133108  0  3.967923  0
C  C45  1  0.56249431  0.51537859  0.29211970  1  0  -0.123842  0  3.730444  0  0  -0.135081  0  3.98022  0  0  -0.138953  0  3.997228  0  0  -0.091416  -0.133778  0  3.969822  0
C  C46  1  0.95265406  0.51499673  0.79216307  1  0  -0.123074  0  3.728971  0  0  -0.134214  0  3.978636  0  0  -0.137859  0  3.995365  0  0  -0.091344  -0.132996  0  3.968027  0
C  C47  1  0.43750405  0.48461755  0.70787934  1  0  -0.123819  0  3.730575  0  0  -0.135052  0  3.980351  0  0  -0.138924  0  3.997361  0  0  -0.091437  -0.13375  0  3.969949  0
C  C48  1  0.90014515  0.35200270  0.16738165  1  0  0.126957  0  3.707484  0  0  0.097182  0  3.958588  0  0  0.103178  0  3.972896  0  0  0.040887  0.093524  0  3.949111  0
C  C49  1  0.54832235  0.64842042  0.33258977  1  0  0.127683  0  3.706233  0  0  0.097889  0  3.956877  0  0  0.103849  0  3.971478  0  0  0.041196  0.094281  0  3.947897  0
C  C50  1  0.09985769  0.64799566  0.83261896  1  0  0.126836  0  3.707418  0  0  0.097045  0  3.958512  0  0  0.103038  0  3.97281  0  0  0.040858  0.093388  0  3.94903  0
C  C51  1  0.45167542  0.35157903  0.66741401  1  0  0.127647  0  3.706551  0  0  0.097875  0  3.957083  0  0  0.103835  0  3.97169  0  0  0.04119  0.094286  0  3.948111  0
C  C52  1  0.16537810  0.51352733  0.11849785  1  0  -0.015971  0  3.730282  0  0  -0.034386  0  3.980318  0  0  -0.031265  0  3.996271  0  0  -0.075674  -0.035628  0  3.969698  0
C  C53  1  0.65185719  0.48675085  0.38149994  1  0  -0.014841  0  3.73002  0  0  -0.033335  0  3.979928  0  0  -0.030244  0  3.996169  0  0  -0.075358  -0.035159  0  3.970152  0
C  C54  1  0.83462478  0.48647335  0.88149196  1  0  -0.015879  0  3.730246  0  0  -0.034269  0  3.980277  0  0  -0.031138  0  3.996236  0  0  -0.07562  -0.035511  0  3.969649  0
C  C55  1  0.34814508  0.51325086  0.61850160  1  0  -0.01481  0  3.729904  0  0  -0.033287  0  3.979782  0  0  -0.030202  0  3.996028  0  0  -0.075299  -0.035113  0  3.970008  0
C  C56  1  0.05442539  0.17380777  0.72900183  1  0  -0.375818  0  3.710606  0  0  -0.45317  0  3.940987  0  0  -0.46013  0  3.947479  0  0  -0.247041  -0.447559  0  3.935766  0
C  C57  1  0.88063104  0.82619934  0.77118421  1  0  -0.375206  0  3.709018  0  0  -0.452767  0  3.939802  0  0  -0.459721  0  3.946509  0  0  -0.247288  -0.447116  0  3.935076  0
C  C58  1  0.94557240  0.82619171  0.27099814  1  0  -0.37571  0  3.710662  0  0  -0.453008  0  3.941025  0  0  -0.45997  0  3.947514  0  0  -0.246988  -0.447396  0  3.9358  0
C  C59  1  0.11937741  0.17380347  0.22881955  1  0  -0.375225  0  3.709099  0  0  -0.452771  0  3.939919  0  0  -0.459722  0  3.946635  0  0  -0.247317  -0.447118  0  3.935192  0
I  I60  1  0.42081837  0.16490198  0.95589295  1  0  -0.431814  0  1.412739  0  0  -0.378032  0  1.820489  0  0  -0.40129  0  1.788868  0  0  -0.208222  -0.359418  0  1.841397  0
I  I61  1  0.25592987  0.83497282  0.54406212  1  0  -0.431939  0  1.41192  0  0  -0.377822  0  1.818651  0  0  -0.401281  0  1.787337  0  0  -0.208418  -0.359609  0  1.840509  0
I  I62  1  0.57919347  0.83509862  0.04410733  1  0  -0.43185  0  1.412731  0  0  -0.378091  0  1.820527  0  0  -0.401328  0  1.78888  0  0  -0.208254  -0.359469  0  1.841423  0
I  I63  1  0.74406066  0.16501664  0.45593316  1  0  -0.431909  0  1.411851  0  0  -0.377778  0  1.818568  0  0  -0.401244  0  1.787256  0  0  -0.2084  -0.359559  0  1.840415  0
N  N64  1  0.78086986  0.05561775  0.80867256  1  0  -0.177222  0  3.327144  0  0  -0.126911  0  3.628045  0  0  -0.13308  0  3.629716  0  0  -0.243095  -0.124556  0  3.628605  0
N  N65  1  0.72528241  0.94446364  0.69146838  1  0  -0.178505  0  3.326402  0  0  -0.127519  0  3.627164  0  0  -0.133832  0  3.628854  0  0  -0.243761  -0.125579  0  3.627736  0
N  N66  1  0.21913072  0.94438283  0.19132962  1  0  -0.177376  0  3.326929  0  0  -0.127008  0  3.627886  0  0  -0.133161  0  3.62954  0  0  -0.243195  -0.124648  0  3.628437  0
N  N67  1  0.27471202  0.05553136  0.30853226  1  0  -0.178334  0  3.326274  0  0  -0.127415  0  3.627051  0  0  -0.133749  0  3.628772  0  0  -0.24369  -0.125474  0  3.627621  0
N  N68  1  0.86587630  0.25170330  0.04618799  1  0  -0.292119  0  3.326093  0  0  -0.22708  0  3.605395  0  0  -0.235559  0  3.613329  0  0  -0.35146  -0.221432  0  3.599578  0
N  N69  1  0.61432361  0.74860547  0.45385364  1  0  -0.292692  0  3.32745  0  0  -0.227559  0  3.606563  0  0  -0.236137  0  3.614607  0  0  -0.352168  -0.221383  0  3.600758  0
N  N70  1  0.13412877  0.74829950  0.95381673  1  0  -0.29212  0  3.325976  0  0  -0.227048  0  3.60529  0  0  -0.23552  0  3.613212  0  0  -0.351447  -0.221393  0  3.599477  0
N  N71  1  0.38567080  0.25139399  0.54614919  1  0  -0.292696  0  3.327466  0  0  -0.227541  0  3.606584  0  0  -0.236131  0  3.614648  0  0  -0.352185  -0.22136  0  3.600771  0
