# generated using pymatgen
data_CuH8C14N2(OF)4
_symmetry_space_group_name_H-M   'P 1'
_cell_length_a   10.47435342
_cell_length_b   10.47436877
_cell_length_c   14.85302069
_cell_angle_alpha   105.45064130
_cell_angle_beta   105.44975950
_cell_angle_gamma   104.12889223
_symmetry_Int_Tables_number   1
_chemical_formula_structural   CuH8C14N2(OF)4
_chemical_formula_sum   'Cu4 H32 C56 N8 O16 F16'
_cell_volume   1424.18790076
_cell_formula_units_Z   4
loop_
 _symmetry_equiv_pos_site_id
 _symmetry_equiv_pos_as_xyz
  1  'x, y, z'
loop_
 _atom_site_type_symbol
 _atom_site_label
 _atom_site_symmetry_multiplicity
 _atom_site_fract_x
 _atom_site_fract_y
 _atom_site_fract_z
 _atom_site_occupancy
 _atom_site_hle17_ddec_charge
 _atom_site_hle17_ddec_spin_density
 _atom_site_hle17_ddec_sum_bond_order
 _atom_site_hle17_magmom
 _atom_site_hse06_10hf_ddec_charge
 _atom_site_hse06_10hf_ddec_spin_density
 _atom_site_hse06_10hf_ddec_sum_bond_order
 _atom_site_hse06_10hf_magmom
 _atom_site_hse06_ddec_charge
 _atom_site_hse06_ddec_spin_density
 _atom_site_hse06_ddec_sum_bond_order
 _atom_site_hse06_magmom
 _atom_site_pbe_cm5_charge
 _atom_site_pbe_ddec_charge
 _atom_site_pbe_ddec_spin_density
 _atom_site_pbe_ddec_sum_bond_order
 _atom_site_pbe_magmom
Cu  Cu0  1  0.48215302  0.17739946  0.87385779  1  0.881168  0.740704  1.843662  0.518  0.857724  0.812341  2.241253  0.625  0.940791  0.887252  2.174989  0.709  0.769808  0.808316  0.754289  2.285996  0.566
Cu  Cu1  1  0.82258815  0.51783745  0.12613861  1  0.881179  -0.740675  1.843544  -0.518  0.85776  -0.812344  2.24117  -0.625  0.940863  -0.887258  2.174814  -0.709  0.76979  0.808306  -0.754288  2.285983  -0.566
Cu  Cu2  1  0.94657334  0.14175367  0.37388469  1  0.88155  -0.739743  1.84181  -0.518  0.858561  -0.811606  2.239567  -0.625  0.941888  -0.88652  2.172927  -0.709  0.769246  0.808864  -0.753591  2.284696  -0.566
Cu  Cu3  1  0.85825023  0.05343640  0.62611639  1  0.881599  0.739763  1.841751  0.518  0.85858  0.811628  2.239576  0.625  0.941909  0.88653  2.172888  0.709  0.76926  0.808813  0.753597  2.284726  0.566
H  H4  1  0.75511303  0.11450123  0.90539867  1  0.09775  0.001444  0.94712  0.002  0.104632  0.001138  1.012479  0.002  0.106581  0.000825  1.010955  0.001  0.12115  0.10316  0.00146  1.013559  0.002
H  H5  1  0.88550642  0.24488816  0.09460306  1  0.097762  -0.001443  0.947129  -0.002  0.104652  -0.001138  1.012462  -0.002  0.1066  -0.000824  1.010939  -0.001  0.121143  0.103183  -0.00146  1.013535  -0.002
H  H6  1  0.04115307  0.90045457  0.40560564  1  0.098137  -0.001443  0.947552  -0.002  0.104653  -0.001137  1.013054  -0.002  0.106572  -0.000823  1.011619  -0.001  0.121531  0.10321  -0.001459  1.014047  -0.002
H  H7  1  0.09954941  0.95885126  0.59439665  1  0.098052  0.001441  0.947629  0.002  0.10458  0.001137  1.013126  0.002  0.106498  0.000823  1.011696  0.001  0.121485  0.103138  0.001459  1.014119  0.002
H  H8  1  0.83078598  0.91602661  0.93997587  1  0.0971  0.000519  0.950815  0.001  0.110105  0.000484  1.006454  0.001  0.111925  0.000351  1.007915  0.0  0.106835  0.108313  0.000628  1.006637  0.001
H  H9  1  0.08398124  0.16921923  0.06002719  1  0.097031  -0.00052  0.950863  -0.001  0.110051  -0.000484  1.006483  -0.001  0.11187  -0.000351  1.007943  0.0  0.10682  0.108238  -0.000628  1.006692  -0.001
H  H10  1  0.27426281  0.85947928  0.44034365  1  0.096254  -0.000519  0.951983  -0.001  0.108691  -0.000484  1.008421  -0.001  0.110487  -0.000351  1.009943  0.0  0.106564  0.106954  -0.000627  1.008488  -0.001
H  H11  1  0.14051982  0.72573659  0.55965330  1  0.096294  0.000518  0.951815  0.001  0.108707  0.000483  1.008324  0.001  0.110503  0.000351  1.009846  0.0  0.106574  0.10697  0.000627  1.00839  0.001
H  H12  1  0.65005078  0.70844075  0.94086172  1  0.117715  0.000245  0.938163  0.0  0.126226  3e-06  0.997215  0.0  0.129412  -1.5e-05  0.994144  0.0  0.112276  0.123923  3e-06  0.99926  0.0
H  H13  1  0.29155861  0.34995062  0.05913754  1  0.117729  -0.000245  0.938167  0.0  0.126281  -3e-06  0.997162  0.0  0.129467  1.5e-05  0.994089  0.0  0.11228  0.123978  -3e-06  0.999208  0.0
H  H14  1  0.48265104  0.04103298  0.44111108  1  0.118624  -0.000244  0.938428  0.0  0.127011  -3e-06  0.997445  0.0  0.130052  1.5e-05  0.994575  0.0  0.112646  0.124781  -4e-06  0.999419  0.0
H  H15  1  0.95896280  0.51735047  0.55888551  1  0.118739  0.000247  0.938208  0.0  0.127008  3e-06  0.997357  0.0  0.130051  -1.5e-05  0.994483  0.0  0.112642  0.124779  4e-06  0.99933  0.0
H  H16  1  0.40383933  0.70612816  0.90725463  1  0.1173  0.000751  0.932132  0.001  0.128169  0.000607  0.987765  0.001  0.131425  0.000429  0.986117  0.001  0.114276  0.125556  0.000756  0.989433  0.001
H  H17  1  0.29387329  0.59615992  0.09274189  1  0.117299  -0.000746  0.93205  -0.001  0.128186  -0.000607  0.987668  -0.001  0.131455  -0.000429  0.986004  -0.001  0.114295  0.125573  -0.000756  0.989337  -0.001
H  H18  1  0.45133103  0.25355560  0.40740370  1  0.116614  -0.00075  0.93172  -0.001  0.127537  -0.000607  0.987526  -0.001  0.130841  -0.000428  0.985806  -0.001  0.113993  0.124933  -0.000755  0.989184  -0.001
H  H19  1  0.74644861  0.54867826  0.59260062  1  0.11665  0.000743  0.931773  0.001  0.127637  0.000606  0.987483  0.001  0.130941  0.000428  0.985762  0.001  0.114015  0.125028  0.000755  0.989139  0.001
H  H20  1  0.19672587  0.72499651  0.88018200  1  0.116754  0.000808  0.945648  0.001  0.12233  0.000664  1.010748  0.001  0.125875  0.000459  1.008582  0.001  0.109138  0.119776  0.000907  1.012428  0.001
H  H21  1  0.27500090  0.80327056  0.11981848  1  0.116769  -0.000808  0.945666  -0.001  0.122357  -0.000664  1.010748  -0.001  0.1259  -0.000459  1.008583  -0.001  0.109138  0.119803  -0.000907  1.012427  -0.001
H  H22  1  0.40538545  0.43350588  0.38025240  1  0.117588  -0.000804  0.944744  -0.001  0.12275  -0.000662  1.010684  -0.001  0.126322  -0.000458  1.008481  -0.001  0.109201  0.120154  -0.000906  1.012418  -0.001
H  H23  1  0.56650244  0.59462807  0.61976075  1  0.117529  0.000804  0.944767  0.001  0.122691  0.000662  1.010725  0.001  0.126272  0.000458  1.008509  0.001  0.1092  0.120098  0.000906  1.012456  0.001
H  H24  1  0.97374609  0.77596647  0.85735500  1  0.099355  0.000318  0.969105  0.0  0.104431  3.4e-05  1.037378  0.0  0.107801  3e-06  1.033666  0.0  0.099971  0.101771  5.1e-05  1.040464  0.0
H  H25  1  0.22403208  0.02624844  0.14264480  1  0.099335  -0.000316  0.969146  0.0  0.104376  -3.4e-05  1.037452  0.0  0.107746  -3e-06  1.033742  0.0  0.099945  0.101723  -5.1e-05  1.04054  0.0
H  H26  1  0.33164018  0.63368205  0.35736774  1  0.099139  -0.000317  0.967858  0.0  0.103942  -3.4e-05  1.036801  0.0  0.107311  -3e-06  1.033054  0.0  0.099756  0.101307  -5.1e-05  1.039863  0.0
H  H27  1  0.36632335  0.66836717  0.64263980  1  0.099334  0.000313  0.96781  0.0  0.10398  3.4e-05  1.036874  0.0  0.10735  3e-06  1.033125  0.0  0.099801  0.101339  5.1e-05  1.039948  0.0
H  H28  1  0.96677395  0.00961827  0.83906492  1  0.111872  0.000415  0.95597  0.001  0.117765  0.000344  1.025046  0.001  0.121124  0.000217  1.023256  0.0  0.10911  0.114879  0.000553  1.027339  0.001
H  H29  1  0.99038154  0.03321552  0.16093412  1  0.111876  -0.000414  0.956037  -0.001  0.117774  -0.000345  1.025106  -0.001  0.121111  -0.000216  1.023337  0.0  0.109135  0.114888  -0.000553  1.027399  -0.001
H  H30  1  0.07981264  0.62251016  0.33922541  1  0.111974  -0.000418  0.956716  -0.001  0.117601  -0.000348  1.025792  -0.001  0.120946  -0.000219  1.024023  0.0  0.109125  0.114788  -0.000556  1.028018  -0.001
H  H31  1  0.37748901  0.92018958  0.66077320  1  0.11194  0.000419  0.956715  0.001  0.117547  0.000347  1.025806  0.001  0.120892  0.000219  1.024035  0.0  0.10913  0.114736  0.000556  1.028029  0.001
H  H32  1  0.18415382  0.17567706  0.84237124  1  0.111312  0.001641  0.921776  0.003  0.118278  0.001272  0.981889  0.002  0.12043  0.000911  0.98005  0.002  0.129388  0.116444  0.001603  0.983458  0.002
H  H33  1  0.82432761  0.81584386  0.15763267  1  0.111298  -0.00163  0.921803  -0.003  0.118285  -0.001272  0.981903  -0.002  0.120435  -0.000912  0.980063  -0.002  0.129359  0.116452  -0.001602  0.983472  -0.002
H  H34  1  0.91699724  0.40850992  0.34258033  1  0.110044  -0.001626  0.923492  -0.003  0.117153  -0.001269  0.983536  -0.002  0.119289  -0.00091  0.98173  -0.002  0.12899  0.115328  -0.001599  0.985083  -0.002
H  H35  1  0.59148412  0.08300728  0.65741412  1  0.110042  0.001629  0.923399  0.003  0.117178  0.001269  0.983447  0.002  0.119314  0.000909  0.981641  0.002  0.128987  0.115346  0.001599  0.984993  0.002
C  C36  1  0.68230449  0.02290355  0.90866677  1  0.140904  -0.006451  3.671679  -0.007  0.113683  -0.001013  3.926344  -0.002  0.123452  -0.00183  3.944425  -0.003  0.055688  0.107134  -0.000329  3.914861  -0.002
C  C37  1  0.97710194  0.31768635  0.09133183  1  0.140887  0.006456  3.671557  0.007  0.113665  0.001015  3.926247  0.002  0.123431  0.00183  3.944332  0.003  0.05571  0.107117  0.000329  3.914752  0.002
C  C38  1  0.13598993  0.97653695  0.40886918  1  0.139906  0.006435  3.671555  0.007  0.113105  0.001017  3.925671  0.002  0.122887  0.001826  3.943666  0.003  0.05519  0.106539  0.000327  3.914245  0.002
C  C39  1  0.02346994  0.86401359  0.59113475  1  0.139904  -0.006445  3.671327  -0.007  0.113135  -0.001011  3.925397  -0.002  0.122916  -0.001829  3.943393  -0.003  0.055203  0.106566  -0.000327  3.91397  -0.002
C  C40  1  0.72205239  0.91159611  0.92603974  1  -0.097749  0.008502  3.689754  0.009  -0.109793  0.003715  3.935547  0.004  -0.117395  0.003342  3.95649  0.004  -0.074587  -0.104979  0.00395  3.92228  0.005
C  C41  1  0.08840947  0.27794659  0.07396027  1  -0.097563  -0.008498  3.68962  -0.009  -0.10964  -0.003714  3.935432  -0.004  -0.117242  -0.003339  3.956376  -0.004  -0.074581  -0.10481  -0.003949  3.922168  -0.005
C  C42  1  0.26471249  0.95421989  0.42632150  1  -0.094794  -0.008475  3.689359  -0.009  -0.106407  -0.003712  3.934769  -0.004  -0.113965  -0.003334  3.955663  -0.004  -0.073702  -0.101637  -0.003944  3.921527  -0.005
C  C43  1  0.04578047  0.73528654  0.57367887  1  -0.094765  0.008489  3.689052  0.009  -0.106439  0.003706  3.934637  0.004  -0.113999  0.003334  3.955535  0.004  -0.073711  -0.10167  0.003943  3.921396  0.005
C  C44  1  0.62197135  0.79691995  0.92706853  1  0.032034  -0.007435  3.646348  -0.007  0.011395  -0.002614  3.897225  -0.002  0.017831  -0.002723  3.911376  -0.003  -0.052394  0.006885  -0.002459  3.887717  -0.002
C  C45  1  0.20308434  0.37803016  0.07293230  1  0.031997  0.007432  3.646339  0.007  0.011336  0.002612  3.897231  0.002  0.017771  0.00272  3.911387  0.003  -0.052363  0.00683  0.002458  3.887713  0.002
C  C46  1  0.38035736  0.05527722  0.42727902  1  0.029405  0.007405  3.64868  0.007  0.008859  0.002606  3.899786  0.002  0.015382  0.002714  3.913954  0.003  -0.053079  0.004286  0.002452  3.89029  0.002
C  C47  1  0.94472283  0.61964813  0.57272177  1  0.029508  -0.007426  3.648433  -0.007  0.008878  -0.002605  3.89983  -0.002  0.015397  -0.002714  3.914005  -0.003  -0.053081  0.004305  -0.002452  3.890332  -0.002
C  C48  1  0.48411304  0.79583270  0.90870050  1  -0.110434  0.005176  3.657602  0.005  -0.133854  0.002082  3.908123  0.002  -0.140112  0.001973  3.926013  0.002  -0.067907  -0.129841  0.002214  3.896459  0.002
C  C49  1  0.20417221  0.51588669  0.09129950  1  -0.110542  -0.005188  3.657562  -0.005  -0.133978  -0.002082  3.908082  -0.002  -0.140246  -0.001971  3.925965  -0.002  -0.068027  -0.129964  -0.002213  3.896419  -0.002
C  C50  1  0.36307185  0.17475301  0.40886489  1  -0.108152  -0.005158  3.655215  -0.005  -0.131823  -0.002074  3.906721  -0.002  -0.138094  -0.00197  3.924541  -0.002  -0.067608  -0.127838  -0.002209  3.895102  -0.002
C  C51  1  0.82524721  0.63693110  0.59113753  1  -0.108316  0.005195  3.655372  0.005  -0.131948  0.002078  3.906808  0.002  -0.13822  0.001968  3.924628  0.002  -0.067611  -0.127955  0.00221  3.895189  0.002
C  C52  1  0.45068923  0.91089055  0.89264889  1  0.172813  -0.00238  3.765829  -0.003  0.170158  0.000617  4.012662  0.0  0.178329  -0.000324  4.033503  -0.001  0.118356  0.16482  0.001384  3.999112  0.001
C  C53  1  0.08911283  0.54930651  0.10734885  1  0.172956  0.002379  3.765718  0.003  0.170337  -0.000616  4.012541  0.0  0.178507  0.00032  4.033385  0.001  0.118394  0.164998  -0.001386  3.99899  -0.001
C  C54  1  0.23194381  0.19209269  0.39276204  1  0.172928  0.002357  3.762608  0.003  0.16911  -0.000623  4.0114  0.0  0.177272  0.000319  4.032255  0.001  0.118112  0.163774  -0.001389  3.997847  -0.001
C  C55  1  0.80791305  0.76806383  0.60724580  1  0.173063  -0.002378  3.76258  -0.003  0.169114  0.000621  4.011353  0.0  0.177296  -0.000318  4.032231  -0.001  0.118043  0.163774  0.001389  3.997801  0.001
C  C56  1  0.31008637  0.92437915  0.87534900  1  0.174809  -0.004167  3.751646  -0.005  0.170412  0.000377  3.995454  0.0  0.178281  -0.000805  4.016714  -0.002  0.119859  0.164958  0.00129  3.98205  0.001
C  C57  1  0.07562309  0.68991248  0.12465129  1  0.174687  0.004175  3.751873  0.005  0.170238  -0.000377  3.995778  0.0  0.178104  0.000806  4.017049  0.002  0.119783  0.164781  -0.001291  3.982367  -0.001
C  C58  1  0.20113280  0.31537090  0.37542287  1  0.176013  0.004179  3.753212  0.005  0.172624  -0.000373  3.996978  0.0  0.1805  0.000807  4.01826  0.002  0.12026  0.167156  -0.001286  3.98355  -0.001
C  C59  1  0.68462925  0.79887072  0.62458397  1  0.175522  -0.004164  3.753601  -0.005  0.172541  0.00037  3.996925  0.0  0.180336  -0.000808  4.018318  -0.002  0.120297  0.167071  0.001287  3.983502  0.001
C  C60  1  0.19189444  0.82443203  0.87269188  1  -0.122716  0.008177  3.674237  0.008  -0.143595  0.003125  3.92554  0.003  -0.150584  0.002917  3.945968  0.003  -0.074485  -0.139099  0.003425  3.912  0.003
C  C61  1  0.17556966  0.80810877  0.12730720  1  -0.12284  -0.008183  3.674355  -0.008  -0.143649  -0.003126  3.925568  -0.003  -0.150635  -0.002917  3.945999  -0.003  -0.07448  -0.139151  -0.003426  3.912031  -0.003
C  C62  1  0.29847908  0.43088156  0.37276957  1  -0.124077  -0.008203  3.675221  -0.008  -0.145825  -0.003134  3.92772  -0.003  -0.152868  -0.002923  3.948141  -0.003  -0.07491  -0.141284  -0.003436  3.914211  -0.003
C  C63  1  0.56911685  0.70153030  0.62724084  1  -0.123778  0.008188  3.675338  0.008  -0.145627  0.003135  3.927723  0.003  -0.152651  0.002924  3.948167  0.003  -0.074869  -0.141075  0.003435  3.91418  0.003
C  C64  1  0.06654071  0.85351141  0.85990625  1  -0.003056  -0.009432  3.715352  -0.009  -0.024154  -0.003022  3.970789  -0.003  -0.019825  -0.003184  3.989369  -0.003  -0.068321  -0.026815  -0.002934  3.958419  -0.003
C  C65  1  0.14648787  0.93345963  0.14009603  1  -0.002962  0.00943  3.715442  0.009  -0.024054  0.003021  3.970909  0.003  -0.019727  0.003182  3.989481  0.003  -0.068293  -0.026727  0.002933  3.958548  0.003
C  C66  1  0.25664186  0.54345863  0.35994451  1  -0.001703  0.009435  3.714813  0.009  -0.02279  0.003024  3.970571  0.003  -0.018447  0.003182  3.989162  0.003  -0.068176  -0.025459  0.002926  3.958211  0.003
C  C67  1  0.45654186  0.74336454  0.64006117  1  -0.001775  -0.009408  3.71485  -0.009  -0.022888  -0.003022  3.970741  -0.003  -0.018541  -0.003183  3.989322  -0.003  -0.068241  -0.02556  -0.002926  3.958395  -0.003
C  C68  1  0.06160586  0.98104729  0.84982400  1  -0.12059  0.011344  3.71001  0.012  -0.136172  0.004675  3.965401  0.006  -0.144225  0.004145  3.986754  0.005  -0.081218  -0.130969  0.005106  3.9518  0.006
C  C69  1  0.01895374  0.93839355  0.15017579  1  -0.120562  -0.011343  3.710013  -0.012  -0.136164  -0.004672  3.965417  -0.006  -0.144195  -0.004145  3.986776  -0.005  -0.081231  -0.13096  -0.005105  3.95182  -0.006
C  C70  1  0.11908722  0.53839800  0.34995238  1  -0.120908  -0.011342  3.711547  -0.012  -0.135826  -0.004673  3.966647  -0.006  -0.14385  -0.004141  3.987946  -0.005  -0.080972  -0.130716  -0.005101  3.95307  -0.006
C  C71  1  0.46160232  0.88091707  0.65005156  1  -0.120884  0.011315  3.711576  0.012  -0.135734  0.004669  3.966624  0.006  -0.143757  0.004141  3.987925  0.005  -0.080972  -0.130631  0.0051  3.953053  0.006
C  C72  1  0.18249538  0.07544150  0.85140473  1  0.160005  -0.008896  3.637624  -0.01  0.132527  -0.001533  3.889704  -0.003  0.142383  -0.002536  3.907647  -0.004  0.064069  0.125998  -0.000652  3.878163  -0.002
C  C73  1  0.92456059  0.81750889  0.14859873  1  0.160074  0.008864  3.637666  0.01  0.132607  0.001529  3.889739  0.003  0.142446  0.002538  3.907714  0.004  0.064114  0.126078  0.000652  3.878191  0.002
C  C74  1  0.02621137  0.41914046  0.35154335  1  0.162144  0.008872  3.636953  0.01  0.134526  0.00153  3.889785  0.003  0.144415  0.002534  3.907653  0.004  0.064758  0.127955  0.00065  3.878322  0.002
C  C75  1  0.58085629  0.97378945  0.64845643  1  0.162007  -0.008853  3.63694  -0.01  0.134362  -0.001528  3.889833  -0.003  0.144249  -0.002533  3.907699  -0.004  0.064683  0.127807  -0.00065  3.878345  -0.002
C  C76  1  0.36003991  0.26537289  0.72671726  1  0.544758  -0.003881  3.972573  -0.008  0.494856  0.000626  4.292606  -0.003  0.529244  4e-06  4.287263  -0.002  0.186947  0.471364  0.001322  4.295946  -0.003
C  C77  1  0.73463350  0.63995195  0.27328407  1  0.545083  0.003882  3.972359  0.008  0.495054  -0.000624  4.292521  0.003  0.529425  -1e-06  4.287197  0.002  0.186974  0.471561  -0.001322  4.295857  0.003
C  C78  1  0.71139112  0.11667682  0.22676486  1  0.545035  0.003877  3.975828  0.008  0.495962  -0.000626  4.293276  0.003  0.530264  -7e-06  4.288073  0.002  0.187181  0.472508  -0.001324  4.296535  0.003
C  C79  1  0.88331333  0.28860747  0.77323064  1  0.544859  -0.003874  3.976111  -0.008  0.495775  0.000629  4.293491  -0.003  0.530072  9e-06  4.28831  -0.002  0.187109  0.472317  0.001324  4.296758  -0.003
C  C80  1  0.33474645  0.38920326  0.69361815  1  0.326213  0.009088  3.615011  0.01  0.279759  0.00566  3.915554  0.006  0.293654  0.003807  3.903443  0.004  0.188652  0.269567  0.00722  3.924916  0.008
C  C81  1  0.61079995  0.66524849  0.30637857  1  0.325897  -0.009083  3.615484  -0.01  0.279709  -0.00566  3.915573  -0.006  0.293607  -0.003808  3.903465  -0.004  0.188666  0.269565  -0.00722  3.924951  -0.008
C  C82  1  0.55451576  0.10893895  0.19373854  1  0.323237  -0.009081  3.618569  -0.01  0.281597  -0.005655  3.912744  -0.006  0.295458  -0.003801  3.900602  -0.004  0.189121  0.271413  -0.00721  3.922317  -0.008
C  C83  1  0.89105732  0.44548278  0.80626092  1  0.323162  0.009082  3.618761  0.01  0.281745  0.005657  3.912598  0.006  0.295594  0.0038  3.900463  0.004  0.18914  0.271564  0.00721  3.922166  0.008
C  C84  1  0.19242881  0.40877932  0.69083293  1  0.317119  0.005801  3.621569  0.006  0.275443  0.003783  3.918884  0.004  0.288666  0.002499  3.906682  0.003  0.189291  0.265643  0.00506  3.928683  0.005
C  C85  1  0.59122061  0.80756522  0.30916320  1  0.316433  -0.005805  3.62281  -0.006  0.275339  -0.003782  3.919185  -0.004  0.288561  -0.002487  3.90698  -0.003  0.189226  0.26535  -0.00506  3.929292  -0.005
C  C86  1  0.53210820  0.24845536  0.19092869  1  0.316419  -0.005802  3.623058  -0.006  0.274897  -0.003776  3.919085  -0.004  0.288365  -0.002485  3.906413  -0.003  0.188658  0.264762  -0.005055  3.929453  -0.005
C  C87  1  0.75153528  0.46788862  0.80906959  1  0.316483  0.005799  3.622847  0.006  0.274851  0.003778  3.918895  0.004  0.288374  0.002498  3.906142  0.003  0.188611  0.264716  0.005054  3.929265  0.005
C  C88  1  0.06347836  0.27890988  0.61380003  1  0.572529  -0.000329  3.928493  -0.003  0.524286  0.004027  4.239519  0.002  0.560784  0.002828  4.231253  0.001  0.199849  0.499368  0.005162  4.24469  0.002
C  C89  1  0.72109287  0.93652132  0.38619904  1  0.572563  0.000334  3.928632  0.003  0.52432  -0.004024  4.239586  -0.002  0.560823  -0.002834  4.231315  -0.001  0.199899  0.499442  -0.005161  4.244775  -0.002
C  C90  1  0.58489924  0.30035912  0.11383300  1  0.573292  0.000319  3.929653  0.003  0.525643  -0.004035  4.239186  -0.002  0.562104  -0.002841  4.23085  -0.001  0.200593  0.5008  -0.005178  4.244447  -0.002
C  C91  1  0.69962699  0.41509361  0.88615695  1  0.573073  -0.000319  3.929907  -0.003  0.525532  0.004038  4.23928  0.002  0.561955  0.002834  4.230991  0.001  0.200487  0.500688  0.005177  4.244542  0.002
N  N92  1  0.30217710  0.04644033  0.86340278  1  -0.321974  0.096817  3.334453  0.119  -0.279626  0.066017  3.624254  0.087  -0.310381  0.05444  3.64506  0.075  -0.341969  -0.261621  0.07212  3.612614  0.091
N  N93  1  0.95356631  0.69782827  0.13659824  1  -0.321986  -0.096813  3.334676  -0.119  -0.279704  -0.066013  3.624572  -0.087  -0.310462  -0.054436  3.645365  -0.075  -0.34196  -0.261678  -0.07212  3.612919  -0.091
N  N94  1  0.06715006  0.31138258  0.36349207  1  -0.322937  -0.09721  3.334005  -0.119  -0.282048  -0.066224  3.625518  -0.087  -0.31284  -0.054604  3.6463  -0.075  -0.342292  -0.263968  -0.072343  3.613871  -0.091
N  N95  1  0.68861462  0.93285289  0.63650807  1  -0.322689  0.097182  3.334093  0.119  -0.281996  0.066219  3.625624  0.087  -0.312761  0.0546  3.64642  0.075  -0.342251  -0.263897  0.072341  3.613955  0.091
N  N96  1  0.55026890  0.02267524  0.89391397  1  -0.342209  0.077821  3.346298  0.095  -0.3021  0.053576  3.645558  0.07  -0.332179  0.045338  3.66578  0.062  -0.348028  -0.284345  0.057705  3.634195  0.072
N  N97  1  0.97733285  0.44972258  0.10608595  1  -0.342273  -0.077815  3.346135  -0.095  -0.302164  -0.053571  3.645372  -0.07  -0.332244  -0.045327  3.665585  -0.062  -0.347945  -0.284402  -0.057697  3.63401  -0.072
N  N98  1  0.12142450  0.09376348  0.39402841  1  -0.343155  -0.077687  3.345522  -0.095  -0.303069  -0.053486  3.645397  -0.07  -0.333183  -0.045252  3.665592  -0.062  -0.347979  -0.285254  -0.057602  3.634045  -0.072
N  N99  1  0.90623822  0.87857808  0.60597509  1  -0.343134  0.077698  3.345205  0.095  -0.303038  0.053479  3.645123  0.07  -0.333151  0.045252  3.665299  0.062  -0.347958  -0.285204  0.057602  3.63375  0.072
O  O100  1  0.39451074  0.30038472  0.82194980  1  -0.54693  0.091467  2.094337  0.118  -0.528143  0.05598  2.371076  0.079  -0.569738  0.04238  2.365042  0.063  -0.325285  -0.500079  0.064851  2.374717  0.088
O  O101  1  0.69961211  0.60547571  0.17804871  1  -0.546985  -0.091485  2.094097  -0.118  -0.528251  -0.05599  2.370939  -0.079  -0.569851  -0.042375  2.364909  -0.063  -0.325351  -0.500179  -0.064855  2.374589  -0.088
O  O102  1  0.77174819  0.17756025  0.32198266  1  -0.54817  -0.091786  2.09416  -0.119  -0.529602  -0.056117  2.370396  -0.079  -0.571274  -0.04246  2.364461  -0.063  -0.325791  -0.501486  -0.065009  2.37408  -0.088
O  O103  1  0.82243236  0.22825649  0.67801311  1  -0.548076  0.091786  2.094281  0.119  -0.529512  0.056114  2.370547  0.079  -0.571183  0.042468  2.364608  0.063  -0.325745  -0.501381  0.065011  2.374218  0.088
O  O104  1  0.34779448  0.15438137  0.66352247  1  -0.547821  0.001447  1.943985  0.003  -0.531263  0.000891  2.183122  0.002  -0.55381  -0.000182  2.176216  0.0  -0.313104  -0.515122  0.00213  2.187436  0.004
O  O105  1  0.84561923  0.65220143  0.33647531  1  -0.547825  -0.001444  1.944146  -0.003  -0.531273  -0.00089  2.183334  -0.002  -0.553804  0.00017  2.176424  0.0  -0.313038  -0.515133  -0.002129  2.187652  -0.004
O  O106  1  0.75904914  0.06548278  0.16355664  1  -0.548546  -0.001447  1.945678  -0.003  -0.531569  -0.000892  2.183761  -0.002  -0.554092  0.000171  2.176884  0.0  -0.312923  -0.515424  -0.00213  2.188035  -0.004
O  O107  1  0.93451441  0.24095110  0.83643795  1  -0.54847  0.001442  1.945615  0.003  -0.531505  0.00089  2.183707  0.002  -0.554032  -0.00018  2.176841  0.0  -0.312906  -0.515356  0.002131  2.187981  0.004
O  O108  1  0.04730479  0.17294506  0.64258247  1  -0.585025  0.062076  2.110425  0.08  -0.560152  0.041261  2.401117  0.057  -0.598313  0.0317  2.391384  0.046  -0.327956  -0.533945  0.048187  2.407198  0.064
O  O109  1  0.82705952  0.95268927  0.35741944  1  -0.584966  -0.062083  2.110481  -0.08  -0.560203  -0.041263  2.401206  -0.057  -0.598368  -0.031693  2.391496  -0.046  -0.327993  -0.534008  -0.048189  2.407283  -0.064
O  O110  1  0.71963473  0.34527902  0.14258390  1  -0.585905  -0.061983  2.112357  -0.08  -0.561064  -0.04124  2.403032  -0.057  -0.599142  -0.031684  2.393127  -0.046  -0.328591  -0.534919  -0.048153  2.409147  -0.064
O  O111  1  0.65470626  0.28035895  0.85740422  1  -0.585811  0.061975  2.112369  0.08  -0.561  0.041234  2.402983  0.057  -0.599063  0.031688  2.393101  0.046  -0.328517  -0.534868  0.04815  2.409099  0.064
O  O112  1  0.99566485  0.29055649  0.53587137  1  -0.541341  0.008959  2.034695  0.01  -0.526138  0.00592  2.295614  0.008  -0.550327  0.004167  2.282444  0.005  -0.299641  -0.509451  0.007621  2.304373  0.01
O  O113  1  0.70945399  0.00434159  0.46413355  1  -0.541582  -0.008967  2.034965  -0.01  -0.526205  -0.005926  2.295626  -0.008  -0.5504  -0.004178  2.282446  -0.005  -0.299691  -0.509504  -0.007622  2.304363  -0.01
O  O114  1  0.49534339  0.29019322  0.03588793  1  -0.541984  -0.008983  2.035735  -0.01  -0.526562  -0.005941  2.295622  -0.008  -0.550753  -0.004194  2.282476  -0.005  -0.299724  -0.509916  -0.007638  2.304346  -0.01
O  O115  1  0.70980330  0.50464437  0.96410883  1  -0.541815  0.008982  2.035708  0.01  -0.526431  0.005937  2.295552  0.008  -0.550614  0.004181  2.28242  0.005  -0.299651  -0.509779  0.007636  2.30428  0.01
F  F116  1  0.44069971  0.51422768  0.75710466  1  -0.219437  0.000101  1.226321  0.0  -0.175039  0.000166  1.396828  0.0  -0.18377  1.4e-05  1.385001  0.0  -0.104464  -0.168573  0.000262  1.405049  0.0
F  F117  1  0.48577410  0.55930031  0.24289689  1  -0.219373  -0.000104  1.226563  0.0  -0.175048  -0.000164  1.396897  0.0  -0.183778  -1.3e-05  1.385074  0.0  -0.104467  -0.168581  -0.000262  1.405105  0.0
F  F118  1  0.49294930  0.06644659  0.25721192  1  -0.22007  -0.000102  1.22681  0.0  -0.17556  -0.000163  1.395475  0.0  -0.184289  -1.3e-05  1.383645  0.0  -0.104544  -0.169071  -0.000262  1.403717  0.0
F  F119  1  0.93354758  0.50705243  0.74278516  1  -0.2201  0.000102  1.226663  0.0  -0.175683  0.000162  1.395349  0.0  -0.184409  1.3e-05  1.383525  0.0  -0.104591  -0.169195  0.000262  1.403592  0.0
F  F120  1  0.34046335  0.37108453  0.59942254  1  -0.217293  0.00185  1.219453  0.002  -0.171481  0.001496  1.383342  0.002  -0.181337  0.000946  1.37324  0.001  -0.105697  -0.163986  0.00208  1.390294  0.003
F  F121  1  0.62892093  0.65953904  0.40058127  1  -0.217219  -0.001851  1.219432  -0.002  -0.171491  -0.001496  1.38316  -0.002  -0.181349  -0.000947  1.373057  -0.001  -0.105737  -0.163997  -0.002081  1.390098  -0.003
F  F122  1  0.47848826  0.00909672  0.09952093  1  -0.208467  -0.001845  1.210647  -0.002  -0.172503  -0.001499  1.382942  -0.002  -0.182354  -0.000949  1.372823  -0.001  -0.106201  -0.164997  -0.002086  1.389927  -0.003
F  F123  1  0.99088070  0.52150733  0.90047565  1  -0.208383  0.001844  1.21087  0.002  -0.172455  0.001499  1.383081  0.002  -0.182305  0.000948  1.372967  0.001  -0.106147  -0.164949  0.002086  1.390066  0.003
F  F124  1  0.18717763  0.43654347  0.78556035  1  -0.192369  0.000674  1.187254  0.001  -0.157868  0.000604  1.355971  0.001  -0.164877  0.000335  1.342574  0.0  -0.104538  -0.152655  0.000845  1.365534  0.001
F  F125  1  0.56346898  0.81282068  0.21443980  1  -0.192373  -0.000674  1.18766  -0.001  -0.157764  -0.000604  1.356067  -0.001  -0.164772  -0.000334  1.342671  0.0  -0.104478  -0.152504  -0.000845  1.365698  -0.001
F  F126  1  0.59899508  0.34843170  0.28562754  1  -0.192621  -0.000675  1.187936  -0.001  -0.158077  -0.000606  1.357014  -0.001  -0.165147  -0.000334  1.343519  0.0  -0.104626  -0.152772  -0.000848  1.366693  -0.001
F  F127  1  0.65156377  0.40100027  0.71436751  1  -0.192683  0.000675  1.187926  0.001  -0.158109  0.000605  1.357026  0.001  -0.16519  0.000336  1.343513  0.0  -0.104623  -0.152804  0.000848  1.366708  0.001
F  F128  1  0.19098994  0.52841232  0.66800630  1  -0.225095  0.001388  1.218179  0.002  -0.182459  0.001209  1.387631  0.002  -0.19086  0.000786  1.375046  0.001  -0.104752  -0.175932  0.001653  1.396628  0.002
F  F129  1  0.47159766  0.80901670  0.33199677  1  -0.224576  -0.001384  1.218428  -0.002  -0.182414  -0.001209  1.387835  -0.002  -0.190814  -0.000786  1.375251  -0.001  -0.104715  -0.175844  -0.001653  1.396898  -0.002
F  F130  1  0.38966365  0.22701840  0.16812003  1  -0.224289  -0.001385  1.219291  -0.002  -0.181812  -0.001209  1.388548  -0.002  -0.190281  -0.000786  1.375896  -0.001  -0.104109  -0.175189  -0.001654  1.397641  -0.002
F  F131  1  0.77296672  0.61033743  0.83187866  1  -0.224311  0.001384  1.219186  0.002  -0.181831  0.001209  1.388482  0.002  -0.190309  0.000787  1.375809  0.001  -0.10413  -0.175205  0.001654  1.397574  0.002
