# generated using pymatgen
data_ErH8(C3O5)2
_symmetry_space_group_name_H-M   'P 1'
_cell_length_a   10.37638289
_cell_length_b   10.71193452
_cell_length_c   10.71193566
_cell_angle_alpha   70.58065366
_cell_angle_beta   61.03085911
_cell_angle_gamma   61.03085302
_symmetry_Int_Tables_number   1
_chemical_formula_structural   ErH8(C3O5)2
_chemical_formula_sum   'Er4 H32 C24 O40'
_cell_volume   903.85342209
_cell_formula_units_Z   4
loop_
 _symmetry_equiv_pos_site_id
 _symmetry_equiv_pos_as_xyz
  1  'x, y, z'
loop_
 _atom_site_type_symbol
 _atom_site_label
 _atom_site_symmetry_multiplicity
 _atom_site_fract_x
 _atom_site_fract_y
 _atom_site_fract_z
 _atom_site_occupancy
 _atom_site_hle17_bader_spin_density
 _atom_site_hle17_ddec_charge
 _atom_site_hle17_ddec_spin_density
 _atom_site_hle17_ddec_sum_bond_order
 _atom_site_hle17_magmom
 _atom_site_hse06_10hf_bader_spin_density
 _atom_site_hse06_10hf_ddec_charge
 _atom_site_hse06_10hf_ddec_spin_density
 _atom_site_hse06_10hf_ddec_sum_bond_order
 _atom_site_hse06_10hf_magmom
 _atom_site_hse06_bader_spin_density
 _atom_site_hse06_ddec_charge
 _atom_site_hse06_ddec_spin_density
 _atom_site_hse06_ddec_sum_bond_order
 _atom_site_hse06_magmom
 _atom_site_pbe_bader_spin_density
 _atom_site_pbe_cm5_charge
 _atom_site_pbe_ddec_charge
 _atom_site_pbe_ddec_spin_density
 _atom_site_pbe_ddec_sum_bond_order
 _atom_site_pbe_magmom
Er  Er0  1  0.25290371  0.61886443  0.87881674  1  0  2.243715  0  1.66655  0  0  2.085008  0  2.163231  0  0  2.22324  0  1.949763  0  0  1.527251  2.052056  0  2.191098  0
Er  Er1  1  0.75058703  0.38113682  0.12118348  1  0  2.243699  0  1.666531  0  0  2.085048  0  2.16318  0  0  2.223225  0  1.949732  0  0  1.527218  2.052053  0  2.191092  0
Er  Er2  1  0.25058943  0.12118077  0.38113571  1  0  2.243687  0  1.666498  0  0  2.085029  0  2.163173  0  0  2.223179  0  1.949729  0  0  1.527229  2.052029  0  2.191066  0
Er  Er3  1  0.75290516  0.87881713  0.61886558  1  0  2.243695  0  1.666532  0  0  2.085065  0  2.163127  0  0  2.223223  0  1.949735  0  0  1.527226  2.05206  0  2.191026  0
H  H4  1  0.55991191  0.55375330  0.88397480  1  0  0.456887  0  0.827869  0  0  0.427271  0  0.888432  0  0  0.438525  0  0.872103  0  0  0.315427  0.419753  0  0.899536  0
H  H5  1  0.99764333  0.44624603  0.11602689  1  0  0.456809  0  0.828028  0  0  0.427185  0  0.888585  0  0  0.438488  0  0.872191  0  0  0.315426  0.419693  0  0.899656  0
H  H6  1  0.49764142  0.11602468  0.44624836  1  0  0.456824  0  0.828011  0  0  0.4272  0  0.888565  0  0  0.438503  0  0.87217  0  0  0.315427  0.419706  0  0.899637  0
H  H7  1  0.05991234  0.88397476  0.55375348  1  0  0.456864  0  0.827902  0  0  0.427233  0  0.88848  0  0  0.438519  0  0.872108  0  0  0.315422  0.419732  0  0.899563  0
H  H8  1  0.60798857  0.44803022  0.78296169  1  0  0.459941  0  0.832394  0  0  0.427179  0  0.898801  0  0  0.439311  0  0.881168  0  0  0.306616  0.418811  0  0.91103  0
H  H9  1  0.83898213  0.55197226  0.21703799  1  0  0.459926  0  0.832389  0  0  0.427154  0  0.898815  0  0  0.439305  0  0.881156  0  0  0.306618  0.418791  0  0.911041  0
H  H10  1  0.33898244  0.21703549  0.55197259  1  0  0.459917  0  0.832409  0  0  0.427134  0  0.898847  0  0  0.439299  0  0.881167  0  0  0.306603  0.418779  0  0.911062  0
H  H11  1  0.10798959  0.78296308  0.44802938  1  0  0.459933  0  0.832406  0  0  0.427145  0  0.898851  0  0  0.439301  0  0.881184  0  0  0.30661  0.418791  0  0.911062  0
H  H12  1  0.19289374  0.76584310  0.11232411  1  0  0.401492  0  0.878768  0  0  0.37102  0  0.957642  0  0  0.382432  0  0.945458  0  0  0.308669  0.362955  0  0.966894  0
H  H13  1  0.07105911  0.23415594  0.88767486  1  0  0.401497  0  0.87875  0  0  0.371032  0  0.95761  0  0  0.382438  0  0.945434  0  0  0.308672  0.362963  0  0.966864  0
H  H14  1  0.57105973  0.88767403  0.23415605  1  0  0.401489  0  0.878739  0  0  0.371019  0  0.957597  0  0  0.382427  0  0.945422  0  0  0.308667  0.362953  0  0.96686  0
H  H15  1  0.69289554  0.11232397  0.76584277  1  0  0.401541  0  0.878708  0  0  0.371081  0  0.957563  0  0  0.382489  0  0.945384  0  0  0.308698  0.363011  0  0.966824  0
H  H16  1  0.48151041  0.31381758  0.17054781  1  0  0.4006  0  0.880183  0  0  0.373405  0  0.952926  0  0  0.384906  0  0.940828  0  0  0.314461  0.365181  0  0.962465  0
H  H17  1  0.96587312  0.68618273  0.82945079  1  0  0.400635  0  0.880144  0  0  0.37345  0  0.952864  0  0  0.384958  0  0.94077  0  0  0.314492  0.365221  0  0.962423  0
H  H18  1  0.46587316  0.82945245  0.68618226  1  0  0.400649  0  0.880139  0  0  0.373452  0  0.95288  0  0  0.384955  0  0.940784  0  0  0.314496  0.365226  0  0.962421  0
H  H19  1  0.98151084  0.17054678  0.31381742  1  0  0.400591  0  0.880198  0  0  0.373404  0  0.952932  0  0  0.384896  0  0.940854  0  0  0.314458  0.365166  0  0.962495  0
H  H20  1  0.89835079  0.82512402  0.00097475  1  0  0.407686  0  0.86234  0  0  0.37771  0  0.939066  0  0  0.389778  0  0.926223  0  0  0.312648  0.369043  0  0.948681  0
H  H21  1  0.72444997  0.17487349  0.99903009  1  0  0.407746  0  0.862171  0  0  0.37778  0  0.93888  0  0  0.389846  0  0.926038  0  0  0.312662  0.369105  0  0.948509  0
H  H22  1  0.22445011  0.99902881  0.17487403  1  0  0.407731  0  0.862223  0  0  0.37777  0  0.93892  0  0  0.389835  0  0.926075  0  0  0.312653  0.369099  0  0.948548  0
H  H23  1  0.39835116  0.00097596  0.82512451  1  0  0.407683  0  0.862362  0  0  0.377695  0  0.939112  0  0  0.389754  0  0.926276  0  0  0.31265  0.369023  0  0.948732  0
H  H24  1  0.11053133  0.63134340  0.30723489  1  0  0.104168  0  0.92379  0  0  0.1095  0  0.985995  0  0  0.11337  0  0.982109  0  0  0.129404  0.106963  0  0.98807  0
H  H25  1  0.04910694  0.36865743  0.69276421  1  0  0.104152  0  0.923792  0  0  0.109458  0  0.986032  0  0  0.113338  0  0.982138  0  0  0.129412  0.106932  0  0.988091  0
H  H26  1  0.54910684  0.69276465  0.36865886  1  0  0.10417  0  0.92378  0  0  0.109512  0  0.985981  0  0  0.113382  0  0.982089  0  0  0.129422  0.106976  0  0.988048  0
H  H27  1  0.61053231  0.30723434  0.63134224  1  0  0.104191  0  0.923778  0  0  0.109465  0  0.986013  0  0  0.113338  0  0.982124  0  0  0.129409  0.106933  0  0.988072  0
H  H28  1  0.32555075  0.43390293  0.37141111  1  0  0.084591  0  0.913286  0  0  0.091593  0  0.97717  0  0  0.094535  0  0.97441  0  0  0.123697  0.089577  0  0.979053  0
H  H29  1  0.13086452  0.56609483  0.62858655  1  0  0.084577  0  0.913297  0  0  0.091599  0  0.977164  0  0  0.094524  0  0.974418  0  0  0.123686  0.089578  0  0.979037  0
H  H30  1  0.63086354  0.62858840  0.56609598  1  0  0.084587  0  0.9133  0  0  0.091619  0  0.977191  0  0  0.094551  0  0.974436  0  0  0.123695  0.089597  0  0.979066  0
H  H31  1  0.82555180  0.37141126  0.43390046  1  0  0.084581  0  0.913267  0  0  0.091602  0  0.977177  0  0  0.094536  0  0.974418  0  0  0.123692  0.089579  0  0.979054  0
H  H32  1  0.95344217  0.03283919  0.84933965  1  0  0.104427  0  0.885438  0  0  0.113438  0  0.940692  0  0  0.116643  0  0.937828  0  0  0.131597  0.111434  0  0.942151  0
H  H33  1  0.83562317  0.96715828  0.15066714  1  0  0.104457  0  0.885409  0  0  0.113466  0  0.940666  0  0  0.116677  0  0.937797  0  0  0.131585  0.111468  0  0.942119  0
H  H34  1  0.33562210  0.15066726  0.96715912  1  0  0.104461  0  0.885412  0  0  0.113474  0  0.940664  0  0  0.116678  0  0.937802  0  0  0.131597  0.111472  0  0.942124  0
H  H35  1  0.45344271  0.84933923  0.03283813  1  0  0.104407  0  0.885467  0  0  0.113421  0  0.940722  0  0  0.116628  0  0.937855  0  0  0.131622  0.111423  0  0.942181  0
C  C36  1  0.17546789  0.45887065  0.20415668  1  0  0.719589  0  3.816441  0  0  0.669134  0  4.115205  0  0  0.704882  0  4.108772  0  0  0.232886  0.645153  0  4.123459  0
C  C37  1  0.83849534  0.54112984  0.79584353  1  0  0.719604  0  3.816466  0  0  0.66916  0  4.115222  0  0  0.704902  0  4.108769  0  0  0.232886  0.645162  0  4.123473  0
C  C38  1  0.33849316  0.79584760  0.54112707  1  0  0.719642  0  3.816234  0  0  0.6691  0  4.115157  0  0  0.704839  0  4.108712  0  0  0.232868  0.64509  0  4.123433  0
C  C39  1  0.67546996  0.20415251  0.45887206  1  0  0.719526  0  3.81647  0  0  0.669027  0  4.115296  0  0  0.704764  0  4.108832  0  0  0.232843  0.645042  0  4.123517  0
C  C40  1  0.21571263  0.57004404  0.22061689  1  0  0.056921  0  3.62386  0  0  0.030583  0  3.872647  0  0  0.032482  0  3.878681  0  0  -0.000326  0.029512  0  3.869608  0
C  C41  1  0.00637242  0.42995510  0.77938320  1  0  0.056887  0  3.623905  0  0  0.030551  0  3.872716  0  0  0.032441  0  3.878738  0  0  -0.000332  0.029461  0  3.869665  0
C  C42  1  0.50637270  0.77938328  0.42995548  1  0  0.056893  0  3.623808  0  0  0.030587  0  3.872639  0  0  0.032496  0  3.878662  0  0  -0.000295  0.029518  0  3.869602  0
C  C43  1  0.71571476  0.22061604  0.57004232  1  0  0.056891  0  3.623977  0  0  0.0307  0  3.872653  0  0  0.0326  0  3.878678  0  0  -0.000319  0.029619  0  3.869594  0
C  C44  1  0.35913742  0.49617871  0.26401406  1  0  0.069059  0  3.613528  0  0  0.040548  0  3.866209  0  0  0.042934  0  3.873915  0  0  0.000159  0.039102  0  3.862527  0
C  C45  1  0.11932951  0.50382025  0.73598465  1  0  0.069055  0  3.613571  0  0  0.040526  0  3.866247  0  0  0.042962  0  3.87393  0  0  0.00016  0.039113  0  3.862519  0
C  C46  1  0.61932821  0.73598642  0.50382210  1  0  0.0691  0  3.61346  0  0  0.040485  0  3.866335  0  0  0.042897  0  3.874014  0  0  0.000157  0.039055  0  3.86261  0
C  C47  1  0.85913728  0.26401364  0.49617754  1  0  0.069145  0  3.613428  0  0  0.040533  0  3.866239  0  0  0.042948  0  3.873923  0  0  0.000195  0.039104  0  3.862522  0
C  C48  1  0.40419023  0.60878207  0.27321680  1  0  0.67394  0  3.844402  0  0  0.621648  0  4.152599  0  0  0.655211  0  4.146211  0  0  0.217628  0.598839  0  4.158358  0
C  C49  1  0.28618993  0.39121515  0.72678164  1  0  0.673937  0  3.844417  0  0  0.621666  0  4.152601  0  0  0.65523  0  4.146203  0  0  0.217635  0.59885  0  4.158336  0
C  C50  1  0.78618898  0.72678301  0.39121490  1  0  0.673949  0  3.844284  0  0  0.621632  0  4.152587  0  0  0.655194  0  4.146196  0  0  0.217615  0.598828  0  4.158319  0
C  C51  1  0.90419324  0.27321704  0.60877910  1  0  0.673948  0  3.844007  0  0  0.621626  0  4.152298  0  0  0.655178  0  4.145916  0  0  0.217622  0.598821  0  4.158029  0
C  C52  1  0.17778609  0.95457163  0.86291751  1  0  0.680044  0  3.802107  0  0  0.616078  0  4.117822  0  0  0.650657  0  4.111202  0  0  0.230714  0.592807  0  4.123262  0
C  C53  1  0.99527607  0.04543022  0.13708358  1  0  0.680025  0  3.802142  0  0  0.61605  0  4.11789  0  0  0.650632  0  4.111256  0  0  0.230725  0.592783  0  4.123321  0
C  C54  1  0.49527626  0.13708279  0.04543059  1  0  0.68014  0  3.802199  0  0  0.616176  0  4.117915  0  0  0.65076  0  4.111275  0  0  0.230783  0.592906  0  4.123341  0
C  C55  1  0.67778684  0.86291692  0.95457264  1  0  0.680101  0  3.80214  0  0  0.616183  0  4.11781  0  0  0.650757  0  4.111184  0  0  0.23077  0.592904  0  4.123268  0
C  C56  1  0.00551528  0.96393972  0.92975719  1  0  0.077105  0  3.568584  0  0  0.05131  0  3.823164  0  0  0.053695  0  3.829829  0  0  0.011108  0.049731  0  3.820259  0
C  C57  1  0.89921177  0.03605844  0.07024637  1  0  0.077008  0  3.568714  0  0  0.051215  0  3.823327  0  0  0.053588  0  3.829977  0  0  0.011038  0.049629  0  3.820398  0
C  C58  1  0.39921223  0.07024617  0.03605951  1  0  0.07696  0  3.568759  0  0  0.051176  0  3.823336  0  0  0.05354  0  3.830001  0  0  0.011015  0.049598  0  3.820418  0
C  C59  1  0.50551459  0.92975745  0.96393868  1  0  0.077114  0  3.568628  0  0  0.051299  0  3.823213  0  0  0.053669  0  3.829883  0  0  0.011076  0.049706  0  3.820317  0
O  O60  1  0.51400753  0.52832412  0.83829620  1  0  -0.937166  0  1.86259  0  0  -0.891147  0  2.082438  0  0  -0.924312  0  2.038432  0  0  -0.670473  -0.877622  0  2.106613  0
O  O61  1  0.88063175  0.47167476  0.16170461  1  0  -0.93709  0  1.862704  0  0  -0.891049  0  2.082557  0  0  -0.924268  0  2.038502  0  0  -0.670468  -0.877549  0  2.106728  0
O  O62  1  0.38063207  0.16170218  0.47167698  1  0  -0.937083  0  1.862696  0  0  -0.891037  0  2.082563  0  0  -0.924263  0  2.038499  0  0  -0.670461  -0.877547  0  2.106731  0
O  O63  1  0.01400936  0.83829650  0.52832398  1  0  -0.937131  0  1.862606  0  0  -0.891087  0  2.082466  0  0  -0.92429  0  2.038429  0  0  -0.670466  -0.877588  0  2.106634  0
O  O64  1  0.17435608  0.46540998  0.08320913  1  0  -0.723318  0  2.039883  0  0  -0.667625  0  2.293116  0  0  -0.705571  0  2.277043  0  0  -0.384143  -0.650876  0  2.301608  0
O  O65  1  0.72297355  0.53459155  0.91679230  1  0  -0.723357  0  2.039901  0  0  -0.667639  0  2.293117  0  0  -0.705566  0  2.277028  0  0  -0.384135  -0.650877  0  2.301598  0
O  O66  1  0.22297445  0.91679132  0.53459098  1  0  -0.723326  0  2.039929  0  0  -0.667599  0  2.293203  0  0  -0.705517  0  2.277107  0  0  -0.384138  -0.650829  0  2.30169  0
O  O67  1  0.67435752  0.08320848  0.46540937  1  0  -0.723311  0  2.039985  0  0  -0.66759  0  2.293234  0  0  -0.705512  0  2.277126  0  0  -0.384124  -0.650833  0  2.301696  0
O  O68  1  0.14946749  0.36470012  0.31012432  1  0  -0.721282  0  2.065111  0  0  -0.673673  0  2.329911  0  0  -0.712414  0  2.314089  0  0  -0.39461  -0.656214  0  2.336592  0
O  O69  1  0.82429036  0.63530043  0.68987486  1  0  -0.721287  0  2.065158  0  0  -0.673688  0  2.329959  0  0  -0.712421  0  2.314132  0  0  -0.394611  -0.656219  0  2.336635  0
O  O70  1  0.32428874  0.68987262  0.63530345  1  0  -0.72134  0  2.064912  0  0  -0.673686  0  2.329757  0  0  -0.712451  0  2.313949  0  0  -0.394627  -0.656225  0  2.336443  0
O  O71  1  0.64946724  0.31012478  0.36469680  1  0  -0.721249  0  2.065003  0  0  -0.673648  0  2.329855  0  0  -0.712385  0  2.314013  0  0  -0.394585  -0.656188  0  2.336518  0
O  O72  1  0.24628437  0.66502028  0.08903037  1  0  -0.642413  0  2.194068  0  0  -0.591074  0  2.443292  0  0  -0.618541  0  2.429498  0  0  -0.442959  -0.579358  0  2.45171  0
O  O73  1  0.00033329  0.33498047  0.91096862  1  0  -0.642389  0  2.194058  0  0  -0.591059  0  2.443281  0  0  -0.618522  0  2.4295  0  0  -0.442965  -0.57934  0  2.4517  0
O  O74  1  0.50033214  0.91096827  0.33498011  1  0  -0.642405  0  2.19405  0  0  -0.591064  0  2.443278  0  0  -0.618542  0  2.429508  0  0  -0.442968  -0.579364  0  2.451723  0
O  O75  1  0.74628478  0.08903068  0.66501981  1  0  -0.64249  0  2.194103  0  0  -0.591183  0  2.443262  0  0  -0.618648  0  2.429477  0  0  -0.443005  -0.579468  0  2.451692  0
O  O76  1  0.49688271  0.40186782  0.16301709  1  0  -0.650381  0  2.207337  0  0  -0.597225  0  2.457498  0  0  -0.625169  0  2.441885  0  0  -0.453062  -0.585933  0  2.467249  0
O  O77  1  0.06176525  0.59813271  0.83698152  1  0  -0.650401  0  2.207323  0  0  -0.59723  0  2.457432  0  0  -0.625231  0  2.441863  0  0  -0.453076  -0.585968  0  2.467216  0
O  O78  1  0.56176606  0.83698130  0.59813198  1  0  -0.650433  0  2.207335  0  0  -0.597253  0  2.45754  0  0  -0.625214  0  2.441936  0  0  -0.453076  -0.585956  0  2.467279  0
O  O79  1  0.99688360  0.16301610  0.40186755  1  0  -0.65042  0  2.20735  0  0  -0.597243  0  2.457548  0  0  -0.625197  0  2.441944  0  0  -0.453077  -0.585942  0  2.467294  0
O  O80  1  0.55231837  0.58847618  0.21157130  1  0  -0.705679  0  2.011579  0  0  -0.654899  0  2.272686  0  0  -0.692338  0  2.25833  0  0  -0.40862  -0.636885  0  2.279074  0
O  O81  1  0.35236537  0.41152351  0.78843012  1  0  -0.705759  0  2.011453  0  0  -0.654958  0  2.272542  0  0  -0.692413  0  2.258206  0  0  -0.408667  -0.636957  0  2.278922  0
O  O82  1  0.85236552  0.78842784  0.41152341  1  0  -0.705761  0  2.011435  0  0  -0.654945  0  2.272551  0  0  -0.692399  0  2.258216  0  0  -0.408663  -0.636943  0  2.278936  0
O  O83  1  0.05231717  0.21157240  0.58847693  1  0  -0.705679  0  2.011542  0  0  -0.65486  0  2.272654  0  0  -0.692298  0  2.258309  0  0  -0.408625  -0.636859  0  2.279029  0
O  O84  1  0.29470492  0.71358301  0.33962396  1  0  -0.606772  0  1.983288  0  0  -0.554708  0  2.215305  0  0  -0.578105  0  2.204279  0  0  -0.306038  -0.537384  0  2.221861  0
O  O85  1  0.34791121  0.28641661  0.66037562  1  0  -0.606666  0  1.983393  0  0  -0.554646  0  2.215429  0  0  -0.57803  0  2.204397  0  0  -0.305947  -0.537325  0  2.221979  0
O  O86  1  0.84790848  0.66037801  0.28641570  1  0  -0.606694  0  1.983338  0  0  -0.554643  0  2.21539  0  0  -0.57803  0  2.204375  0  0  -0.305941  -0.537334  0  2.221957  0
O  O87  1  0.79470141  0.33962701  0.71358374  1  0  -0.606764  0  1.982877  0  0  -0.554721  0  2.214961  0  0  -0.578125  0  2.203964  0  0  -0.306055  -0.537411  0  2.221522  0
O  O88  1  0.28969247  0.83363340  0.82467156  1  0  -0.704407  0  2.121622  0  0  -0.63765  0  2.369128  0  0  -0.675058  0  2.35762  0  0  -0.369493  -0.619054  0  2.374587  0
O  O89  1  0.94800146  0.16636503  0.17532729  1  0  -0.704398  0  2.121758  0  0  -0.637659  0  2.369291  0  0  -0.675054  0  2.357764  0  0  -0.36951  -0.619046  0  2.374735  0
O  O90  1  0.44800024  0.17532729  0.16636605  1  0  -0.704451  0  2.12175  0  0  -0.637699  0  2.369264  0  0  -0.675093  0  2.357735  0  0  -0.369526  -0.619087  0  2.374697  0
O  O91  1  0.78969228  0.82467193  0.83363388  1  0  -0.704418  0  2.121662  0  0  -0.63769  0  2.369153  0  0  -0.675092  0  2.357646  0  0  -0.369505  -0.619081  0  2.374617  0
O  O92  1  0.20241456  0.06403069  0.84857539  1  0  -0.592777  0  2.006324  0  0  -0.52992  0  2.228822  0  0  -0.555313  0  2.219364  0  0  -0.282069  -0.51154  0  2.233968  0
O  O93  1  0.11502333  0.93596901  0.15142459  1  0  -0.592729  0  2.006189  0  0  -0.529894  0  2.228717  0  0  -0.555279  0  2.219231  0  0  -0.282  -0.511512  0  2.233867  0
O  O94  1  0.61502346  0.15142291  0.93597050  1  0  -0.592786  0  2.006253  0  0  -0.52994  0  2.22876  0  0  -0.555335  0  2.219295  0  0  -0.282024  -0.511562  0  2.233912  0
O  O95  1  0.70241414  0.84857513  0.06402934  1  0  -0.592747  0  2.006322  0  0  -0.529942  0  2.228857  0  0  -0.555303  0  2.219344  0  0  -0.28208  -0.511552  0  2.234016  0
O  O96  1  0.01050834  0.82263560  0.95356835  1  0  -0.655965  0  2.212238  0  0  -0.607478  0  2.469611  0  0  -0.635751  0  2.453038  0  0  -0.450496  -0.596001  0  2.479495  0
O  O97  1  0.78671135  0.17736099  0.04643642  1  0  -0.655986  0  2.212131  0  0  -0.607549  0  2.46958  0  0  -0.635783  0  2.452951  0  0  -0.450474  -0.596043  0  2.479439  0
O  O98  1  0.28671139  0.04643514  0.17736214  1  0  -0.655972  0  2.212157  0  0  -0.607532  0  2.469588  0  0  -0.635759  0  2.452963  0  0  -0.450469  -0.59603  0  2.479456  0
O  O99  1  0.51050784  0.95356995  0.82263618  1  0  -0.655912  0  2.212264  0  0  -0.607476  0  2.469717  0  0  -0.635701  0  2.453106  0  0  -0.450492  -0.595961  0  2.479579  0
