# generated using pymatgen
data_AgH5C11N(OF)2
_symmetry_space_group_name_H-M   'P 1'
_cell_length_a   9.77887765
_cell_length_b   10.20135141
_cell_length_c   11.10561139
_cell_angle_alpha   107.71163390
_cell_angle_beta   98.99975408
_cell_angle_gamma   91.81022578
_symmetry_Int_Tables_number   1
_chemical_formula_structural   AgH5C11N(OF)2
_chemical_formula_sum   'Ag4 H20 C44 N4 O8 F8'
_cell_volume   1038.66748462
_cell_formula_units_Z   4
loop_
 _symmetry_equiv_pos_site_id
 _symmetry_equiv_pos_as_xyz
  1  'x, y, z'
loop_
 _atom_site_type_symbol
 _atom_site_label
 _atom_site_symmetry_multiplicity
 _atom_site_fract_x
 _atom_site_fract_y
 _atom_site_fract_z
 _atom_site_occupancy
 _atom_site_hle17_bader_spin_density
 _atom_site_hle17_ddec_charge
 _atom_site_hle17_ddec_spin_density
 _atom_site_hle17_ddec_sum_bond_order
 _atom_site_hle17_magmom
 _atom_site_hse06_10hf_bader_spin_density
 _atom_site_hse06_10hf_ddec_charge
 _atom_site_hse06_10hf_ddec_spin_density
 _atom_site_hse06_10hf_ddec_sum_bond_order
 _atom_site_hse06_10hf_magmom
 _atom_site_hse06_bader_spin_density
 _atom_site_hse06_ddec_charge
 _atom_site_hse06_ddec_spin_density
 _atom_site_hse06_ddec_sum_bond_order
 _atom_site_hse06_magmom
 _atom_site_pbe_bader_spin_density
 _atom_site_pbe_cm5_charge
 _atom_site_pbe_ddec_charge
 _atom_site_pbe_ddec_spin_density
 _atom_site_pbe_ddec_sum_bond_order
 _atom_site_pbe_magmom
Ag  Ag0  1  0.59175862  0.40898231  0.60766149  1  0  0.619633  0  1.453003  0  0  0.500672  0  1.935286  0  0  0.533935  0  1.872632  0  0  0.447781  0.477614  0  1.978725  0
Ag  Ag1  1  0.40823947  0.59101937  0.39234148  1  0  0.619638  0  1.452969  0  0  0.500678  0  1.935243  0  0  0.533943  0  1.872595  0  0  0.447789  0.477619  0  1.978686  0
Ag  Ag2  1  0.45280893  0.16458311  0.61823288  1  0  0.622899  0  1.488764  0  0  0.501147  0  1.989613  0  0  0.533219  0  1.92517  0  0  0.452433  0.479301  0  2.033841  0
Ag  Ag3  1  0.54719097  0.83541548  0.38176677  1  0  0.622928  0  1.488677  0  0  0.501183  0  1.989518  0  0  0.533256  0  1.925069  0  0  0.452439  0.479333  0  2.033748  0
H  H4  1  0.00743755  0.77031909  0.01530097  1  0  0.096104  0  0.957703  0  0  0.104475  0  1.023043  0  0  0.107252  0  1.021571  0  0  0.10184  0.102567  0  1.024067  0
H  H5  1  0.99256330  0.22967847  0.98469942  1  0  0.096091  0  0.957713  0  0  0.104455  0  1.023057  0  0  0.107229  0  1.021594  0  0  0.101818  0.102547  0  1.024081  0
H  H6  1  0.25590767  0.76346785  0.10804729  1  0  0.095782  0  0.958538  0  0  0.103653  0  1.024649  0  0  0.10617  0  1.024429  0  0  0.100194  0.101967  0  1.024697  0
H  H7  1  0.74409437  0.23653177  0.89195024  1  0  0.095791  0  0.958528  0  0  0.103655  0  1.024655  0  0  0.106172  0  1.024435  0  0  0.100189  0.101971  0  1.024705  0
H  H8  1  0.38295331  0.56080825  0.01576183  1  0  0.086078  0  0.94698  0  0  0.100007  0  1.002418  0  0  0.102333  0  1.001331  0  0  0.102381  0.097923  0  1.004091  0
H  H9  1  0.61705080  0.43919138  0.98423688  1  0  0.086121  0  0.94695  0  0  0.10005  0  1.002377  0  0  0.102374  0  1.001292  0  0  0.102399  0.097966  0  1.004051  0
H  H10  1  0.26494207  0.36496185  0.82818400  1  0  0.096832  0  0.962267  0  0  0.106801  0  1.023267  0  0  0.109325  0  1.022961  0  0  0.100077  0.105081  0  1.023587  0
H  H11  1  0.73505800  0.63503881  0.17181535  1  0  0.096789  0  0.962275  0  0  0.106767  0  1.023269  0  0  0.109292  0  1.022962  0  0  0.100062  0.105047  0  1.02359  0
H  H12  1  0.01553099  0.37080064  0.73777253  1  0  0.110498  0  0.955739  0  0  0.117436  0  1.021815  0  0  0.121001  0  1.019726  0  0  0.103587  0.114955  0  1.023288  0
H  H13  1  0.98446882  0.62919692  0.26222862  1  0  0.110533  0  0.955693  0  0  0.11748  0  1.021745  0  0  0.121045  0  1.019658  0  0  0.103597  0.115  0  1.023217  0
H  H14  1  0.59733443  0.24854454  0.14737185  1  0  0.103613  0  0.962041  0  0  0.110864  0  1.026902  0  0  0.113702  0  1.025993  0  0  0.103534  0.108728  0  1.027745  0
H  H15  1  0.40266477  0.75145818  0.85262796  1  0  0.103588  0  0.962068  0  0  0.110834  0  1.02694  0  0  0.113672  0  1.026032  0  0  0.103508  0.108697  0  1.027784  0
H  H16  1  0.53633973  0.21382107  0.34541366  1  0  0.091079  0  0.963395  0  0  0.094674  0  1.041054  0  0  0.09939  0  1.036119  0  0  0.09731  0.091305  0  1.044547  0
H  H17  1  0.46366155  0.78618165  0.65458733  1  0  0.091085  0  0.963409  0  0  0.094643  0  1.041103  0  0  0.099385  0  1.036143  0  0  0.097339  0.091279  0  1.044593  0
H  H18  1  0.30675546  0.09854968  0.33887951  1  0  0.095165  0  0.956301  0  0  0.10265  0  1.024056  0  0  0.106032  0  1.02162  0  0  0.099054  0.100104  0  1.02601  0
H  H19  1  0.69324660  0.90144995  0.66112162  1  0  0.09516  0  0.956312  0  0  0.102644  0  1.024062  0  0  0.106025  0  1.021626  0  0  0.099065  0.100098  0  1.026015  0
H  H20  1  0.13745072  0.01541236  0.13440735  1  0  0.09031  0  0.956131  0  0  0.099337  0  1.016692  0  0  0.102448  0  1.0152  0  0  0.09805  0.09713  0  1.017971  0
H  H21  1  0.86255238  0.98458727  0.86559482  1  0  0.090324  0  0.956147  0  0  0.099338  0  1.016726  0  0  0.102449  0  1.015233  0  0  0.098037  0.097131  0  1.018005  0
H  H22  1  0.19939638  0.04529440  0.93376249  1  0  0.103522  0  0.95393  0  0  0.10975  0  1.019306  0  0  0.113789  0  1.015877  0  0  0.102504  0.106879  0  1.021806  0
H  H23  1  0.80060482  0.95470729  0.06624000  1  0  0.103541  0  0.953947  0  0  0.109798  0  1.019282  0  0  0.113837  0  1.015854  0  0  0.102526  0.106927  0  1.021784  0
C  C24  1  0.26849653  0.38849426  0.54945928  1  0  0.686788  0  3.908833  0  0  0.632524  0  4.198181  0  0  0.668425  0  4.191961  0  0  0.209583  0.607408  0  4.202672  0
C  C25  1  0.73150336  0.61150433  0.45054036  1  0  0.686867  0  3.908706  0  0  0.632571  0  4.198056  0  0  0.668497  0  4.191837  0  0  0.2096  0.607457  0  4.202543  0
C  C26  1  0.10692157  0.58102162  0.59061748  1  0  0.203087  0  3.788187  0  0  0.164086  0  4.093448  0  0  0.173456  0  4.102239  0  0  0.091264  0.157069  0  4.088773  0
C  C27  1  0.89307842  0.41897800  0.40938337  1  0  0.203147  0  3.788117  0  0  0.164137  0  4.093334  0  0  0.173531  0  4.102146  0  0  0.091281  0.157119  0  4.088655  0
C  C28  1  0.13238330  0.44773861  0.52082886  1  0  -0.203259  0  3.750481  0  0  -0.204945  0  4.016067  0  0  -0.210925  0  4.031034  0  0  -0.023915  -0.201781  0  4.007981  0
C  C29  1  0.86761677  0.55226205  0.47917049  1  0  -0.203438  0  3.750659  0  0  -0.205024  0  4.016113  0  0  -0.211092  0  4.031187  0  0  -0.023966  -0.201861  0  4.008028  0
C  C30  1  0.02250295  0.36876843  0.42877300  1  0  0.201754  0  3.775883  0  0  0.166118  0  4.078205  0  0  0.175168  0  4.087063  0  0  0.091454  0.159491  0  4.073221  0
C  C31  1  0.97749884  0.63122810  0.57122453  1  0  0.20188  0  3.775904  0  0  0.16623  0  4.078183  0  0  0.175307  0  4.087065  0  0  0.091514  0.159605  0  4.0732  0
C  C32  1  0.75169669  0.14672226  0.55024255  1  0  0.682982  0  3.913517  0  0  0.628234  0  4.204291  0  0  0.66409  0  4.197784  0  0  0.209822  0.604246  0  4.207505  0
C  C33  1  0.24830372  0.85328252  0.44975710  1  0  0.68286  0  3.913712  0  0  0.628205  0  4.204383  0  0  0.664044  0  4.197899  0  0  0.209871  0.604224  0  4.207586  0
C  C34  1  0.90008425  0.00511923  0.39965047  1  0  0.214492  0  3.782561  0  0  0.174274  0  4.092591  0  0  0.184893  0  4.097961  0  0  0.092561  0.166354  0  4.090761  0
C  C35  1  0.09991290  0.99488349  0.60035357  1  0  0.214425  0  3.782713  0  0  0.174228  0  4.09278  0  0  0.18485  0  4.098143  0  0  0.092555  0.166307  0  4.090947  0
C  C36  1  0.87894322  0.07018217  0.52421383  1  0  -0.194841  0  3.750599  0  0  -0.199489  0  4.021258  0  0  -0.204478  0  4.034801  0  0  -0.023334  -0.197265  0  4.013766  0
C  C37  1  0.12105297  0.92982158  0.47578586  1  0  -0.19465  0  3.750491  0  0  -0.199401  0  4.021201  0  0  -0.204391  0  4.034755  0  0  -0.023304  -0.197179  0  4.013708  0
C  C38  1  0.98157318  0.06319723  0.62372222  1  0  0.207488  0  3.756187  0  0  0.168672  0  4.060022  0  0  0.178172  0  4.06694  0  0  0.092706  0.161676  0  4.056817  0
C  C39  1  0.01842767  0.93680033  0.37627817  1  0  0.207396  0  3.756097  0  0  0.168632  0  4.059945  0  0  0.178134  0  4.066859  0  0  0.092746  0.161633  0  4.056743  0
C  C40  1  0.85589692  0.57162532  0.81969496  1  0  0.312292  0  3.715246  0  0  0.290818  0  3.977204  0  0  0.30431  0  3.996637  0  0  0.204629  0.281486  0  3.964382  0
C  C41  1  0.14409979  0.42837223  0.18030668  1  0  0.31231  0  3.715003  0  0  0.290861  0  3.976983  0  0  0.304359  0  3.996414  0  0  0.204695  0.281532  0  3.96416  0
C  C42  1  0.99814865  0.57101593  0.87131950  1  0  0.006542  0  3.887813  0  0  0.031609  0  4.114686  0  0  0.027742  0  4.136576  0  0  -0.001758  0.034271  0  4.099665  0
C  C43  1  0.00184900  0.42898059  0.12867927  1  0  0.006559  0  3.887772  0  0  0.031547  0  4.114741  0  0  0.027671  0  4.136637  0  0  -0.001802  0.034209  0  4.099719  0
C  C44  1  0.06524135  0.68280288  0.97509737  1  0  -0.07763  0  3.717277  0  0  -0.104544  0  3.967342  0  0  -0.104392  0  3.987072  0  0  -0.076536  -0.104195  0  3.953442  0
C  C45  1  0.93475847  0.31719468  0.02490378  1  0  -0.077645  0  3.717361  0  0  -0.104523  0  3.967436  0  0  -0.104371  0  3.987171  0  0  -0.076512  -0.104175  0  3.953538  0
C  C46  1  0.20367022  0.67842124  0.02631722  1  0  -0.071072  0  3.755367  0  0  -0.086729  0  4.011502  0  0  -0.090885  0  4.034549  0  0  -0.089217  -0.083921  0  3.995123  0
C  C47  1  0.79633072  0.32157735  0.97368257  1  0  -0.07106  0  3.755471  0  0  -0.086719  0  4.01158  0  0  -0.090874  0  4.034625  0  0  -0.089208  -0.083915  0  3.995205  0
C  C48  1  0.27505950  0.56395786  0.97386495  1  0  -0.041541  0  3.735761  0  0  -0.056229  0  3.981409  0  0  -0.055748  0  4.002051  0  0  -0.077454  -0.05585  0  3.967281  0
C  C49  1  0.72494238  0.43603970  0.02613378  1  0  -0.041583  0  3.7358  0  0  -0.056269  0  3.981438  0  0  -0.055786  0  4.002076  0  0  -0.07748  -0.055886  0  3.967303  0
C  C50  1  0.20870224  0.45337930  0.86980974  1  0  -0.068422  0  3.739836  0  0  -0.080922  0  3.987362  0  0  -0.08487  0  4.009742  0  0  -0.089166  -0.078192  0  3.971897  0
C  C51  1  0.79129972  0.54661930  0.13019019  1  0  -0.068353  0  3.739952  0  0  -0.080862  0  3.987462  0  0  -0.084811  0  4.009845  0  0  -0.089123  -0.078132  0  3.971996  0
C  C52  1  0.06993669  0.45581054  0.81827526  1  0  -0.077118  0  3.69979  0  0  -0.100965  0  3.947337  0  0  -0.101481  0  3.967487  0  0  -0.076192  -0.100249  0  3.933109  0
C  C53  1  0.93006201  0.54418598  0.18172635  1  0  -0.0772  0  3.69991  0  0  -0.10102  0  3.947467  0  0  -0.101535  0  3.967619  0  0  -0.07621  -0.100305  0  3.93324  0
C  C54  1  0.43592598  0.16841526  0.91623249  1  0  0.327335  0  3.717677  0  0  0.304718  0  3.978235  0  0  0.319617  0  3.996616  0  0  0.217669  0.294491  0  3.966257  0
C  C55  1  0.56407296  0.83158436  0.08376552  1  0  0.327284  0  3.71773  0  0  0.304665  0  3.978287  0  0  0.319566  0  3.996668  0  0  0.217646  0.294436  0  3.96631  0
C  C56  1  0.40164012  0.14889819  0.02939776  1  0  0.003017  0  3.899322  0  0  0.029084  0  4.126536  0  0  0.023818  0  4.150408  0  0  -0.002323  0.03227  0  4.110564  0
C  C57  1  0.59836012  0.85110453  0.97060309  1  0  0.003043  0  3.899271  0  0  0.029122  0  4.126472  0  0  0.023851  0  4.150344  0  0  -0.002315  0.03231  0  4.1105  0
C  C58  1  0.49756464  0.19657475  0.14501290  1  0  -0.07016  0  3.68798  0  0  -0.094497  0  3.930065  0  0  -0.094293  0  3.949851  0  0  -0.07053  -0.094178  0  3.916556  0
C  C59  1  0.50243455  0.80342797  0.85498511  1  0  -0.070131  0  3.687976  0  0  -0.094466  0  3.930037  0  0  -0.09426  0  3.949833  0  0  -0.070493  -0.094146  0  3.916531  0
C  C60  1  0.46268837  0.17707933  0.25543543  1  0  -0.04663  0  3.720768  0  0  -0.058778  0  3.97284  0  0  -0.062496  0  3.993507  0  0  -0.080323  -0.056329  0  3.958784  0
C  C61  1  0.53731273  0.82292133  0.74456496  1  0  -0.046646  0  3.720796  0  0  -0.058777  0  3.972873  0  0  -0.062519  0  3.993523  0  0  -0.080383  -0.056334  0  3.958825  0
C  C62  1  0.33353630  0.11194287  0.25146155  1  0  -0.026118  0  3.689101  0  0  -0.044475  0  3.939596  0  0  -0.043433  0  3.959139  0  0  -0.073807  -0.045137  0  3.926761  0
C  C63  1  0.66646688  0.88805779  0.74854092  1  0  -0.026098  0  3.688997  0  0  -0.044424  0  3.93945  0  0  -0.043389  0  3.959011  0  0  -0.073805  -0.045088  0  3.926615  0
C  C64  1  0.23837689  0.06510174  0.13638017  1  0  -0.06906  0  3.764993  0  0  -0.082978  0  4.019332  0  0  -0.087282  0  4.042347  0  0  -0.088871  -0.080368  0  4.004115  0
C  C65  1  0.76162620  0.93489789  0.86362110  1  0  -0.069068  0  3.764939  0  0  -0.082993  0  4.019281  0  0  -0.087298  0  4.042297  0  0  -0.088863  -0.080381  0  4.004062  0
C  C66  1  0.27155164  0.08235604  0.02455727  1  0  -0.087604  0  3.718081  0  0  -0.111228  0  3.964009  0  0  -0.112214  0  3.985311  0  0  -0.078786  -0.110416  0  3.949641  0
C  C67  1  0.72844844  0.91764461  0.97544478  1  0  -0.087644  0  3.718078  0  0  -0.111287  0  3.963998  0  0  -0.112271  0  3.9853  0  0  -0.078796  -0.11048  0  3.949632  0
N  N68  1  0.73881647  0.56790468  0.77519535  1  0  -0.433191  0  2.820159  0  0  -0.387402  0  3.102858  0  0  -0.404206  0  3.11075  0  0  -0.336038  -0.376265  0  3.098303  0
N  N69  1  0.26118041  0.43209494  0.22480508  1  0  -0.433192  0  2.820007  0  0  -0.387395  0  3.102676  0  0  -0.404201  0  3.110567  0  0  -0.336072  -0.376257  0  3.098123  0
N  N70  1  0.46372252  0.18532391  0.82326876  1  0  -0.447619  0  2.921616  0  0  -0.396742  0  3.232804  0  0  -0.413283  0  3.233464  0  0  -0.340023  -0.386178  0  3.232832  0
N  N71  1  0.53627633  0.81467468  0.17672895  1  0  -0.447585  0  2.921633  0  0  -0.39671  0  3.232809  0  0  -0.413251  0  3.233468  0  0  -0.34001  -0.386144  0  3.232837  0
O  O72  1  0.37796524  0.46286244  0.55491154  1  0  -0.624113  0  2.154982  0  0  -0.544432  0  2.44331  0  0  -0.577573  0  2.428822  0  0  -0.323386  -0.520094  0  2.452288  0
O  O73  1  0.62203569  0.53713615  0.44508735  1  0  -0.624069  0  2.154859  0  0  -0.544389  0  2.443192  0  0  -0.577528  0  2.428696  0  0  -0.323345  -0.520046  0  2.452155  0
O  O74  1  0.26025194  0.27244532  0.56719798  1  0  -0.604985  0  2.054782  0  0  -0.543887  0  2.324357  0  0  -0.575321  0  2.314821  0  0  -0.314406  -0.521584  0  2.330365  0
O  O75  1  0.73974701  0.72755430  0.43280273  1  0  -0.605054  0  2.054747  0  0  -0.543959  0  2.324337  0  0  -0.575388  0  2.314786  0  0  -0.314448  -0.521655  0  2.330343  0
O  O76  1  0.77305761  0.27587660  0.60221863  1  0  -0.595639  0  2.057652  0  0  -0.530836  0  2.322493  0  0  -0.563068  0  2.313992  0  0  -0.30838  -0.507729  0  2.327258  0
O  O77  1  0.22694368  0.72412613  0.39778687  1  0  -0.595612  0  2.057675  0  0  -0.53084  0  2.322476  0  0  -0.563064  0  2.313986  0  0  -0.308396  -0.507734  0  2.327237  0
O  O78  1  0.63556872  0.07509463  0.51849389  1  0  -0.625944  0  2.147791  0  0  -0.547636  0  2.43837  0  0  -0.580557  0  2.423789  0  0  -0.317936  -0.524006  0  2.446998  0
O  O79  1  0.36443286  0.92491222  0.48149839  1  0  -0.625921  0  2.147911  0  0  -0.547625  0  2.438426  0  0  -0.580538  0  2.423854  0  0  -0.317975  -0.523995  0  2.447051  0
F  F80  1  0.20745528  0.66375738  0.68286743  1  0  -0.167679  0  1.261435  0  0  -0.109022  0  1.425353  0  0  -0.118254  0  1.417436  0  0  -0.079778  -0.102395  0  1.430812  0
F  F81  1  0.79254564  0.33624121  0.31713056  1  0  -0.167689  0  1.261374  0  0  -0.109043  0  1.425302  0  0  -0.118275  0  1.417373  0  0  -0.079802  -0.102418  0  1.430755  0
F  F82  1  0.04107721  0.24094891  0.35291125  1  0  -0.169166  0  1.256874  0  0  -0.117332  0  1.426491  0  0  -0.12715  0  1.41919  0  0  -0.085399  -0.110205  0  1.431693  0
F  F83  1  0.95892284  0.75905175  0.64708539  1  0  -0.169197  0  1.256763  0  0  -0.117387  0  1.426396  0  0  -0.127203  0  1.419094  0  0  -0.085453  -0.11026  0  1.431601  0
F  F84  1  0.80543616  0.01093104  0.29848882  1  0  -0.175151  0  1.245526  0  0  -0.121139  0  1.413516  0  0  -0.129802  0  1.402927  0  0  -0.083356  -0.115099  0  1.421262  0
F  F85  1  0.19456210  0.98907271  0.70151115  1  0  -0.175121  0  1.24561  0  0  -0.121098  0  1.413587  0  0  -0.129764  0  1.402997  0  0  -0.08333  -0.115061  0  1.421332  0
F  F86  1  0.96555110  0.12214512  0.74782250  1  0  -0.180416  0  1.24257  0  0  -0.117468  0  1.402328  0  0  -0.126643  0  1.392882  0  0  -0.077552  -0.110952  0  1.408939  0
F  F87  1  0.03444605  0.87785760  0.25218063  1  0  -0.180336  0  1.242561  0  0  -0.117439  0  1.402354  0  0  -0.126618  0  1.392906  0  0  -0.077553  -0.110924  0  1.408965  0
