# generated using pymatgen
data_ZnPH15C14(NO)4
_symmetry_space_group_name_H-M   'P 1'
_cell_length_a   8.52909623
_cell_length_b   9.76647296
_cell_length_c   10.53150227
_cell_angle_alpha   82.47031900
_cell_angle_beta   74.78351771
_cell_angle_gamma   69.01405202
_symmetry_Int_Tables_number   1
_chemical_formula_structural   ZnPH15C14(NO)4
_chemical_formula_sum   'Zn2 P2 H30 C28 N8 O8'
_cell_volume   789.69088268
_cell_formula_units_Z   2
loop_
 _symmetry_equiv_pos_site_id
 _symmetry_equiv_pos_as_xyz
  1  'x, y, z'
loop_
 _atom_site_type_symbol
 _atom_site_label
 _atom_site_symmetry_multiplicity
 _atom_site_fract_x
 _atom_site_fract_y
 _atom_site_fract_z
 _atom_site_occupancy
 _atom_site_hle17_bader_spin_density
 _atom_site_hle17_ddec_charge
 _atom_site_hle17_ddec_spin_density
 _atom_site_hle17_ddec_sum_bond_order
 _atom_site_hle17_magmom
 _atom_site_hse06_10hf_bader_spin_density
 _atom_site_hse06_10hf_ddec_charge
 _atom_site_hse06_10hf_ddec_spin_density
 _atom_site_hse06_10hf_ddec_sum_bond_order
 _atom_site_hse06_10hf_magmom
 _atom_site_hse06_bader_spin_density
 _atom_site_hse06_ddec_charge
 _atom_site_hse06_ddec_spin_density
 _atom_site_hse06_ddec_sum_bond_order
 _atom_site_hse06_magmom
 _atom_site_pbe_bader_spin_density
 _atom_site_pbe_cm5_charge
 _atom_site_pbe_ddec_charge
 _atom_site_pbe_ddec_spin_density
 _atom_site_pbe_ddec_sum_bond_order
 _atom_site_pbe_magmom
Zn  Zn0  1  0.88252261  0.56611418  0.17303973  1  0  1.045737  0  1.944041  0  0  0.865699  0  2.426331  0  0  0.906136  0  2.372244  0  0  0.712823  0.837084  0  2.463906  0
Zn  Zn1  1  0.11748113  0.43388340  0.82696328  1  0  1.045658  0  1.944174  0  0  0.865612  0  2.426429  0  0  0.906052  0  2.372354  0  0  0.712813  0.837001  0  2.464009  0
P  P2  1  0.72352316  0.52844254  0.95497113  1  0  1.713191  0  4.967016  0  0  1.528559  0  5.495464  0  0  1.585362  0  5.442988  0  0  0.375741  1.488621  0  5.531265  0
P  P3  1  0.27647650  0.47155614  0.04503260  1  0  1.71312  0  4.967092  0  0  1.528516  0  5.495513  0  0  1.585339  0  5.442938  0  0  0.37575  1.488577  0  5.531324  0
H  H4  1  0.58552329  0.36828747  0.96072415  1  0  0.434521  0  0.880487  0  0  0.398522  0  0.951518  0  0  0.410833  0  0.934123  0  0  0.292179  0.389933  0  0.963619  0
H  H5  1  0.41447802  0.63171011  0.03927937  1  0  0.434553  0  0.880437  0  0  0.398553  0  0.951471  0  0  0.410862  0  0.934079  0  0  0.292201  0.389965  0  0.96357  0
H  H6  1  0.76544093  0.21649182  0.43745152  1  0  0.094054  0  0.957565  0  0  0.107259  0  1.012609  0  0  0.109901  0  1.011928  0  0  0.103632  0.105726  0  1.012581  0
H  H7  1  0.23456012  0.78351558  0.56254603  1  0  0.09403  0  0.957593  0  0  0.107201  0  1.012678  0  0  0.109868  0  1.011965  0  0  0.103588  0.105668  0  1.012651  0
H  H8  1  0.65257015  0.01889981  0.42617140  1  0  0.081617  0  0.969294  0  0  0.091372  0  1.034045  0  0  0.093745  0  1.033665  0  0  0.096285  0.090215  0  1.033287  0
H  H9  1  0.34742884  0.98110972  0.57382155  1  0  0.081602  0  0.969247  0  0  0.091363  0  1.03399  0  0  0.093735  0  1.033608  0  0  0.096282  0.090204  0  1.033232  0
H  H10  1  0.64744002  0.83023654  0.61181523  1  0  0.084379  0  0.966894  0  0  0.094645  0  1.029447  0  0  0.096971  0  1.029185  0  0  0.098597  0.093778  0  1.028396  0
H  H11  1  0.35255996  0.16976744  0.38817255  1  0  0.08428  0  0.966925  0  0  0.094536  0  1.029501  0  0  0.096858  0  1.029245  0  0  0.098567  0.093668  0  1.028449  0
H  H12  1  0.75545664  0.84109177  0.80346201  1  0  0.117737  0  0.959107  0  0  0.124883  0  1.022478  0  0  0.127933  0  1.02133  0  0  0.108549  0.122735  0  1.023352  0
H  H13  1  0.24454465  0.15890892  0.19652687  1  0  0.117754  0  0.959108  0  0  0.124895  0  1.022501  0  0  0.127945  0  1.021353  0  0  0.108559  0.122747  0  1.023374  0
H  H14  1  0.03529905  0.00168314  0.82029544  1  0  0.08441  0  0.919818  0  0  0.09965  0  0.982436  0  0  0.099848  0  0.983519  0  0  0.114604  0.099507  0  0.981336  0
H  H15  1  0.96469698  0.99831549  0.17970433  1  0  0.084441  0  0.919755  0  0  0.099692  0  0.982351  0  0  0.09989  0  0.983433  0  0  0.114668  0.099548  0  0.981255  0
H  H16  1  0.85185548  0.15666268  0.87557401  1  0  0.103433  0  0.963194  0  0  0.115193  0  1.027845  0  0  0.116866  0  1.026523  0  0  0.119885  0.113819  0  1.029195  0
H  H17  1  0.14813977  0.84333486  0.12442701  1  0  0.103523  0  0.963103  0  0  0.115243  0  1.027781  0  0  0.116913  0  1.026465  0  0  0.119927  0.11387  0  1.029131  0
H  H18  1  0.04345601  0.74651677  0.93547466  1  0  0.117445  0  0.954373  0  0  0.126379  0  1.01457  0  0  0.129778  0  1.010492  0  0  0.139365  0.123809  0  1.01744  0
H  H19  1  0.95654567  0.25348293  0.06452281  1  0  0.117485  0  0.954348  0  0  0.126427  0  1.014547  0  0  0.129828  0  1.010467  0  0  0.139387  0.123857  0  1.017418  0
H  H20  1  0.59076122  0.88684513  0.23839111  1  0  0.095722  0  0.977272  0  0  0.106681  0  1.03681  0  0  0.108354  0  1.037527  0  0  0.112143  0.105529  0  1.036238  0
H  H21  1  0.40924679  0.11314475  0.76161105  1  0  0.09565  0  0.977337  0  0  0.106625  0  1.036851  0  0  0.108297  0  1.037568  0  0  0.112111  0.105473  0  1.036277  0
H  H22  1  0.59654499  0.12114302  0.05729444  1  0  0.154836  0  0.974363  0  0  0.160685  0  1.035312  0  0  0.164721  0  1.032553  0  0  0.125958  0.157604  0  1.037663  0
H  H23  1  0.40345165  0.87884795  0.94270810  1  0  0.154876  0  0.97438  0  0  0.160689  0  1.035348  0  0  0.164758  0  1.03254  0  0  0.125952  0.157609  0  1.037701  0
H  H24  1  0.03794774  0.22151987  0.60615928  1  0  0.086221  0  0.930218  0  0  0.100547  0  0.995937  0  0  0.10089  0  0.996756  0  0  0.111827  0.099997  0  0.995627  0
H  H25  1  0.96205017  0.77848320  0.39384425  1  0  0.086211  0  0.930142  0  0  0.100575  0  0.995863  0  0  0.100884  0  0.996695  0  0  0.111834  0.100022  0  0.995557  0
H  H26  1  0.85562645  0.30207059  0.73497569  1  0  0.115045  0  0.981244  0  0  0.125309  0  1.044805  0  0  0.127401  0  1.043058  0  0  0.121715  0.12365  0  1.04649  0
H  H27  1  0.14437243  0.69792698  0.26502740  1  0  0.115047  0  0.981209  0  0  0.125334  0  1.044782  0  0  0.127417  0  1.043022  0  0  0.12172  0.123674  0  1.04647  0
H  H28  1  0.03363372  0.33639087  0.36952352  1  0  0.105481  0  0.962145  0  0  0.11164  0  1.033117  0  0  0.113893  0  1.03097  0  0  0.1357  0.110206  0  1.034046  0
H  H29  1  0.96636332  0.66361441  0.63048085  1  0  0.105438  0  0.962128  0  0  0.111591  0  1.033117  0  0  0.11384  0  1.030975  0  0  0.135691  0.110158  0  1.034042  0
H  H30  1  0.56868693  0.69515094  0.45173058  1  0  0.09521  0  0.979615  0  0  0.105879  0  1.040047  0  0  0.107786  0  1.040336  0  0  0.11243  0.104397  0  1.040047  0
H  H31  1  0.43130942  0.30484995  0.54827452  1  0  0.095243  0  0.979606  0  0  0.105937  0  1.040013  0  0  0.107844  0  1.040301  0  0  0.112436  0.104454  0  1.040015  0
H  H32  1  0.60099216  0.51643359  0.68083564  1  0  0.145071  0  0.927164  0  0  0.154916  0  0.981619  0  0  0.158727  0  0.97878  0  0  0.135947  0.151785  0  0.984202  0
H  H33  1  0.39900618  0.48356840  0.31916983  1  0  0.145053  0  0.927203  0  0  0.154882  0  0.981678  0  0  0.158692  0  0.978842  0  0  0.135938  0.151752  0  0.98426  0
C  C34  1  0.82247521  0.03596582  0.73096052  1  0  0.037461  0  3.688634  0  0  0.05285  0  3.925588  0  0  0.051478  0  3.950158  0  0  -0.006477  0.053703  0  3.909166  0
C  C35  1  0.17752318  0.96403604  0.26903451  1  0  0.037508  0  3.688506  0  0  0.052862  0  3.925498  0  0  0.05149  0  3.950072  0  0  -0.006544  0.053714  0  3.909078  0
C  C36  1  0.82484254  0.14297135  0.62713268  1  0  0.039592  0  3.688286  0  0  0.055119  0  3.926255  0  0  0.053856  0  3.951131  0  0  -0.005658  0.055705  0  3.909628  0
C  C37  1  0.17516025  0.85703168  0.37286697  1  0  0.039622  0  3.68819  0  0  0.055203  0  3.926155  0  0  0.053923  0  3.951021  0  0  -0.005588  0.055789  0  3.909528  0
C  C38  1  0.76377894  0.13453898  0.51835061  1  0  -0.130077  0  3.781794  0  0  -0.151233  0  4.033164  0  0  -0.153919  0  4.055423  0  0  -0.099143  -0.149386  0  4.017618  0
C  C39  1  0.23622422  0.86546619  0.48164394  1  0  -0.130146  0  3.781958  0  0  -0.151283  0  4.033307  0  0  -0.153989  0  4.055562  0  0  -0.099123  -0.149437  0  4.017764  0
C  C40  1  0.69987410  0.02314376  0.51179094  1  0  -0.088296  0  3.820667  0  0  -0.101348  0  4.07454  0  0  -0.103176  0  4.095757  0  0  -0.100898  -0.099931  0  4.05955  0
C  C41  1  0.30012532  0.97686470  0.48820397  1  0  -0.088157  0  3.820528  0  0  -0.101207  0  4.074387  0  0  -0.103035  0  4.095613  0  0  -0.100831  -0.099789  0  4.059397  0
C  C42  1  0.69695531  0.91803598  0.61501612  1  0  -0.085668  0  3.810349  0  0  -0.098796  0  4.063079  0  0  -0.100673  0  4.08414  0  0  -0.099012  -0.097719  0  4.04838  0
C  C43  1  0.30304058  0.08196910  0.38497333  1  0  -0.085519  0  3.810306  0  0  -0.098626  0  4.063014  0  0  -0.100504  0  4.084075  0  0  -0.098967  -0.097549  0  4.048314  0
C  C44  1  0.75839101  0.92447483  0.72382641  1  0  -0.116072  0  3.727887  0  0  -0.135747  0  3.976211  0  0  -0.13842  0  3.997573  0  0  -0.08979  -0.13427  0  3.962241  0
C  C45  1  0.24161026  0.07552588  0.27616437  1  0  -0.11625  0  3.72804  0  0  -0.135929  0  3.976376  0  0  -0.138599  0  3.997732  0  0  -0.089874  -0.134451  0  3.962406  0
C  C46  1  0.89293908  0.04267103  0.84693781  1  0  -0.049765  0  3.64978  0  0  -0.114642  0  3.896145  0  0  -0.110887  0  3.907153  0  0  -0.045491  -0.117031  0  3.888945  0
C  C47  1  0.10705739  0.95732650  0.15306201  1  0  -0.049879  0  3.649689  0  0  -0.114727  0  3.896093  0  0  -0.110974  0  3.907102  0  0  -0.045538  -0.117117  0  3.888895  0
C  C48  1  0.92211077  0.81650930  0.99401309  1  0  0.174417  0  3.624104  0  0  0.111021  0  3.894276  0  0  0.125347  0  3.904839  0  0  0.151263  0.101555  0  3.886878  0
C  C49  1  0.07789179  0.18348821  0.00598448  1  0  0.174329  0  3.624053  0  0  0.110885  0  3.894275  0  0  0.12521  0  3.904838  0  0  0.1512  0.101417  0  3.886877  0
C  C50  1  0.68729072  0.89332133  0.14962907  1  0  -0.007201  0  3.766935  0  0  -0.039492  0  4.03281  0  0  -0.037922  0  4.052649  0  0  -0.006767  -0.040777  0  4.019609  0
C  C51  1  0.31271520  0.10667073  0.85037230  1  0  -0.007032  0  3.767026  0  0  -0.039335  0  4.032857  0  0  -0.037761  0  4.052705  0  0  -0.00669  -0.04062  0  4.019657  0
C  C52  1  0.68774555  0.00971093  0.06105443  1  0  -0.063763  0  3.617229  0  0  -0.104268  0  3.873906  0  0  -0.103204  0  3.892125  0  0  0.005705  -0.105173  0  3.862188  0
C  C53  1  0.31225386  0.99028223  0.93894722  1  0  -0.063934  0  3.617172  0  0  -0.104408  0  3.873864  0  0  -0.103366  0  3.892052  0  0  0.005666  -0.105313  0  3.862143  0
C  C54  1  0.89599938  0.26286499  0.63449333  1  0  -0.063348  0  3.64027  0  0  -0.128451  0  3.886007  0  0  -0.124828  0  3.896818  0  0  -0.052068  -0.130888  0  3.87936  0
C  C55  1  0.10400020  0.73713696  0.36550809  1  0  -0.063299  0  3.640213  0  0  -0.128508  0  3.886017  0  0  -0.124807  0  3.896748  0  0  -0.052137  -0.130944  0  3.87937  0
C  C56  1  0.91134149  0.41022147  0.42180185  1  0  0.161328  0  3.64453  0  0  0.098479  0  3.911705  0  0  0.112353  0  3.923763  0  0  0.142877  0.089335  0  3.902785  0
C  C57  1  0.08865807  0.58978052  0.57820336  1  0  0.161494  0  3.644637  0  0  0.098633  0  3.911819  0  0  0.112505  0  3.923887  0  0  0.142878  0.089492  0  3.902894  0
C  C58  1  0.67037699  0.59452480  0.46872664  1  0  -0.012747  0  3.77178  0  0  -0.043888  0  4.03636  0  0  -0.043029  0  4.057306  0  0  -0.005388  -0.044889  0  4.022535  0
C  C59  1  0.32962257  0.40547719  0.53127858  1  0  -0.012794  0  3.771732  0  0  -0.043941  0  4.036306  0  0  -0.043079  0  4.057249  0  0  -0.005393  -0.044941  0  4.02248  0
C  C60  1  0.68257697  0.50728904  0.58184259  1  0  -0.048723  0  3.626892  0  0  -0.090085  0  3.884707  0  0  -0.088686  0  3.902974  0  0  0.011741  -0.091096  0  3.872831  0
C  C61  1  0.31742250  0.49271624  0.41816222  1  0  -0.048796  0  3.627063  0  0  -0.090183  0  3.884916  0  0  -0.088783  0  3.903183  0  0  0.011668  -0.091197  0  3.873041  0
N  N62  1  0.83781475  0.95860981  0.96380721  1  0  -0.057395  0  3.581908  0  0  0.03524  0  3.803741  0  0  0.020777  0  3.829828  0  0  -0.243387  0.044836  0  3.785885  0
N  N63  1  0.16218095  0.04138661  0.03619196  1  0  -0.057328  0  3.581775  0  0  0.035342  0  3.803553  0  0  0.020881  0  3.829641  0  0  -0.243386  0.04494  0  3.785696  0
N  N64  1  0.83381504  0.77428997  0.10718231  1  0  -0.404011  0  3.346207  0  0  -0.324537  0  3.656067  0  0  -0.343529  0  3.66591  0  0  -0.366671  -0.311507  0  3.649539  0
N  N65  1  0.16619246  0.22570425  0.89281464  1  0  -0.403958  0  3.346337  0  0  -0.32446  0  3.656179  0  0  -0.343457  0  3.666032  0  0  -0.366625  -0.311428  0  3.649644  0
N  N66  1  0.83576037  0.39120085  0.54966174  1  0  -0.045963  0  3.584063  0  0  0.046965  0  3.803589  0  0  0.032312  0  3.830323  0  0  -0.238049  0.056687  0  3.785265  0
N  N67  1  0.16423753  0.60880225  0.45034368  1  0  -0.0461  0  3.584364  0  0  0.046916  0  3.803861  0  0  0.032246  0  3.830577  0  0  -0.237989  0.056638  0  3.785535  0
N  N68  1  0.81380430  0.53294878  0.36983802  1  0  -0.383191  0  3.301212  0  0  -0.304503  0  3.602713  0  0  -0.322772  0  3.613236  0  0  -0.363038  -0.291694  0  3.595568  0
N  N69  1  0.18619561  0.46705540  0.63016589  1  0  -0.383096  0  3.301172  0  0  -0.304422  0  3.602688  0  0  -0.322697  0  3.613218  0  0  -0.362993  -0.291615  0  3.595542  0
O  O70  1  0.55979370  0.66392460  0.96457622  1  0  -0.878047  0  1.895508  0  0  -0.800707  0  2.130629  0  0  -0.825853  0  2.108085  0  0  -0.395354  -0.782692  0  2.145893  0
O  O71  1  0.44020596  0.33607405  0.03542561  1  0  -0.87801  0  1.895577  0  0  -0.800694  0  2.130705  0  0  -0.825829  0  2.108145  0  0  -0.395378  -0.78268  0  2.14597  0
O  O72  1  0.76855237  0.47400998  0.09087411  1  0  -0.915437  0  1.973777  0  0  -0.818673  0  2.261701  0  0  -0.845793  0  2.232936  0  0  -0.408966  -0.798927  0  2.280645  0
O  O73  1  0.23144850  0.52598870  0.90912937  1  0  -0.915401  0  1.973749  0  0  -0.818632  0  2.261675  0  0  -0.845755  0  2.232906  0  0  -0.408951  -0.79889  0  2.280621  0
O  O74  1  0.69726810  0.39361871  0.90315917  1  0  -0.828112  0  2.015332  0  0  -0.746154  0  2.243662  0  0  -0.769972  0  2.218255  0  0  -0.40215  -0.729083  0  2.261512  0
O  O75  1  0.30273199  0.60637889  0.09684556  1  0  -0.828115  0  2.015301  0  0  -0.746195  0  2.243686  0  0  -0.770003  0  2.218256  0  0  -0.40219  -0.729111  0  2.261499  0
O  O76  1  0.87516336  0.55902906  0.85238731  1  0  -0.9091  0  1.990194  0  0  -0.814963  0  2.294514  0  0  -0.842602  0  2.267753  0  0  -0.400649  -0.795154  0  2.311962  0
O  O77  1  0.12483969  0.44096415  0.14761737  1  0  -0.909092  0  1.990109  0  0  -0.814968  0  2.294436  0  0  -0.842641  0  2.267741  0  0  -0.400645  -0.795152  0  2.311867  0
