# generated using pymatgen
data_CdH10C12(NO)4
_symmetry_space_group_name_H-M   'P 1'
_cell_length_a   12.73169570
_cell_length_b   13.48110314
_cell_length_c   14.19007866
_cell_angle_alpha   77.77014856
_cell_angle_beta   63.33907827
_cell_angle_gamma   61.81611100
_symmetry_Int_Tables_number   1
_chemical_formula_structural   CdH10C12(NO)4
_chemical_formula_sum   'Cd4 H40 C48 N16 O16'
_cell_volume   1918.52869927
_cell_formula_units_Z   4
loop_
 _symmetry_equiv_pos_site_id
 _symmetry_equiv_pos_as_xyz
  1  'x, y, z'
loop_
 _atom_site_type_symbol
 _atom_site_label
 _atom_site_symmetry_multiplicity
 _atom_site_fract_x
 _atom_site_fract_y
 _atom_site_fract_z
 _atom_site_occupancy
 _atom_site_pbe_bader_charge
 _atom_site_pbe_bader_spin_density
 _atom_site_pbe_cm5_charge
 _atom_site_pbe_ddec_charge
 _atom_site_pbe_ddec_spin_density
 _atom_site_pbe_ddec_sum_bond_order
 _atom_site_pbe_magmom
Cd  Cd0  1  0.16149681  0.67703298  0.25001557  1  1.212584  0  0.771582  0.808722  0  2.246995  0
Cd  Cd1  1  0.58861683  0.82293594  0.24994898  1  1.214143  0  0.771688  0.808675  0  2.248314  0
Cd  Cd2  1  0.83850456  0.32296623  0.74998396  1  1.21261  0  0.771577  0.808705  0  2.246992  0
Cd  Cd3  1  0.41138761  0.17706243  0.75004881  1  1.214259  0  0.771681  0.808656  0  2.248338  0
H  H4  1  0.47330473  0.35525271  0.96895065  1  0.152395  0  0.102616  0.123834  0  1.052806  0
H  H5  1  0.55790475  0.14471905  0.96904400  1  0.136699  0  0.102365  0.124387  0  1.051437  0
H  H6  1  0.29739516  0.14472960  0.53096617  1  0.131143  0  0.103214  0.12489  0  1.051971  0
H  H7  1  0.17168238  0.35519417  0.53101282  1  0.131261  0  0.10248  0.123243  0  1.053067  0
H  H8  1  0.52669260  0.64474903  0.03104813  1  0.152354  0  0.102608  0.123803  0  1.052841  0
H  H9  1  0.44209354  0.85528437  0.03096084  1  0.13668  0  0.1024  0.124451  0  1.051432  0
H  H10  1  0.70260576  0.85527130  0.46903123  1  0.131589  0  0.103215  0.124884  0  1.051936  0
H  H11  1  0.82831320  0.64480757  0.46898594  1  0.131318  0  0.102483  0.123295  0  1.05302  0
H  H12  1  0.39527214  0.48782719  0.11118022  1  0.075104  0  0.113116  0.080814  0  0.993609  0
H  H13  1  0.49363375  0.01224291  0.11131330  1  0.081363  0  0.113542  0.081343  0  0.993139  0
H  H14  1  0.49420670  0.01223926  0.38863699  1  0.074436  0  0.113382  0.081625  0  0.992092  0
H  H15  1  0.11701699  0.48779556  0.38886414  1  0.077377  0  0.113891  0.081806  0  0.992005  0
H  H16  1  0.60472696  0.51217203  0.88881892  1  0.07507  0  0.113116  0.080811  0  0.993645  0
H  H17  1  0.50636704  0.98775631  0.88868942  1  0.081328  0  0.113535  0.081314  0  0.993142  0
H  H18  1  0.50579538  0.98775995  0.61136184  1  0.074469  0  0.113372  0.08163  0  0.992079  0
H  H19  1  0.88298341  0.51220534  0.61113290  1  0.077651  0  0.113912  0.08186  0  0.99198  0
H  H20  1  0.07017547  0.46146452  0.03366734  1  0.09423  0  0.110876  0.130383  0  1.016812  0
H  H21  1  0.89627046  0.03860601  0.03376536  1  0.093027  0  0.109871  0.128684  0  1.020212  0
H  H22  1  0.06520342  0.03853408  0.46627830  1  0.105346  0  0.110756  0.130221  0  1.017527  0
H  H23  1  0.46869994  0.46126633  0.46618417  1  0.091701  0  0.110916  0.130587  0  1.015733  0
H  H24  1  0.92982105  0.53853806  0.96633356  1  0.09445  0  0.110877  0.130393  0  1.01687  0
H  H25  1  0.10373175  0.96139320  0.96623595  1  0.093507  0  0.10989  0.128708  0  1.020226  0
H  H26  1  0.93479866  0.96146514  0.53372052  1  0.105164  0  0.110743  0.130227  0  1.017537  0
H  H27  1  0.53129661  0.53873372  0.53381707  1  0.09149  0  0.110946  0.130673  0  1.015699  0
H  H28  1  0.95337120  0.65163371  0.24653434  1  0.467764  0  0.304276  0.308603  0  0.974396  0
H  H29  1  0.80015291  0.84839473  0.24656448  1  0.458264  0  0.304796  0.309615  0  0.972397  0
H  H30  1  0.35155247  0.84837455  0.25338287  1  0.464586  0  0.304686  0.309042  0  0.973436  0
H  H31  1  0.39501884  0.65156368  0.25348160  1  0.456862  0  0.304541  0.309116  0  0.974376  0
H  H32  1  0.04662832  0.34836635  0.75346659  1  0.467301  0  0.304286  0.308611  0  0.974389  0
H  H33  1  0.19984940  0.15160364  0.75343541  1  0.458363  0  0.304786  0.309625  0  0.972383  0
H  H34  1  0.64844754  0.15162635  0.74661629  1  0.46461  0  0.304663  0.308995  0  0.973489  0
H  H35  1  0.60497894  0.34843806  0.74652110  1  0.456834  0  0.30456  0.309092  0  0.974456  0
H  H36  1  0.90881685  0.61181162  0.16643189  1  0.527033  0  0.300804  0.329517  0  0.980453  0
H  H37  1  0.92489034  0.88815046  0.16646802  1  0.526534  0  0.3011  0.330277  0  0.979924  0
H  H38  1  0.18703709  0.88815018  0.33351315  1  0.525377  0  0.300472  0.329164  0  0.981031  0
H  H39  1  0.47949218  0.61174668  0.33350701  1  0.529462  0  0.300657  0.329896  0  0.979385  0
H  H40  1  0.09118012  0.38818928  0.83357114  1  0.527123  0  0.30081  0.329532  0  0.980396  0
H  H41  1  0.07511148  0.11184708  0.83353363  1  0.526268  0  0.301148  0.330345  0  0.979807  0
H  H42  1  0.81296386  0.11184987  0.66648637  1  0.525781  0  0.300488  0.329159  0  0.981053  0
H  H43  1  0.52050676  0.38825338  0.66649711  1  0.529511  0  0.300667  0.329876  0  0.979362  0
C  C44  1  0.31475565  0.32505331  0.90609662  1  1.568723  0  0.201281  0.568679  0  4.187267  0
C  C45  1  0.77927634  0.17496532  0.90616656  1  1.56756  0  0.201446  0.568966  0  4.184034  0
C  C46  1  0.04584793  0.17490714  0.59391890  1  1.553658  0  0.20342  0.570368  0  4.181483  0
C  C47  1  0.36035033  0.32493106  0.59385090  1  1.555755  0  0.200647  0.568351  0  4.182843  0
C  C48  1  0.68524362  0.67494843  0.09390112  1  1.568653  0  0.201263  0.568633  0  4.187517  0
C  C49  1  0.22072237  0.82503558  0.09383649  1  1.567473  0  0.201456  0.568936  0  4.18407  0
C  C50  1  0.95415312  0.82509376  0.40608099  1  1.553834  0  0.2034  0.570284  0  4.181593  0
C  C51  1  0.63965146  0.67506563  0.40614685  1  1.555745  0  0.200696  0.568474  0  4.182839  0
C  C52  1  0.27483489  0.40207882  0.99050702  1  0.010826  0  -0.001295  0.035934  0  3.99258  0
C  C53  1  0.73477752  0.09798231  0.99062206  1  -0.100528  0  -0.001967  0.037149  0  3.990342  0
C  C54  1  0.16731246  0.09793399  0.50941721  1  -0.086711  0  -0.00042  0.039279  0  3.990427  0
C  C55  1  0.32344057  0.40186422  0.50934615  1  -0.068732  0  -0.001924  0.035997  0  3.993863  0
C  C56  1  0.72516089  0.59792460  0.00949246  1  0.010612  0  -0.001227  0.035995  0  3.992707  0
C  C57  1  0.26522281  0.90202028  0.00938032  1  -0.100607  0  -0.001958  0.037218  0  3.990315  0
C  C58  1  0.83268869  0.90206606  0.49058125  1  -0.086746  0  -0.000391  0.039344  0  3.990483  0
C  C59  1  0.67655773  0.59813416  0.49065334  1  -0.068778  0  -0.001967  0.035995  0  3.994002  0
C  C60  1  0.36991241  0.40707375  0.01237368  1  0.010644  0  -0.106654  -0.198725  0  3.991297  0
C  C61  1  0.61779635  0.09298741  0.01252033  1  0.020791  0  -0.106711  -0.201808  0  3.992666  0
C  C62  1  0.28926610  0.09296266  0.48749499  1  0.000992  0  -0.108282  -0.202219  0  3.995436  0
C  C63  1  0.22328880  0.40694728  0.48753162  1  0.039503  0  -0.107358  -0.199146  0  3.994848  0
C  C64  1  0.63008501  0.59292884  0.98762546  1  0.010815  0  -0.106661  -0.198667  0  3.991264  0
C  C65  1  0.38220175  0.90701433  0.98748378  1  0.020823  0  -0.106761  -0.201947  0  3.992689  0
C  C66  1  0.71073637  0.90703824  0.51250350  1  0.000567  0  -0.10829  -0.202178  0  3.9954  0
C  C67  1  0.77670908  0.59305194  0.51246786  1  0.039481  0  -0.107381  -0.199221  0  3.994899  0
C  C68  1  0.32649809  0.47960549  0.09094964  1  0.40593  0  0.03243  0.099607  0  4.01921  0
C  C69  1  0.58261994  0.02048060  0.09108394  1  0.41186  0  0.033485  0.101656  0  4.017852  0
C  C70  1  0.39696995  0.02046580  0.40889721  1  0.455367  0  0.033276  0.100155  0  4.018997  0
C  C71  1  0.19408864  0.47951263  0.40900953  1  0.406071  0  0.033317  0.099669  0  4.017993  0
C  C72  1  0.67350069  0.52039541  0.90904986  1  0.405912  0  0.032419  0.099546  0  4.019272  0
C  C73  1  0.41738091  0.97952030  0.90891701  1  0.411885  0  0.033507  0.101713  0  4.017636  0
C  C74  1  0.60303213  0.97953342  0.59110161  1  0.455092  0  0.033306  0.100145  0  4.018957  0
C  C75  1  0.80591063  0.52048911  0.59098821  1  0.405821  0  0.033331  0.09967  0  4.017957  0
C  C76  1  0.10647302  0.53898570  0.12861929  1  0.997633  0  0.231209  0.461641  0  4.084868  0
C  C77  1  0.76500134  0.96106910  0.12871920  1  1.030403  0  0.231591  0.46116  0  4.082436  0
C  C78  1  0.27400332  0.96105405  0.37127615  1  1.012895  0  0.232123  0.463725  0  4.082969  0
C  C79  1  0.35481419  0.53880207  0.37126757  1  1.051396  0  0.231051  0.460821  0  4.084334  0
C  C80  1  0.89352476  0.46101435  0.87138162  1  0.998125  0  0.231232  0.461667  0  4.08481  0
C  C81  1  0.23500091  0.03892759  0.87128245  1  1.030626  0  0.231602  0.461188  0  4.082376  0
C  C82  1  0.72599740  0.03894685  0.62872232  1  1.012889  0  0.232158  0.463776  0  4.083068  0
C  C83  1  0.64518518  0.46119546  0.62873476  1  1.051544  0  0.231155  0.460904  0  4.084289  0
C  C84  1  0.14405971  0.46715019  0.04821705  1  -0.039313  0  -0.088975  -0.243129  0  3.870951  0
C  C85  1  0.80783180  0.03292047  0.04832781  1  0.070046  0  -0.086507  -0.240471  0  3.86995  0
C  C86  1  0.15931691  0.03288805  0.45169936  1  0.035818  0  -0.088612  -0.244681  0  3.868877  0
C  C87  1  0.38917016  0.46690213  0.45160442  1  -0.00259  0  -0.088384  -0.243188  0  3.867882  0
C  C88  1  0.85593606  0.53285323  0.95178243  1  -0.039469  0  -0.088975  -0.243175  0  3.871073  0
C  C89  1  0.19217018  0.96707958  0.95167245  1  0.07003  0  -0.08659  -0.240579  0  3.870096  0
C  C90  1  0.84068310  0.96711285  0.54829980  1  0.035838  0  -0.088638  -0.244787  0  3.868977  0
C  C91  1  0.61083017  0.53309709  0.54839438  1  -0.002559  0  -0.088461  -0.243399  0  3.868007  0
N  N92  1  0.19897564  0.54477896  0.14740336  1  -1.233379  0  -0.354653  -0.365769  0  3.475314  0
N  N93  1  0.65370457  0.95528996  0.14751671  1  -1.260872  0  -0.356203  -0.366886  0  3.473402  0
N  N94  1  0.39109973  0.95527608  0.35245376  1  -1.254578  0  -0.354447  -0.3652  0  3.47371  0
N  N95  1  0.25644114  0.54465681  0.35253857  1  -1.248325  0  -0.354268  -0.363463  0  3.472225  0
N  N96  1  0.80102050  0.45522194  0.85259789  1  -1.23339  0  -0.354645  -0.365706  0  3.475317  0
N  N97  1  0.34629896  0.04470841  0.85248284  1  -1.26089  0  -0.356197  -0.366882  0  3.473255  0
N  N98  1  0.60890278  0.04472230  0.64754507  1  -1.254328  0  -0.35446  -0.365206  0  3.473754  0
N  N99  1  0.74355664  0.45534324  0.64746233  1  -1.248446  0  -0.354291  -0.363502  0  3.472198  0
N  N100  1  0.97951656  0.60048027  0.18899069  1  -1.299899  0  -0.578649  -0.634526  0  3.320951  0
N  N101  1  0.83161039  0.89951490  0.18902724  1  -1.300785  0  -0.579832  -0.636135  0  3.318361  0
N  N102  1  0.26896512  0.89949347  0.31095064  1  -1.292618  0  -0.580622  -0.636941  0  3.320664  0
N  N103  1  0.42018122  0.60035261  0.31092916  1  -1.287683  0  -0.579267  -0.63653  0  3.321667  0
N  N104  1  0.02048145  0.39951894  0.81101127  1  -1.299803  0  -0.578679  -0.634567  0  3.320872  0
N  N105  1  0.16839431  0.10048010  0.81097195  1  -1.30085  0  -0.579858  -0.6362  0  3.318223  0
N  N106  1  0.73103547  0.10050911  0.68904713  1  -1.293037  0  -0.580623  -0.636896  0  3.320722  0
N  N107  1  0.57981937  0.39964492  0.68907283  1  -1.287741  0  -0.579314  -0.636442  0  3.32161  0
O  O108  1  0.23008303  0.33170555  0.87803508  1  -1.174071  0  -0.322405  -0.554018  0  2.189793  0
O  O109  1  0.89206498  0.16823553  0.87800204  1  -1.175877  0  -0.324071  -0.556548  0  2.190607  0
O  O110  1  0.93973053  0.16827907  0.62206118  1  -1.17403  0  -0.324883  -0.556026  0  2.188142  0
O  O111  1  0.43820803  0.33163182  0.62207466  1  -1.169886  0  -0.322212  -0.554524  0  2.18794  0
O  O112  1  0.76991310  0.66829535  0.12196617  1  -1.17405  0  -0.322417  -0.553993  0  2.18988  0
O  O113  1  0.10793403  0.83176621  0.12200031  1  -1.175876  0  -0.324063  -0.55652  0  2.190702  0
O  O114  1  0.06026978  0.83172267  0.37793729  1  -1.174272  0  -0.324888  -0.555998  0  2.188169  0
O  O115  1  0.56179454  0.66836655  0.37792062  1  -1.169903  0  -0.32227  -0.55462  0  2.18788  0
O  O116  1  0.43514762  0.25398754  0.86579637  1  -1.169751  0  -0.32983  -0.547201  0  2.209486  0
O  O117  1  0.69913732  0.24606226  0.86593484  1  -1.166154  0  -0.328989  -0.546059  0  2.207213  0
O  O118  1  0.05492570  0.24593322  0.63420380  1  -1.15876  0  -0.329913  -0.547724  0  2.206213  0
O  O119  1  0.31097863  0.25391336  0.63411189  1  -1.16818  0  -0.329567  -0.546657  0  2.207066  0
O  O120  1  0.56485162  0.74601672  0.13420103  1  -1.169696  0  -0.329865  -0.547233  0  2.209564  0
O  O121  1  0.30086250  0.75393864  0.13406539  1  -1.166059  0  -0.328992  -0.546054  0  2.207266  0
O  O122  1  0.94507670  0.75406600  0.36579645  1  -1.158696  0  -0.329906  -0.547716  0  2.206246  0
O  O123  1  0.68902235  0.74608417  0.36588798  1  -1.168138  0  -0.329527  -0.546675  0  2.207172  0
