# generated using pymatgen
data_CdSiH28C20(N4F3)2
_symmetry_space_group_name_H-M   'P 1'
_cell_length_a   10.35817422
_cell_length_b   10.35813498
_cell_length_c   15.73099965
_cell_angle_alpha   89.37339410
_cell_angle_beta   89.37377457
_cell_angle_gamma   96.60490500
_symmetry_Int_Tables_number   1
_chemical_formula_structural   CdSiH28C20(N4F3)2
_chemical_formula_sum   'Cd2 Si2 H56 C40 N16 F12'
_cell_volume   1676.37193012
_cell_formula_units_Z   2
loop_
 _symmetry_equiv_pos_site_id
 _symmetry_equiv_pos_as_xyz
  1  'x, y, z'
loop_
 _atom_site_type_symbol
 _atom_site_label
 _atom_site_symmetry_multiplicity
 _atom_site_fract_x
 _atom_site_fract_y
 _atom_site_fract_z
 _atom_site_occupancy
 _atom_site_pbe_bader_charge
 _atom_site_pbe_bader_spin_density
 _atom_site_pbe_cm5_charge
 _atom_site_pbe_ddec_charge
 _atom_site_pbe_ddec_spin_density
 _atom_site_pbe_ddec_sum_bond_order
 _atom_site_pbe_magmom
Cd  Cd0  1  0.98561075  0.01438182  0.75000013  1  1.296013  0  0.829561  0.849433  0  2.270518  0
Cd  Cd1  1  0.01438274  0.98562366  0.24999966  1  1.296206  0  0.829574  0.849403  0  2.270413  0
Si  Si2  1  0.00000248  0.00000252  0.99999912  1  3.2396  0  0.272393  1.698298  0  3.969164  0
Si  Si3  1  0.00000117  0.00000076  0.50000083  1  3.239598  0  0.272401  1.698353  0  3.969099  0
H  H4  1  0.08920748  0.82076496  0.89213084  1  0.552443  0  0.309594  0.274972  0  1.003888  0
H  H5  1  0.09037461  0.22326659  0.60446964  1  0.560339  0  0.310189  0.28076  0  0.997352  0
H  H6  1  0.81167844  0.75160682  0.65802252  1  0.062464  0  0.09645  0.144214  0  0.993329  0
H  H7  1  0.83901697  0.58638670  0.64121502  1  0.04063  0  0.090982  0.128351  0  1.00041  0
H  H8  1  0.94382502  0.71659461  0.59414757  1  0.077377  0  0.092943  0.142179  0  1.02251  0
H  H9  1  0.25796925  0.63686425  0.91900666  1  0.058161  0  0.097984  0.136065  0  1.004999  0
H  H10  1  0.20228263  0.48247675  0.87535538  1  0.062394  0  0.101143  0.144033  0  0.990234  0
H  H11  1  0.11429950  0.54686421  0.95936035  1  0.055462  0  0.0996  0.13936  0  0.995058  0
H  H12  1  0.83948157  0.23630597  0.85655709  1  0.059608  0  0.09578  0.143604  0  1.00393  0
H  H13  1  0.87197791  0.40781146  0.87181248  1  0.011275  0  0.091253  0.128255  0  1.002668  0
H  H14  1  0.98296210  0.30008288  0.90719095  1  0.070912  0  0.096794  0.144161  0  1.002778  0
H  H15  1  0.08720774  0.51273774  0.53084395  1  0.061167  0  0.096775  0.133741  0  1.01796  0
H  H16  1  0.23538011  0.45293735  0.55734865  1  0.035482  0  0.102494  0.143608  0  0.976208  0
H  H17  1  0.18759253  0.59361916  0.60840220  1  0.064351  0  0.09878  0.139954  0  1.008538  0
H  H18  1  0.17923350  0.91077728  0.60787269  1  0.552689  0  0.309669  0.275119  0  1.003782  0
H  H19  1  0.77673235  0.90962968  0.89553322  1  0.560356  0  0.310165  0.280761  0  0.997325  0
H  H20  1  0.24839084  0.18831194  0.84197573  1  0.062534  0  0.096416  0.144116  0  0.993506  0
H  H21  1  0.41360963  0.16097499  0.85878302  1  0.040241  0  0.090935  0.128275  0  1.000329  0
H  H22  1  0.28340492  0.05616649  0.90585167  1  0.077237  0  0.092956  0.142171  0  1.022478  0
H  H23  1  0.36313974  0.74202004  0.58099125  1  0.058241  0  0.097985  0.136047  0  1.005031  0
H  H24  1  0.51752681  0.79771167  0.62464400  1  0.062306  0  0.101142  0.144049  0  0.990223  0
H  H25  1  0.45313517  0.88569934  0.54063742  1  0.055477  0  0.099568  0.139291  0  0.995023  0
H  H26  1  0.76369167  0.16051716  0.64344550  1  0.059647  0  0.095775  0.143593  0  1.0039  0
H  H27  1  0.59218537  0.12802929  0.62818786  1  0.01122  0  0.091311  0.128355  0  1.002551  0
H  H28  1  0.69991077  0.01703851  0.59281119  1  0.070914  0  0.096765  0.144149  0  1.002759  0
H  H29  1  0.48726900  0.91279147  0.96915699  1  0.06122  0  0.096769  0.133706  0  1.018039  0
H  H30  1  0.54706546  0.76462043  0.94265720  1  0.035417  0  0.102487  0.14359  0  0.976265  0
H  H31  1  0.40638302  0.81240249  0.89160581  1  0.064422  0  0.098777  0.139966  0  1.008563  0
H  H32  1  0.91078771  0.17923857  0.10786831  1  0.55244  0  0.309583  0.274971  0  1.003911  0
H  H33  1  0.90963129  0.77673784  0.39553138  1  0.560328  0  0.310145  0.280738  0  0.99733  0
H  H34  1  0.18831924  0.24839287  0.34196964  1  0.062449  0  0.096467  0.144194  0  0.993341  0
H  H35  1  0.16098528  0.41361100  0.35877968  1  0.040506  0  0.091026  0.128409  0  1.000395  0
H  H36  1  0.05618058  0.28340695  0.40584837  1  0.077549  0  0.092983  0.142191  0  1.022516  0
H  H37  1  0.74202414  0.36314028  0.08099122  1  0.058185  0  0.097936  0.135968  0  1.004929  0
H  H38  1  0.79771331  0.51752485  0.12464187  1  0.062239  0  0.101141  0.144056  0  0.99028  0
H  H39  1  0.88569473  0.45313934  0.04063753  1  0.055468  0  0.099576  0.13931  0  0.994984  0
H  H40  1  0.16052239  0.76369846  0.14344584  1  0.059505  0  0.09578  0.143588  0  1.003862  0
H  H41  1  0.12803184  0.59219293  0.12819042  1  0.01114  0  0.091319  0.128346  0  1.002634  0
H  H42  1  0.01704853  0.69992057  0.09280814  1  0.070917  0  0.0968  0.144172  0  1.00274  0
H  H43  1  0.91279987  0.48727255  0.46915322  1  0.060827  0  0.096741  0.133662  0  1.018104  0
H  H44  1  0.76462999  0.54706996  0.44265424  1  0.035539  0  0.102477  0.143592  0  0.9762  0
H  H45  1  0.81241079  0.40638817  0.39160262  1  0.064493  0  0.09877  0.139998  0  1.008495  0
H  H46  1  0.82076365  0.08921066  0.39212905  1  0.552461  0  0.309606  0.275005  0  1.003855  0
H  H47  1  0.22326509  0.09037672  0.10447035  1  0.560338  0  0.310166  0.280769  0  0.997343  0
H  H48  1  0.75161065  0.81167989  0.15802407  1  0.062437  0  0.09643  0.144144  0  0.99339  0
H  H49  1  0.58639104  0.83901783  0.14121488  1  0.040263  0  0.091011  0.128388  0  1.000399  0
H  H50  1  0.71659911  0.94383019  0.09414683  1  0.077359  0  0.092978  0.142192  0  1.022445  0
H  H51  1  0.63685381  0.25796988  0.41900859  1  0.058086  0  0.097935  0.136011  0  1.004959  0
H  H52  1  0.48247316  0.20227532  0.37535328  1  0.062343  0  0.101135  0.144049  0  0.990263  0
H  H53  1  0.54685972  0.11429352  0.45935923  1  0.055483  0  0.099588  0.139338  0  0.995001  0
H  H54  1  0.23630205  0.83948245  0.35655812  1  0.059605  0  0.095741  0.143531  0  1.003832  0
H  H55  1  0.40780787  0.87197423  0.37181383  1  0.011285  0  0.091284  0.12835  0  1.002658  0
H  H56  1  0.30008295  0.98296110  0.40719180  1  0.070924  0  0.096786  0.14417  0  1.002826  0
H  H57  1  0.51272993  0.08720326  0.03084535  1  0.060839  0  0.096748  0.133702  0  1.018093  0
H  H58  1  0.45293370  0.23537624  0.05734641  1  0.035489  0  0.102475  0.143595  0  0.976253  0
H  H59  1  0.59361469  0.18759028  0.10839973  1  0.064203  0  0.098807  0.140038  0  1.008546  0
C  C60  1  0.88638631  0.68535654  0.65142469  1  -0.068489  0  -0.23903  -0.430512  0  3.969908  0
C  C61  1  0.96863316  0.68724735  0.72867268  1  0.460782  0  0.096561  0.213218  0  4.008807  0
C  C62  1  0.03235984  0.58449882  0.76284137  1  0.101563  0  -0.039547  -0.148717  0  4.082653  0
C  C63  1  0.09355733  0.63459009  0.83642290  1  0.378193  0  0.101877  0.203757  0  3.988093  0
C  C64  1  0.17133026  0.57226464  0.90087914  1  -0.066532  0  -0.225909  -0.416816  0  3.966349  0
C  C65  1  0.91560410  0.31912023  0.85628182  1  -0.010821  0  -0.23788  -0.429163  0  3.973604  0
C  C66  1  0.98290018  0.33561195  0.77200998  1  0.463816  0  0.098663  0.210501  0  4.017244  0
C  C67  1  0.03308391  0.45324305  0.73055724  1  0.000413  0  -0.038498  -0.14806  0  4.088729  0
C  C68  1  0.08560177  0.41628604  0.65324332  1  0.444437  0  0.101506  0.203117  0  3.991411  0
C  C69  1  0.15261512  0.49744116  0.58368716  1  -0.04274  0  -0.225832  -0.417254  0  3.969167  0
C  C70  1  0.31463745  0.11360023  0.84857199  1  -0.067854  0  -0.238942  -0.430289  0  3.969786  0
C  C71  1  0.31274562  0.03135040  0.77132737  1  0.460458  0  0.096474  0.21313  0  4.008911  0
C  C72  1  0.41549323  0.96763067  0.73715557  1  0.101258  0  -0.039424  -0.148521  0  4.082629  0
C  C73  1  0.36541215  0.90643238  0.66357720  1  0.377864  0  0.101832  0.203671  0  3.988321  0
C  C74  1  0.42773746  0.82866137  0.59911999  1  -0.066652  0  -0.225845  -0.416704  0  3.966384  0
C  C75  1  0.68087434  0.08439876  0.64371884  1  -0.010788  0  -0.237896  -0.429233  0  3.973466  0
C  C76  1  0.66438305  0.01709938  0.72799080  1  0.463759  0  0.098641  0.210475  0  4.017328  0
C  C77  1  0.54675929  0.96691174  0.76944310  1  0.000484  0  -0.038523  -0.148102  0  4.088723  0
C  C78  1  0.58371319  0.91439320  0.84675470  1  0.444469  0  0.101512  0.203167  0  3.991445  0
C  C79  1  0.50256375  0.84738088  0.91631398  1  -0.042887  0  -0.225812  -0.417223  0  3.969344  0
C  C80  1  0.11361244  0.31464410  0.34856937  1  -0.068381  0  -0.239115  -0.430554  0  3.969841  0
C  C81  1  0.03135807  0.31275525  0.27132522  1  0.460764  0  0.096519  0.213194  0  4.008785  0
C  C82  1  0.96763827  0.41550473  0.23715459  1  0.101832  0  -0.039485  -0.148561  0  4.082638  0
C  C83  1  0.90643920  0.36541638  0.16357369  1  0.377466  0  0.101968  0.20376  0  3.988165  0
C  C84  1  0.82866646  0.42774373  0.09912189  1  -0.066456  0  -0.225859  -0.416702  0  3.966385  0
C  C85  1  0.08440253  0.68088225  0.14371920  1  -0.010589  0  -0.237949  -0.429257  0  3.973512  0
C  C86  1  0.01710100  0.66439346  0.22799295  1  0.463871  0  0.098628  0.210435  0  4.01748  0
C  C87  1  0.96691419  0.54676050  0.26943935  1  0.000474  0  -0.038439  -0.148057  0  4.08862  0
C  C88  1  0.91439629  0.58371746  0.34675773  1  0.444735  0  0.101482  0.203164  0  3.991463  0
C  C89  1  0.84739126  0.50256717  0.41631320  1  -0.043108  0  -0.225783  -0.417225  0  3.969512  0
C  C90  1  0.68535900  0.88638970  0.15142593  1  -0.068017  0  -0.239039  -0.430434  0  3.969869  0
C  C91  1  0.68725262  0.96863851  0.22867436  1  0.460831  0  0.096496  0.213165  0  4.008835  0
C  C92  1  0.58449443  0.03235834  0.26284176  1  0.101869  0  -0.039535  -0.14871  0  4.082779  0
C  C93  1  0.63458847  0.09356038  0.33642642  1  0.377583  0  0.101855  0.203677  0  3.98839  0
C  C94  1  0.57225889  0.17132759  0.40087667  1  -0.066396  0  -0.225822  -0.416717  0  3.96644  0
C  C95  1  0.31912263  0.91560375  0.35628476  1  -0.010882  0  -0.237892  -0.429244  0  3.973486  0
C  C96  1  0.33561212  0.98290414  0.27201025  1  0.464213  0  0.098649  0.210517  0  4.017264  0
C  C97  1  0.45324627  0.03308197  0.23056049  1  0.000347  0  -0.038466  -0.148069  0  4.088694  0
C  C98  1  0.41628347  0.08560644  0.15324382  1  0.444642  0  0.101554  0.203195  0  3.991485  0
C  C99  1  0.49743484  0.15261094  0.08368775  1  -0.042715  0  -0.225867  -0.417366  0  3.96963  0
N  N100  1  0.99057660  0.79247318  0.77821305  1  -0.730828  0  -0.262114  -0.261475  0  3.395985  0
N  N101  1  0.06734819  0.75879546  0.84204305  1  -0.848636  0  -0.287028  -0.145732  0  3.71524  0
N  N102  1  0.00409114  0.23444578  0.72290859  1  -0.751076  0  -0.262211  -0.253599  0  3.42287  0
N  N103  1  0.06636375  0.28510768  0.65180907  1  -0.876132  0  -0.282434  -0.146317  0  3.698424  0
N  N104  1  0.20752292  0.00940605  0.72178618  1  -0.730495  0  -0.262116  -0.261408  0  3.395948  0
N  N105  1  0.24120337  0.93263236  0.65795741  1  -0.848375  0  -0.287117  -0.145976  0  3.715319  0
N  N106  1  0.76555116  0.99591396  0.77709343  1  -0.75103  0  -0.262284  -0.253704  0  3.423003  0
N  N107  1  0.71489008  0.93363945  0.84819552  1  -0.87616  0  -0.282337  -0.146263  0  3.698212  0
N  N108  1  0.00941594  0.20753232  0.22178547  1  -0.730676  0  -0.262105  -0.261437  0  3.396058  0
N  N109  1  0.93264241  0.24121004  0.15795611  1  -0.848465  0  -0.287124  -0.14585  0  3.715305  0
N  N110  1  0.99591464  0.76555768  0.27709243  1  -0.751402  0  -0.262248  -0.253627  0  3.423029  0
N  N111  1  0.93364011  0.71489579  0.34819196  1  -0.876172  0  -0.282373  -0.146291  0  3.698313  0
N  N112  1  0.79247182  0.99058582  0.27821365  1  -0.730851  0  -0.262117  -0.261464  0  3.396182  0
N  N113  1  0.75879273  0.06735464  0.34204116  1  -0.848519  0  -0.287024  -0.145744  0  3.715392  0
N  N114  1  0.23444735  0.00409340  0.22291078  1  -0.751462  0  -0.262213  -0.253557  0  3.422949  0
N  N115  1  0.28510807  0.06636498  0.15180997  1  -0.87614  0  -0.282426  -0.146342  0  3.69841  0
F  F116  1  0.01756371  0.05437292  0.89631272  1  -0.831301  0  -0.210517  -0.50634  0  1.276213  0
F  F117  1  0.12269342  0.90406046  0.98405726  1  -0.832021  0  -0.208135  -0.509963  0  1.145813  0
F  F118  1  0.88772707  0.87474613  0.96918472  1  -0.830337  0  -0.211228  -0.513796  0  1.14594  0
F  F119  1  0.94562704  0.98244191  0.60368589  1  -0.831206  0  -0.210529  -0.506345  0  1.276226  0
F  F120  1  0.09594039  0.87730740  0.51594420  1  -0.832029  0  -0.208132  -0.509986  0  1.145834  0
F  F121  1  0.12525613  0.11227329  0.53081973  1  -0.830331  0  -0.211209  -0.513761  0  1.145899  0
F  F122  1  0.98244535  0.94563346  0.10368510  1  -0.831297  0  -0.210508  -0.506302  0  1.276212  0
F  F123  1  0.87731443  0.09594398  0.01594184  1  -0.832005  0  -0.208091  -0.509938  0  1.145919  0
F  F124  1  0.11227885  0.12525832  0.03081438  1  -0.830362  0  -0.211213  -0.513765  0  1.145917  0
F  F125  1  0.05437476  0.01756058  0.39631641  1  -0.831201  0  -0.210473  -0.506304  0  1.276223  0
F  F126  1  0.90406410  0.12269316  0.48405557  1  -0.832051  0  -0.20816  -0.509993  0  1.145823  0
F  F127  1  0.87474615  0.88772529  0.46918449  1  -0.830365  0  -0.211212  -0.51378  0  1.145929  0
