# generated using pymatgen
data_ZnH16C12(N2Cl)2
_symmetry_space_group_name_H-M   'P 1'
_cell_length_a   9.30943031
_cell_length_b   12.47145616
_cell_length_c   14.19590000
_cell_angle_alpha   112.61089714
_cell_angle_beta   90.00000000
_cell_angle_gamma   90.00000000
_symmetry_Int_Tables_number   1
_chemical_formula_structural   ZnH16C12(N2Cl)2
_chemical_formula_sum   'Zn4 H64 C48 N16 Cl8'
_cell_volume   1521.49108238
_cell_formula_units_Z   4
loop_
 _symmetry_equiv_pos_site_id
 _symmetry_equiv_pos_as_xyz
  1  'x, y, z'
loop_
 _atom_site_type_symbol
 _atom_site_label
 _atom_site_symmetry_multiplicity
 _atom_site_fract_x
 _atom_site_fract_y
 _atom_site_fract_z
 _atom_site_occupancy
 _atom_site_hle17_bader_spin_density
 _atom_site_hle17_ddec_charge
 _atom_site_hle17_ddec_spin_density
 _atom_site_hle17_ddec_sum_bond_order
 _atom_site_hle17_magmom
 _atom_site_hse06_10hf_bader_spin_density
 _atom_site_hse06_10hf_ddec_charge
 _atom_site_hse06_10hf_ddec_spin_density
 _atom_site_hse06_10hf_ddec_sum_bond_order
 _atom_site_hse06_10hf_magmom
 _atom_site_hse06_bader_spin_density
 _atom_site_hse06_ddec_charge
 _atom_site_hse06_ddec_spin_density
 _atom_site_hse06_ddec_sum_bond_order
 _atom_site_hse06_magmom
 _atom_site_pbe_bader_charge
 _atom_site_pbe_bader_spin_density
 _atom_site_pbe_cm5_charge
 _atom_site_pbe_ddec_charge
 _atom_site_pbe_ddec_spin_density
 _atom_site_pbe_ddec_sum_bond_order
 _atom_site_pbe_magmom
Zn  Zn0  1  0.37681683  0.78269056  0.53891422  1  0  0.838609  0  2.134206  0  0  0.659061  0  2.631535  0  0  0.697817  0  2.585262  0  1.137776  0  0.569188  0.632108  0  2.663315  0
Zn  Zn1  1  0.87681520  0.71730805  0.96108517  1  0  0.838611  0  2.134261  0  0  0.659058  0  2.63158  0  0  0.697812  0  2.585311  0  1.13786  0  0.569193  0.632101  0  2.663359  0
Zn  Zn2  1  0.62318421  0.21730909  0.46108580  1  0  0.838597  0  2.134298  0  0  0.659033  0  2.631621  0  0  0.697785  0  2.585351  0  1.137847  0  0.569194  0.632082  0  2.663401  0
Zn  Zn3  1  0.12318369  0.28269160  0.03891485  1  0  0.838611  0  2.134262  0  0  0.659072  0  2.631588  0  0  0.697828  0  2.585319  0  1.137862  0  0.569197  0.632114  0  2.663368  0
H  H4  1  0.59687111  0.93326821  0.49449834  1  0  0.076601  0  0.982726  0  0  0.074838  0  1.068733  0  0  0.077566  0  1.065209  0  0.150264  0  0.110169  0.072599  0  1.071736  0
H  H5  1  0.09686952  0.56673040  0.00550105  1  0  0.076648  0  0.982659  0  0  0.074817  0  1.06879  0  0  0.077547  0  1.065261  0  0.150235  0  0.110156  0.072577  0  1.071795  0
H  H6  1  0.40313101  0.06673057  0.50550210  1  0  0.076636  0  0.982673  0  0  0.074838  0  1.068716  0  0  0.077566  0  1.065193  0  0.150291  0  0.110166  0.072599  0  1.071717  0
H  H7  1  0.90312616  0.43327186  0.99449985  1  0  0.076657  0  0.98265  0  0  0.074827  0  1.068702  0  0  0.077551  0  1.065185  0  0.150255  0  0.110159  0.072587  0  1.071705  0
H  H8  1  0.81927785  0.90740236  0.39322723  1  0  0.124149  0  0.933162  0  0  0.136452  0  0.986825  0  0  0.139378  0  0.986915  0  0.127226  0  0.113282  0.13419  0  0.98739  0
H  H9  1  0.31927840  0.59259625  0.10677145  1  0  0.124155  0  0.93315  0  0  0.136451  0  0.986823  0  0  0.139377  0  0.986914  0  0.127212  0  0.113275  0.134189  0  0.987388  0
H  H10  1  0.18072212  0.09259642  0.60677179  1  0  0.124146  0  0.933139  0  0  0.136447  0  0.98681  0  0  0.139373  0  0.9869  0  0.127225  0  0.113278  0.134185  0  0.987376  0
H  H11  1  0.68071942  0.40740514  0.89322845  1  0  0.124197  0  0.933054  0  0  0.136489  0  0.986734  0  0  0.139416  0  0.986824  0  0.127191  0  0.113286  0.134228  0  0.987299  0
H  H12  1  0.79229338  0.53922291  0.33054589  1  0  0.112676  0  0.964075  0  0  0.119756  0  1.028329  0  0  0.122604  0  1.028504  0  0.14339  0  0.109151  0.117702  0  1.028406  0
H  H13  1  0.29229178  0.96077657  0.16945379  1  0  0.112713  0  0.964046  0  0  0.119793  0  1.028297  0  0  0.122643  0  1.028469  0  0.143417  0  0.109167  0.117739  0  1.028375  0
H  H14  1  0.20770766  0.46077588  0.66945455  1  0  0.112708  0  0.964036  0  0  0.119778  0  1.028312  0  0  0.122637  0  1.028457  0  0.14341  0  0.109168  0.117723  0  1.02839  0
H  H15  1  0.70771033  0.03922395  0.83054441  1  0  0.11272  0  0.964034  0  0  0.119787  0  1.028321  0  0  0.122649  0  1.02846  0  0.143408  0  0.109175  0.117734  0  1.028397  0
H  H16  1  0.56900797  0.58015451  0.43322085  1  0  0.081757  0  0.965076  0  0  0.085384  0  1.036978  0  0  0.088038  0  1.034391  0  0.132486  0  0.106828  0.083512  0  1.038934  0
H  H17  1  0.06900637  0.91984410  0.06677854  1  0  0.081818  0  0.964985  0  0  0.085436  0  1.036903  0  0  0.08809  0  1.034315  0  0.132513  0  0.106844  0.083565  0  1.038858  0
H  H18  1  0.43099308  0.41984427  0.56677959  1  0  0.081763  0  0.965086  0  0  0.085413  0  1.03697  0  0  0.088066  0  1.034383  0  0.132516  0  0.106841  0.083541  0  1.038925  0
H  H19  1  0.93099360  0.08015729  0.93321996  1  0  0.08176  0  0.965072  0  0  0.085375  0  1.036983  0  0  0.088029  0  1.034397  0  0.132532  0  0.106832  0.083504  0  1.038938  0
H  H20  1  0.92302963  0.70236216  0.20929316  1  0  0.113634  0  0.940318  0  0  0.122727  0  1.010513  0  0  0.124498  0  1.009624  0  0.153025  0  0.116842  0.12158  0  1.011085  0
H  H21  1  0.42303018  0.79763645  0.29070341  1  0  0.11372  0  0.940272  0  0  0.122801  0  1.010451  0  0  0.124577  0  1.009559  0  0.153091  0  0.116882  0.121652  0  1.011022  0
H  H22  1  0.07697034  0.29763663  0.79070446  1  0  0.113666  0  0.940318  0  0  0.122748  0  1.010511  0  0  0.124522  0  1.009622  0  0.153061  0  0.11686  0.121599  0  1.011082  0
H  H23  1  0.57696978  0.20236233  0.70929350  1  0  0.113666  0  0.940314  0  0  0.12275  0  1.010501  0  0  0.124522  0  1.009612  0  0.153021  0  0.116842  0.121603  0  1.011075  0
H  H24  1  0.03381410  0.77135281  0.32031142  1  0  0.112413  0  0.944285  0  0  0.124742  0  1.007625  0  0  0.126499  0  1.006597  0  0.141635  0  0.1101  0.122822  0  1.009368  0
H  H25  1  0.53381462  0.72864667  0.17968474  1  0  0.112442  0  0.94427  0  0  0.124762  0  1.007595  0  0  0.126518  0  1.006572  0  0.141642  0  0.110111  0.122842  0  1.009336  0
H  H26  1  0.96618587  0.22864597  0.67968620  1  0  0.112413  0  0.944287  0  0  0.124732  0  1.007621  0  0  0.12649  0  1.006597  0  0.141631  0  0.1101  0.122812  0  1.009363  0
H  H27  1  0.46618642  0.27135298  0.82031105  1  0  0.112429  0  0.944295  0  0  0.124751  0  1.00763  0  0  0.126509  0  1.006601  0  0.141656  0  0.110097  0.122831  0  1.009372  0
H  H28  1  0.10883695  0.60823180  0.41005135  1  0  0.14098  0  0.964306  0  0  0.147131  0  1.031083  0  0  0.15069  0  1.028645  0  0.210738  0  0.121819  0.144553  0  1.032923  0
H  H29  1  0.60883747  0.89176941  0.08994892  1  0  0.140956  0  0.964344  0  0  0.147128  0  1.031096  0  0  0.150688  0  1.028657  0  0.210732  0  0.121813  0.14455  0  1.032935  0
H  H30  1  0.89116302  0.39176872  0.58994897  1  0  0.140972  0  0.964328  0  0  0.147141  0  1.031085  0  0  0.150699  0  1.028647  0  0.210732  0  0.121821  0.144562  0  1.032925  0
H  H31  1  0.39116357  0.10823197  0.91005099  1  0  0.140999  0  0.964316  0  0  0.147158  0  1.031081  0  0  0.150717  0  1.028644  0  0.210738  0  0.121825  0.14458  0  1.03292  0
H  H32  1  0.25145148  0.39434497  0.37892838  1  0  0.09354  0  0.934805  0  0  0.109002  0  0.994582  0  0  0.110302  0  0.994314  0  0.065845  0  0.09205  0.108063  0  0.994718  0
H  H33  1  0.75145200  0.10565573  0.12107298  1  0  0.093492  0  0.934827  0  0  0.108946  0  0.994616  0  0  0.110248  0  0.994345  0  0.065716  0  0.092035  0.107976  0  0.994784  0
H  H34  1  0.74854849  0.60565555  0.62107264  1  0  0.09352  0  0.934828  0  0  0.108976  0  0.994616  0  0  0.110277  0  0.994347  0  0.065828  0  0.092046  0.108005  0  0.994784  0
H  H35  1  0.24854904  0.89434393  0.87892845  1  0  0.093546  0  0.934785  0  0  0.108995  0  0.994584  0  0  0.110295  0  0.994315  0  0.065849  0  0.092057  0.108058  0  0.994719  0
H  H36  1  0.27793000  0.30176158  0.24898881  1  0  0.088062  0  0.950876  0  0  0.101661  0  1.018779  0  0  0.102514  0  1.018928  0  0.057861  0  0.094486  0.100906  0  1.018729  0
H  H37  1  0.77793052  0.19823999  0.25101285  1  0  0.088067  0  0.950813  0  0  0.101659  0  1.018738  0  0  0.102513  0  1.018887  0  0.057838  0  0.094484  0.100905  0  1.018683  0
H  H38  1  0.72206996  0.69823894  0.75101292  1  0  0.088048  0  0.95084  0  0  0.101657  0  1.018747  0  0  0.10251  0  1.018899  0  0.057847  0  0.094482  0.100903  0  1.018693  0
H  H39  1  0.22207052  0.80176140  0.74898917  1  0  0.088045  0  0.950867  0  0  0.101664  0  1.018766  0  0  0.102517  0  1.018915  0  0.057865  0  0.094499  0.100908  0  1.018717  0
H  H40  1  0.00059617  0.31262421  0.37013543  1  0  0.059217  0  0.945445  0  0  0.0764  0  1.008431  0  0  0.077271  0  1.008736  0  0.032834  0  0.07823  0.075688  0  1.008405  0
H  H41  1  0.50059669  0.18737475  0.12986534  1  0  0.059261  0  0.945431  0  0  0.076436  0  1.008416  0  0  0.077307  0  1.00872  0  0.032849  0  0.078244  0.075725  0  1.008389  0
H  H42  1  0.99940380  0.68737457  0.62986500  1  0  0.059261  0  0.945426  0  0  0.07644  0  1.008407  0  0  0.077311  0  1.008711  0  0.032839  0  0.078235  0.075727  0  1.008383  0
H  H43  1  0.49940435  0.81262490  0.87013538  1  0  0.05922  0  0.945449  0  0  0.076386  0  1.008429  0  0  0.077256  0  1.008733  0  0.032821  0  0.078224  0.075674  0  1.008404  0
H  H44  1  0.02719178  0.22648231  0.23930661  1  0  0.056634  0  0.954907  0  0  0.073672  0  1.021501  0  0  0.074173  0  1.022118  0  0.029969  0  0.079378  0.07335  0  1.020926  0
H  H45  1  0.52719123  0.27351839  0.26069545  1  0  0.056636  0  0.954913  0  0  0.073685  0  1.021482  0  0  0.074184  0  1.022104  0  0.029936  0  0.079398  0.073356  0  1.020913  0
H  H46  1  0.97280819  0.77351821  0.76069441  1  0  0.056678  0  0.954953  0  0  0.073719  0  1.021523  0  0  0.074217  0  1.022145  0  0.029954  0  0.079403  0.073396  0  1.020948  0
H  H47  1  0.47280981  0.72648213  0.73930627  1  0  0.056638  0  0.954914  0  0  0.07367  0  1.021489  0  0  0.074169  0  1.022111  0  0.02997  0  0.079398  0.073351  0  1.020911  0
H  H48  1  0.19764690  0.20663147  0.41616732  1  0  0.045574  0  0.975767  0  0  0.065103  0  1.036114  0  0  0.064254  0  1.039884  0  0.036589  0  0.077755  0.065714  0  1.03346  0
H  H49  1  0.69764634  0.29336836  0.08383445  1  0  0.045575  0  0.975773  0  0  0.065096  0  1.036126  0  0  0.064246  0  1.039897  0  0.036626  0  0.077761  0.065707  0  1.033472  0
H  H50  1  0.80235415  0.79336818  0.58383411  1  0  0.045584  0  0.975769  0  0  0.065113  0  1.036117  0  0  0.064262  0  1.039891  0  0.036622  0  0.077774  0.065723  0  1.033465  0
H  H51  1  0.30235470  0.70663129  0.91616628  1  0  0.045555  0  0.975762  0  0  0.065073  0  1.036131  0  0  0.064223  0  1.039902  0  0.036612  0  0.077764  0.065684  0  1.033477  0
H  H52  1  0.23633562  0.12819486  0.28653083  1  0  0.047777  0  0.944355  0  0  0.065397  0  1.008419  0  0  0.065923  0  1.008874  0  -0.012965  0  0.07779  0.065018  0  1.007922  0
H  H53  1  0.73633507  0.37180496  0.21347094  1  0  0.047819  0  0.944289  0  0  0.06543  0  1.00837  0  0  0.065963  0  1.008816  0  -0.012983  0  0.077793  0.065048  0  1.007877  0
H  H54  1  0.76366435  0.87180479  0.71346989  1  0  0.047835  0  0.944318  0  0  0.065474  0  1.00836  0  0  0.066006  0  1.008808  0  -0.01298  0  0.07783  0.065094  0  1.007865  0
H  H55  1  0.26366597  0.62819556  0.78653008  1  0  0.04782  0  0.944335  0  0  0.065435  0  1.008412  0  0  0.06597  0  1.008856  0  -0.012959  0  0.077807  0.065054  0  1.007919  0
H  H56  1  0.95399393  0.11343659  0.39533939  1  0  0.086925  0  0.988622  0  0  0.10317  0  1.061534  0  0  0.10448  0  1.061562  0  0.015177  0  0.068746  0.102174  0  1.061306  0
H  H57  1  0.45399448  0.38656237  0.10466138  1  0  0.086935  0  0.988631  0  0  0.10318  0  1.061537  0  0  0.10449  0  1.061565  0  0.015181  0  0.068754  0.102185  0  1.061308  0
H  H58  1  0.04600604  0.88656220  0.60466104  1  0  0.086928  0  0.988639  0  0  0.103175  0  1.06154  0  0  0.104485  0  1.061567  0  0.015173  0  0.06875  0.102179  0  1.061311  0
H  H59  1  0.54600656  0.61343641  0.89533835  1  0  0.086918  0  0.98866  0  0  0.103169  0  1.061562  0  0  0.104479  0  1.06159  0  0.015172  0  0.068752  0.102173  0  1.061334  0
H  H60  1  0.09171668  0.00724060  0.35677823  1  0  0.092184  0  0.96874  0  0  0.109472  0  1.036813  0  0  0.110835  0  1.037217  0  0.016237  0  0.072726  0.108149  0  1.037156  0
H  H61  1  0.59171612  0.49275836  0.14322255  1  0  0.092172  0  0.968734  0  0  0.109441  0  1.036829  0  0  0.110803  0  1.037235  0  0.016274  0  0.072707  0.10812  0  1.037171  0
H  H62  1  0.90828329  0.99275819  0.64322221  1  0  0.092207  0  0.968747  0  0  0.109484  0  1.036823  0  0  0.110845  0  1.037231  0  0.016256  0  0.072728  0.108162  0  1.037165  0
H  H63  1  0.40828384  0.50724129  0.85677747  1  0  0.092197  0  0.968756  0  0  0.109476  0  1.036832  0  0  0.110836  0  1.037241  0  0.01625  0  0.072724  0.108154  0  1.037175  0
H  H64  1  0.98861152  0.03559062  0.26315936  1  0  0.082865  0  0.961286  0  0  0.105348  0  1.021813  0  0  0.105962  0  1.023033  0  0.022219  0  0.076142  0.104876  0  1.020946  0
H  H65  1  0.48861099  0.46440833  0.23684142  1  0  0.082922  0  0.961217  0  0  0.105387  0  1.021765  0  0  0.106001  0  1.022984  0  0.022224  0  0.076152  0.104915  0  1.020897  0
H  H66  1  0.01138953  0.96440816  0.73684108  1  0  0.082902  0  0.961239  0  0  0.105362  0  1.021787  0  0  0.105976  0  1.023006  0  0.022233  0  0.076144  0.104888  0  1.020921  0
H  H67  1  0.51139005  0.53559045  0.76315902  1  0  0.082878  0  0.96123  0  0  0.105333  0  1.021793  0  0  0.105948  0  1.023011  0  0.022207  0  0.076139  0.104865  0  1.02092  0
C  C68  1  0.64171274  0.84696909  0.45495828  1  0  0.138733  0  3.701499  0  0  0.101299  0  3.964295  0  0  0.109347  0  3.981432  0  0.486705  0  0.049171  0.096194  0  3.953218  0
C  C69  1  0.14171222  0.65303038  0.04504140  1  0  0.138655  0  3.701612  0  0  0.101254  0  3.964396  0  0  0.109302  0  3.981532  0  0.486448  0  0.049161  0.096144  0  3.953317  0
C  C70  1  0.35828723  0.15302969  0.54504215  1  0  0.138678  0  3.701527  0  0  0.101273  0  3.964316  0  0  0.109322  0  3.981451  0  0.486365  0  0.049129  0.096172  0  3.953242  0
C  C71  1  0.85828238  0.34697187  0.95495809  1  0  0.138672  0  3.701412  0  0  0.101313  0  3.964229  0  0  0.109363  0  3.981365  0  0.486997  0  0.049115  0.096201  0  3.953148  0
C  C72  1  0.76686003  0.83150552  0.39807098  1  0  -0.152445  0  3.664896  0  0  -0.169828  0  3.908263  0  0  -0.178194  0  3.929419  0  -0.093261  0  -0.0765  -0.164416  0  3.894342  0
C  C73  1  0.26685951  0.66849309  0.10192700  1  0  -0.15249  0  3.664978  0  0  -0.169856  0  3.908343  0  0  -0.178224  0  3.929503  0  -0.093331  0  -0.076502  -0.164443  0  3.894423  0
C  C74  1  0.23313994  0.16849413  0.60192834  1  0  -0.152449  0  3.664954  0  0  -0.169851  0  3.908294  0  0  -0.178222  0  3.929456  0  -0.093373  0  -0.076493  -0.164439  0  3.894372  0
C  C75  1  0.73313831  0.33150656  0.89807232  1  0  -0.152535  0  3.66492  0  0  -0.169913  0  3.908283  0  0  -0.178281  0  3.929439  0  -0.093692  0  -0.076496  -0.164501  0  3.894364  0
C  C76  1  0.82340699  0.71966107  0.34998707  1  0  0.148636  0  3.695385  0  0  0.162977  0  3.935484  0  0  0.168318  0  3.956774  0  0.034602  0  0.02045  0.158986  0  3.921226  0
C  C77  1  0.32340754  0.78033841  0.15001050  1  0  0.148732  0  3.695256  0  0  0.163022  0  3.935399  0  0  0.168364  0  3.95669  0  0.034622  0  0.020456  0.159031  0  3.921141  0
C  C78  1  0.17659298  0.28033685  0.65001095  1  0  0.148614  0  3.695334  0  0  0.163002  0  3.935349  0  0  0.168341  0  3.956644  0  0.034622  0  0.02046  0.159011  0  3.921091  0
C  C79  1  0.67659242  0.21966385  0.84998759  1  0  0.148634  0  3.695297  0  0  0.162986  0  3.935386  0  0  0.168324  0  3.956678  0  0.034647  0  0.020438  0.158994  0  3.921131  0
C  C80  1  0.75230812  0.62794106  0.36373193  1  0  -0.16177  0  3.694865  0  0  -0.180432  0  3.940739  0  0  -0.188991  0  3.962919  0  -0.059796  0  -0.081424  -0.1747  0  3.926232  0
C  C81  1  0.25230652  0.87205842  0.13626634  1  0  -0.161832  0  3.694806  0  0  -0.180489  0  3.940694  0  0  -0.189047  0  3.962874  0  -0.059742  0  -0.081434  -0.174756  0  3.926188  0
C  C82  1  0.24769292  0.37205859  0.63626739  1  0  -0.161749  0  3.694685  0  0  -0.180436  0  3.94056  0  0  -0.188992  0  3.962745  0  -0.059715  0  -0.081426  -0.174703  0  3.92605  0
C  C83  1  0.74769452  0.12794123  0.86373298  1  0  -0.161776  0  3.694742  0  0  -0.180464  0  3.940634  0  0  -0.189019  0  3.962821  0  -0.059691  0  -0.081434  -0.174732  0  3.92613  0
C  C84  1  0.62710604  0.64984959  0.42125625  1  0  0.134723  0  3.701018  0  0  0.106222  0  3.946291  0  0  0.113954  0  3.963775  0  0.428709  0  0.049519  0.100703  0  3.934916  0
C  C85  1  0.12710660  0.85014988  0.07874343  1  0  0.134706  0  3.70092  0  0  0.106222  0  3.946197  0  0  0.113955  0  3.963679  0  0.42867  0  0.0495  0.100699  0  3.934818  0
C  C86  1  0.37289500  0.35014919  0.57874348  1  0  0.13474  0  3.701042  0  0  0.106208  0  3.946328  0  0  0.113939  0  3.963814  0  0.428684  0  0.049514  0.100694  0  3.934954  0
C  C87  1  0.87289337  0.14985237  0.92125606  1  0  0.134776  0  3.701039  0  0  0.106298  0  3.946334  0  0  0.114028  0  3.963822  0  0.428692  0  0.049544  0.100771  0  3.934954  0
C  C88  1  0.95500044  0.70205207  0.28391774  1  0  -0.089774  0  3.633537  0  0  -0.162258  0  3.868319  0  0  -0.160932  0  3.877166  0  0.233365  0  -0.04135  -0.162737  0  3.862564  0
C  C89  1  0.45499992  0.79794828  0.21608012  1  0  -0.089947  0  3.633544  0  0  -0.162379  0  3.868277  0  0  -0.161046  0  3.877094  0  0.233353  0  -0.041405  -0.16286  0  3.862531  0
C  C90  1  0.04500061  0.29794671  0.71608128  1  0  -0.089857  0  3.633553  0  0  -0.162319  0  3.868268  0  0  -0.160986  0  3.877086  0  0.233339  0  -0.04141  -0.162798  0  3.862519  0
C  C91  1  0.54499898  0.20205224  0.78391667  1  0  -0.089901  0  3.633544  0  0  -0.162346  0  3.868245  0  0  -0.161017  0  3.877075  0  0.233344  0  -0.041383  -0.162827  0  3.862493  0
C  C92  1  0.09178865  0.55374058  0.33038042  1  0  -0.102496  0  3.59483  0  0  -0.167768  0  3.848346  0  0  -0.167341  0  3.864161  0  0.351236  0  0.028  -0.168084  0  3.838046  0
C  C93  1  0.59178917  0.94625890  0.16961786  1  0  -0.10242  0  3.594755  0  0  -0.16772  0  3.848251  0  0  -0.167296  0  3.864068  0  0.351552  0  0.028024  -0.168033  0  3.837948  0
C  C94  1  0.90821132  0.44625907  0.66961890  1  0  -0.102419  0  3.594728  0  0  -0.167716  0  3.848235  0  0  -0.167291  0  3.864053  0  0.351297  0  0.02803  -0.168028  0  3.837932  0
C  C95  1  0.40821187  0.05374075  0.83038076  1  0  -0.102475  0  3.594804  0  0  -0.167751  0  3.848305  0  0  -0.167327  0  3.864125  0  0.351225  0  0.028026  -0.168066  0  3.838004  0
C  C96  1  0.13146777  0.44016762  0.27346030  1  0  0.188335  0  3.728196  0  0  0.185928  0  3.993936  0  0  0.188431  0  4.016465  0  0.410982  0  0.105716  0.184057  0  3.978466  0
C  C97  1  0.63146829  0.05983307  0.22654107  1  0  0.18821  0  3.728294  0  0  0.185802  0  3.994035  0  0  0.188304  0  4.016568  0  0.411022  0  0.105654  0.183934  0  3.978553  0
C  C98  1  0.86853113  0.55983203  0.72654043  1  0  0.188284  0  3.728218  0  0  0.185863  0  3.993976  0  0  0.188367  0  4.016508  0  0.410991  0  0.105684  0.183996  0  3.978494  0
C  C99  1  0.36853168  0.94016745  0.77345996  1  0  0.188316  0  3.728202  0  0  0.185895  0  3.993984  0  0  0.188397  0  4.016515  0  0.411016  0  0.105686  0.184024  0  3.978514  0
C  C100  1  0.19668658  0.35065210  0.30541537  1  0  -0.178962  0  3.729595  0  0  -0.219265  0  3.977313  0  0  -0.220805  0  3.990526  0  0.003477  0  -0.158949  -0.217849  0  3.968054  0
C  C101  1  0.69668710  0.14934859  0.19458600  1  0  -0.178899  0  3.729561  0  0  -0.219205  0  3.977265  0  0  -0.22075  0  3.990483  0  0.003431  0  -0.158946  -0.217764  0  3.968004  0
C  C102  1  0.80331339  0.64934842  0.69458566  1  0  -0.178857  0  3.729539  0  0  -0.219182  0  3.977259  0  0  -0.220726  0  3.99048  0  0.003507  0  -0.158914  -0.217741  0  3.968  0
C  C103  1  0.30331394  0.85065106  0.80541544  1  0  -0.178947  0  3.729634  0  0  -0.219277  0  3.977345  0  0  -0.220819  0  3.990558  0  0.00346  0  -0.158969  -0.217861  0  3.968084  0
C  C104  1  0.08259259  0.26518076  0.31334388  1  0  -0.10381  0  3.685101  0  0  -0.141112  0  3.938728  0  0  -0.142748  0  3.953906  0  -0.030618  0  -0.169725  -0.139885  0  3.92841  0
C  C105  1  0.58259311  0.23481907  0.18665789  1  0  -0.103884  0  3.685191  0  0  -0.141165  0  3.938763  0  0  -0.1428  0  3.95394  0  -0.030406  0  -0.169732  -0.139929  0  3.928435  0
C  C106  1  0.91740845  0.73481889  0.68665826  1  0  -0.103995  0  3.685229  0  0  -0.141267  0  3.938817  0  0  -0.142902  0  3.953993  0  -0.03061  0  -0.169763  -0.140036  0  3.928489  0
C  C107  1  0.41740900  0.76518145  0.81334383  1  0  -0.103851  0  3.685195  0  0  -0.141078  0  3.93872  0  0  -0.142713  0  3.953897  0  -0.030636  0  -0.169704  -0.139852  0  3.9284  0
C  C108  1  0.14797361  0.16848110  0.34023782  1  0  -0.052382  0  3.705595  0  0  -0.080986  0  3.958986  0  0  -0.08185  0  3.975377  0  -0.00568  0  -0.172494  -0.080325  0  3.947526  0
C  C109  1  0.64797413  0.33151873  0.15976325  1  0  -0.052418  0  3.705523  0  0  -0.081004  0  3.958887  0  0  -0.081871  0  3.975277  0  -0.005678  0  -0.172518  -0.080343  0  3.947424  0
C  C110  1  0.85202528  0.83151855  0.65976291  1  0  -0.052434  0  3.70554  0  0  -0.081053  0  3.958929  0  0  -0.081922  0  3.975323  0  -0.005681  0  -0.172578  -0.080393  0  3.94747  0
C  C111  1  0.35202691  0.66848179  0.84023707  1  0  -0.052359  0  3.705562  0  0  -0.080977  0  3.958947  0  0  -0.081845  0  3.975339  0  -0.005673  0  -0.172534  -0.080317  0  3.947488  0
C  C112  1  0.03944602  0.07604971  0.33865917  1  0  -0.295037  0  3.73039  0  0  -0.363271  0  3.971015  0  0  -0.366271  0  3.982771  0  -0.061414  0  -0.25876  -0.36099  0  3.962985  0
C  C113  1  0.53944440  0.42394924  0.16134161  1  0  -0.295067  0  3.730326  0  0  -0.363273  0  3.970943  0  0  -0.366271  0  3.982702  0  -0.061458  0  -0.258742  -0.360993  0  3.962912  0
C  C114  1  0.96055502  0.92394994  0.66134086  1  0  -0.295073  0  3.730343  0  0  -0.363285  0  3.97098  0  0  -0.366284  0  3.98274  0  -0.061433  0  -0.258749  -0.361003  0  3.962952  0
C  C115  1  0.46055557  0.57604954  0.83865953  1  0  -0.295067  0  3.730372  0  0  -0.363256  0  3.970963  0  0  -0.366257  0  3.982726  0  -0.061416  0  -0.258759  -0.36098  0  3.962931  0
N  N116  1  0.57173101  0.75747182  0.46551263  1  0  -0.330318  0  3.33441  0  0  -0.243302  0  3.604185  0  0  -0.262809  0  3.620059  0  -1.25889  0  -0.33753  -0.23026  0  3.594026  0
N  N117  1  0.07172942  0.74252679  0.03448606  1  0  -0.330341  0  3.334399  0  0  -0.24334  0  3.60417  0  0  -0.262848  0  3.620043  0  -1.258745  0  -0.337529  -0.230285  0  3.593996  0
N  N118  1  0.42827110  0.24252784  0.53448740  1  0  -0.330322  0  3.334476  0  0  -0.243288  0  3.604233  0  0  -0.262794  0  3.620104  0  -1.258704  0  -0.337513  -0.230262  0  3.594091  0
N  N119  1  0.92827055  0.25747373  0.96551355  1  0  -0.33035  0  3.334262  0  0  -0.243346  0  3.604041  0  0  -0.262855  0  3.619912  0  -1.25899  0  -0.337523  -0.230283  0  3.593859  0
N  N120  1  0.02482429  0.59099803  0.26337700  1  0  0.088098  0  3.603997  0  0  0.202172  0  3.795758  0  0  0.196903  0  3.81665  0  -0.775789  0  -0.118895  0.205517  0  3.781615  0
N  N121  1  0.52482266  0.90900231  0.23662157  1  0  0.088159  0  3.603917  0  0  0.202229  0  3.795654  0  0  0.196966  0  3.816544  0  -0.776118  0  -0.118865  0.205576  0  3.781509  0
N  N122  1  0.97517568  0.40900162  0.73662232  1  0  0.088104  0  3.603851  0  0  0.20218  0  3.795598  0  0  0.196914  0  3.816491  0  -0.775808  0  -0.118894  0.205526  0  3.781453  0
N  N123  1  0.47517623  0.09099734  0.76337705  1  0  0.088158  0  3.60389  0  0  0.202228  0  3.795637  0  0  0.196961  0  3.81653  0  -0.775752  0  -0.118868  0.205574  0  3.781494  0
N  N124  1  0.02111730  0.50841042  0.16944211  1  0  -0.087504  0  2.867174  0  0  -0.104998  0  3.142288  0  0  -0.103248  0  3.155026  0  -0.075433  0  -0.084667  -0.105833  0  3.133297  0
N  N125  1  0.52111674  0.99158819  0.33055728  1  0  -0.087536  0  2.867268  0  0  -0.105067  0  3.142402  0  0  -0.103321  0  3.155139  0  -0.075402  0  -0.084702  -0.105902  0  3.13341  0
N  N126  1  0.97888267  0.49158837  0.83055762  1  0  -0.087472  0  2.867282  0  0  -0.104989  0  3.142394  0  0  -0.103244  0  3.155133  0  -0.075482  0  -0.084657  -0.105825  0  3.133402  0
N  N127  1  0.47888322  0.00841059  0.66944174  1  0  -0.087514  0  2.867144  0  0  -0.105021  0  3.142272  0  0  -0.103274  0  3.15501  0  -0.075486  0  -0.0847  -0.105856  0  3.133282  0
N  N128  1  0.08680660  0.41727150  0.17558028  1  0  -0.266003  0  3.241042  0  0  -0.202298  0  3.547745  0  0  -0.215166  0  3.560345  0  -0.71121  0  -0.222922  -0.192963  0  3.538095  0
N  N129  1  0.58680605  0.08272833  0.32442079  1  0  -0.265941  0  3.241118  0  0  -0.20219  0  3.54776  0  0  -0.215056  0  3.560359  0  -0.711273  0  -0.222876  -0.192854  0  3.538106  0
N  N130  1  0.91319337  0.58272729  0.82442015  1  0  -0.266047  0  3.241204  0  0  -0.202294  0  3.547856  0  0  -0.21516  0  3.560456  0  -0.711193  0  -0.222924  -0.192959  0  3.538204  0
N  N131  1  0.41319392  0.91727132  0.67557994  1  0  -0.266023  0  3.241049  0  0  -0.202307  0  3.54775  0  0  -0.215175  0  3.56035  0  -0.711202  0  -0.222902  -0.192973  0  3.538099  0
Cl  Cl132  1  0.23718208  0.85219803  0.44490695  1  0  -0.574041  0  0.93897  0  0  -0.511028  0  1.210514  0  0  -0.525664  0  1.18845  0  -0.67221  0  -0.305411  -0.499241  0  1.226222  0
Cl  Cl133  1  0.73718152  0.64780145  0.05509273  1  0  -0.574038  0  0.939003  0  0  -0.511027  0  1.210538  0  0  -0.525661  0  1.188474  0  -0.672189  0  -0.305414  -0.499241  0  1.226248  0
Cl  Cl134  1  0.76281897  0.14780076  0.55509278  1  0  -0.574043  0  0.938979  0  0  -0.511026  0  1.210515  0  0  -0.525662  0  1.18845  0  -0.672212  0  -0.305414  -0.499241  0  1.226225  0
Cl  Cl135  1  0.26281952  0.35219820  0.94490729  1  0  -0.574042  0  0.93899  0  0  -0.511024  0  1.210523  0  0  -0.52566  0  1.18846  0  -0.67222  0  -0.305404  -0.499239  0  1.226237  0
Cl  Cl136  1  0.30485754  0.61791054  0.55104267  1  0  -0.557581  0  0.929036  0  0  -0.491359  0  1.199863  0  0  -0.505743  0  1.176079  0  -0.665099  0  -0.298911  -0.481165  0  1.216215  0
Cl  Cl137  1  0.80485698  0.88208894  0.94895772  1  0  -0.557569  0  0.929045  0  0  -0.491339  0  1.199865  0  0  -0.505718  0  1.17607  0  -0.665089  0  -0.298897  -0.481149  0  1.216219  0
Cl  Cl138  1  0.69514136  0.38208824  0.44895847  1  0  -0.557577  0  0.929097  0  0  -0.491348  0  1.199929  0  0  -0.505723  0  1.176133  0  -0.665083  0  -0.298902  -0.481154  0  1.216275  0
Cl  Cl139  1  0.19514298  0.11791158  0.05104260  1  0  -0.557583  0  0.929061  0  0  -0.491355  0  1.199882  0  0  -0.505733  0  1.176088  0  -0.665083  0  -0.298906  -0.481168  0  1.216244  0
