# generated using pymatgen
data_CuH8C9N8
_symmetry_space_group_name_H-M   'P 1'
_cell_length_a   7.37479311
_cell_length_b   8.58047648
_cell_length_c   10.35723643
_cell_angle_alpha   102.60422693
_cell_angle_beta   93.68657602
_cell_angle_gamma   112.96625226
_symmetry_Int_Tables_number   1
_chemical_formula_structural   CuH8C9N8
_chemical_formula_sum   'Cu2 H16 C18 N16'
_cell_volume   580.70301887
_cell_formula_units_Z   2
loop_
 _symmetry_equiv_pos_site_id
 _symmetry_equiv_pos_as_xyz
  1  'x, y, z'
loop_
 _atom_site_type_symbol
 _atom_site_label
 _atom_site_symmetry_multiplicity
 _atom_site_fract_x
 _atom_site_fract_y
 _atom_site_fract_z
 _atom_site_occupancy
 _atom_site_hse06_10hf_ddec_charge
 _atom_site_hse06_10hf_ddec_spin_density
 _atom_site_hse06_10hf_ddec_sum_bond_order
 _atom_site_hse06_10hf_magmom
 _atom_site_hse06_ddec_charge
 _atom_site_hse06_ddec_spin_density
 _atom_site_hse06_ddec_sum_bond_order
 _atom_site_hse06_magmom
 _atom_site_pbe_cm5_charge
 _atom_site_pbe_ddec_charge
 _atom_site_pbe_ddec_spin_density
 _atom_site_pbe_ddec_sum_bond_order
 _atom_site_pbe_magmom
Cu  Cu0  1  0.99999715  0.00000193  0.99999934  1  0.901703  -0.834002  2.379  -0.663  0.974574  -0.898527  2.318685  -0.738  0.841417  0.854252  -0.782339  2.422697  -0.609
Cu  Cu1  1  0.49999843  0.99999373  0.49999938  1  1.018078  0.839863  2.330856  0.672  1.088834  0.908828  2.2782  0.753  0.851154  0.964426  0.777907  2.376305  0.604
H  H2  1  0.83838602  0.72484996  0.13316177  1  0.267784  -0.000203  0.984772  0.0  0.273945  -0.000163  0.980253  0.0  0.325775  0.263593  -0.000257  0.987652  0.0
H  H3  1  0.16161712  0.27515324  0.86683858  1  0.267818  -0.000203  0.984724  0.0  0.273981  -0.000163  0.980202  0.0  0.325788  0.263632  -0.000257  0.987607  0.0
H  H4  1  0.66966925  0.31773892  0.77593495  1  0.142455  -0.000649  1.057436  -0.001  0.144511  -0.000459  1.058467  -0.001  0.099636  0.141066  -0.00081  1.056788  -0.001
H  H5  1  0.33033452  0.68226559  0.22406469  1  0.142435  -0.000649  1.057471  -0.001  0.14449  -0.000459  1.058505  -0.001  0.099635  0.141055  -0.00081  1.05679  -0.001
H  H6  1  0.89559967  0.78995729  0.70109381  1  0.140415  -0.000116  1.043676  0.0  0.141171  -6.3e-05  1.04471  0.0  0.091667  0.139756  -0.000174  1.043065  0.0
H  H7  1  0.10441351  0.21004978  0.29890861  1  0.140452  -0.000116  1.043625  0.0  0.141207  -6.3e-05  1.044657  0.0  0.091713  0.139796  -0.000174  1.043015  0.0
H  H8  1  0.67692809  0.59358088  0.62615374  1  0.14277  0.000152  0.991442  0.0  0.144717  0.000136  0.990822  0.0  0.092992  0.141337  0.000181  0.991784  0.0
H  H9  1  0.32308230  0.40642886  0.37385002  1  0.142715  0.000152  0.991458  0.0  0.144664  0.000136  0.990832  0.0  0.092956  0.14128  0.000181  0.991805  0.0
H  H10  1  0.91449171  0.58786529  0.63619474  1  0.14092  0.000126  0.989272  0.0  0.142728  0.000115  0.988821  0.0  0.092644  0.1396  0.000151  0.989364  0.0
H  H11  1  0.08551677  0.41214051  0.36380726  1  0.140929  0.000126  0.989208  0.0  0.142727  0.000115  0.988767  0.0  0.092659  0.13961  0.00015  0.989297  0.0
H  H12  1  0.71061481  0.42749608  0.18221261  1  0.138317  -2e-05  1.016788  0.0  0.141016  -2e-05  1.015484  0.0  0.093525  0.136373  -1.3e-05  1.017738  0.0
H  H13  1  0.28938220  0.57250850  0.81778677  1  0.1383  -2e-05  1.016828  0.0  0.140998  -2e-05  1.015525  0.0  0.093521  0.136355  -1.3e-05  1.017777  0.0
H  H14  1  0.75269972  0.26705908  0.06276384  1  0.142816  5.2e-05  1.026346  0.0  0.14314  8.8e-05  1.02839  0.0  0.094604  0.142516  1.6e-05  1.025038  0.0
H  H15  1  0.24729811  0.73294155  0.93723679  1  0.142822  5.2e-05  1.026398  0.0  0.143146  8.8e-05  1.028444  0.0  0.094624  0.142522  1.6e-05  1.02509  0.0
H  H16  1  0.51390634  0.27258357  0.05151051  1  0.140023  0.000109  1.030743  0.0  0.140563  0.000127  1.032691  0.0  0.093592  0.139555  8.8e-05  1.029522  0.0
H  H17  1  0.48608856  0.72742233  0.94848612  1  0.14002  0.000109  1.030771  0.0  0.140559  0.000127  1.032721  0.0  0.09359  0.139549  8.8e-05  1.02955  0.0
C  C18  1  0.80421891  0.60929146  0.82233866  1  0.289647  -0.001243  4.00574  -0.002  0.302303  9.2e-05  4.024103  0.0  0.102064  0.281303  -0.002231  3.993137  -0.003
C  C19  1  0.19578559  0.39071173  0.17766174  1  0.289695  -0.001241  4.005702  -0.002  0.302352  9.1e-05  4.024057  0.0  0.102084  0.28135  -0.002231  3.993103  -0.003
C  C20  1  0.72610784  0.44370333  0.84953207  1  -0.364341  -0.003056  3.918743  -0.004  -0.376425  -0.002416  3.938486  -0.003  -0.129617  -0.356496  -0.00365  3.905461  -0.004
C  C21  1  0.27390272  0.55630113  0.15047074  1  -0.364309  -0.003058  3.918602  -0.004  -0.376398  -0.002416  3.938353  -0.003  -0.129595  -0.356466  -0.00365  3.905324  -0.004
C  C22  1  0.73664752  0.47511148  0.98819302  1  0.289302  0.000685  3.988329  0.0  0.301251  0.001352  4.004582  0.001  0.105749  0.281494  0.00019  3.977155  0.0
C  C23  1  0.26335427  0.52489174  0.01180728  1  0.289306  0.000687  3.988385  0.0  0.301252  0.001352  4.004639  0.001  0.105768  0.281503  0.00019  3.977212  0.0
C  C24  1  0.82434942  0.64841817  0.68944214  1  -0.439246  -0.00025  3.9523  0.0  -0.442985  -0.000167  3.95975  0.0  -0.242261  -0.436244  -0.000338  3.94668  -0.001
C  C25  1  0.17566168  0.35159023  0.31055947  1  -0.439238  -0.00025  3.952178  0.0  -0.442967  -0.000168  3.959631  0.0  -0.242281  -0.436239  -0.000338  3.946557  -0.001
C  C26  1  0.67530538  0.35437341  0.07629007  1  -0.43825  -0.000358  3.928797  -0.001  -0.441788  -0.000224  3.935978  0.0  -0.240324  -0.43553  -0.000476  3.923816  -0.001
C  C27  1  0.32469371  0.64562984  0.92371012  1  -0.438231  -0.000358  3.928915  -0.001  -0.441769  -0.000224  3.936098  0.0  -0.240351  -0.435508  -0.000476  3.92393  -0.001
C  C28  1  0.34314831  0.99495053  0.78795686  1  0.463489  0.000991  4.26343  0.002  0.487608  0.000916  4.273628  0.001  0.296683  0.447004  0.001048  4.255459  0.002
C  C29  1  0.65684023  0.00504491  0.21204246  1  0.463476  0.001001  4.263552  0.002  0.487592  0.000909  4.273749  0.001  0.296633  0.446994  0.001048  4.255583  0.002
C  C30  1  0.64814266  0.98826261  0.81423742  1  0.509414  -0.003172  4.222733  -0.007  0.538336  -0.001522  4.23014  -0.005  0.325639  0.489225  -0.004394  4.21699  -0.008
C  C31  1  0.35185131  0.01173279  0.18576405  1  0.509506  -0.003169  4.222874  -0.007  0.538427  -0.001526  4.230285  -0.005  0.325663  0.489316  -0.004394  4.217136  -0.008
C  C32  1  0.95103085  0.21351298  0.58904281  1  0.509606  0.004531  4.200697  0.008  0.539073  0.002734  4.212907  0.006  0.33571  0.488079  0.005833  4.191367  0.009
C  C33  1  0.04896409  0.78647318  0.41095606  1  0.509514  0.00453  4.200573  0.008  0.538982  0.002735  4.212783  0.006  0.335627  0.487989  0.005834  4.191248  0.009
C  C34  1  0.26440125  0.21638738  0.58565635  1  0.507345  0.005974  4.21693  0.009  0.536418  0.004139  4.229967  0.007  0.33484  0.485903  0.00734  4.207465  0.01
C  C35  1  0.73559822  0.78360266  0.41433762  1  0.507344  0.005973  4.217006  0.009  0.536419  0.004139  4.230044  0.007  0.334826  0.4859  0.00734  4.207539  0.01
N  N36  1  0.86020121  0.73543457  0.93915439  1  -0.268028  -0.057817  3.503258  -0.078  -0.29734  -0.046807  3.527155  -0.066  -0.269251  -0.24908  -0.064468  3.487639  -0.084
N  N37  1  0.13980455  0.26457125  0.06084654  1  -0.268116  -0.057818  3.503393  -0.078  -0.297429  -0.046805  3.527287  -0.066  -0.269304  -0.249165  -0.064466  3.487787  -0.084
N  N38  1  0.81913587  0.65159252  0.03732455  1  -0.159405  -0.001748  3.727946  -0.002  -0.17093  -0.001192  3.748441  -0.001  -0.290666  -0.151921  -0.002198  3.714116  -0.002
N  N39  1  0.18086918  0.34841463  0.96267659  1  -0.15942  -0.001747  3.728092  -0.002  -0.17094  -0.001192  3.74858  -0.001  -0.290675  -0.151953  -0.002198  3.714283  -0.002
N  N40  1  0.20948513  0.02826271  0.82049235  1  -0.576624  -0.001076  3.024286  -0.002  -0.593744  -0.000162  3.028863  -0.001  -0.369005  -0.564479  -0.002291  3.021162  -0.004
N  N41  1  0.79050801  0.97173664  0.17950690  1  -0.576606  -0.001093  3.024264  -0.002  -0.59372  -0.000156  3.028838  -0.001  -0.368977  -0.564459  -0.002291  3.021141  -0.004
N  N42  1  0.48281493  0.95426677  0.73979223  1  -0.445732  -0.003371  3.590429  -0.004  -0.470409  -0.001818  3.59069  -0.002  -0.315487  -0.426975  -0.004798  3.588503  -0.005
N  N43  1  0.51717574  0.04572736  0.26021177  1  -0.445806  -0.003352  3.590703  -0.004  -0.470492  -0.001817  3.590978  -0.002  -0.315503  -0.42705  -0.004798  3.588774  -0.005
N  N44  1  0.80584507  0.01952949  0.87244251  1  -0.57111  -0.042932  3.296465  -0.054  -0.598681  -0.035955  3.298184  -0.047  -0.405845  -0.552721  -0.047292  3.295739  -0.058
N  N45  1  0.19414805  0.98047253  0.12756301  1  -0.571187  -0.042945  3.296517  -0.055  -0.598748  -0.035952  3.298219  -0.047  -0.405843  -0.5528  -0.047292  3.295795  -0.058
N  N46  1  0.78016053  0.17521866  0.55509442  1  -0.565895  0.046661  3.232097  0.059  -0.599136  0.036983  3.237504  0.049  -0.391805  -0.542262  0.0536  3.228448  0.065
N  N47  1  0.21983444  0.82476750  0.44490736  1  -0.565791  0.04666  3.231974  0.059  -0.599025  0.036981  3.237365  0.049  -0.3917  -0.542137  0.053598  3.228273  0.065
N  N48  1  0.13804829  0.27089714  0.63691584  1  -0.384646  0.008879  3.521075  0.012  -0.412776  0.003964  3.526333  0.006  -0.284783  -0.363182  0.015333  3.515637  0.019
N  N49  1  0.86194920  0.72909160  0.36307781  1  -0.384626  0.00888  3.521189  0.012  -0.412756  0.003966  3.526446  0.006  -0.28479  -0.363169  0.015334  3.515753  0.019
N  N50  1  0.39419909  0.18134365  0.54659688  1  -0.570901  0.04492  3.222419  0.057  -0.604258  0.035171  3.228735  0.047  -0.392363  -0.547246  0.051826  3.218403  0.063
N  N51  1  0.60579638  0.81864377  0.45339355  1  -0.570908  0.04492  3.222416  0.057  -0.604266  0.035172  3.228736  0.047  -0.39235  -0.547254  0.051828  3.218394  0.063
