# generated using pymatgen
data_CoH13C20N5O4
_symmetry_space_group_name_H-M   'P 1'
_cell_length_a   8.67429987
_cell_length_b   10.02066877
_cell_length_c   11.64222275
_cell_angle_alpha   89.59974441
_cell_angle_beta   84.92226062
_cell_angle_gamma   68.28087098
_symmetry_Int_Tables_number   1
_chemical_formula_structural   CoH13C20N5O4
_chemical_formula_sum   'Co2 H26 C40 N10 O8'
_cell_volume   936.07540864
_cell_formula_units_Z   2
loop_
 _symmetry_equiv_pos_site_id
 _symmetry_equiv_pos_as_xyz
  1  'x, y, z'
loop_
 _atom_site_type_symbol
 _atom_site_label
 _atom_site_symmetry_multiplicity
 _atom_site_fract_x
 _atom_site_fract_y
 _atom_site_fract_z
 _atom_site_occupancy
 _atom_site_hle17_ddec_charge
 _atom_site_hle17_ddec_spin_density
 _atom_site_hle17_ddec_sum_bond_order
 _atom_site_hle17_magmom
 _atom_site_hse06_10hf_ddec_charge
 _atom_site_hse06_10hf_ddec_spin_density
 _atom_site_hse06_10hf_ddec_sum_bond_order
 _atom_site_hse06_10hf_magmom
 _atom_site_hse06_ddec_charge
 _atom_site_hse06_ddec_spin_density
 _atom_site_hse06_ddec_sum_bond_order
 _atom_site_hse06_magmom
 _atom_site_pbe_cm5_charge
 _atom_site_pbe_ddec_charge
 _atom_site_pbe_ddec_spin_density
 _atom_site_pbe_ddec_sum_bond_order
 _atom_site_pbe_magmom
Co  Co0  1  0.46157867  0.83593783  0.40059050  1  0.973467  2.983641  2.027134  2.58  0.937437  2.89703  2.439478  2.641  1.01662  2.931801  2.36616  2.72  0.671007  0.865634  2.866324  2.509863  2.566
Co  Co1  1  0.53842601  0.16406144  0.59940700  1  0.973528  -2.983641  2.027125  -2.58  0.937459  -2.89703  2.43957  -2.641  1.016644  -2.931786  2.366244  -2.72  0.671001  0.86564  -2.866313  2.509979  -2.565
H  H2  1  0.16338117  0.09370218  0.51801418  1  0.085001  0.000639  0.946848  0.001  0.093762  0.000432  1.008464  0.001  0.096696  0.00034  1.006132  0.001  0.115959  0.091118  0.000521  1.010775  0.001
H  H3  1  0.83662190  0.90629816  0.48198686  1  0.084998  -0.000639  0.946832  -0.001  0.093762  -0.000432  1.008436  -0.001  0.096696  -0.00034  1.006106  -0.001  0.115966  0.091119  -0.000521  1.010749  -0.001
H  H4  1  0.39590843  0.40528149  0.42062934  1  0.114252  0.000321  0.9655  0.0  0.120096  0.000226  1.035262  0.0  0.124589  0.000201  1.031154  0.0  0.109734  0.116779  0.000218  1.038371  0.0
H  H5  1  0.60409046  0.59471781  0.57936855  1  0.114238  -0.000321  0.965489  0.0  0.12008  -0.000226  1.035252  0.0  0.124572  -0.0002  1.031146  0.0  0.109735  0.116761  -0.000218  1.038363  0.0
H  H6  1  0.38376146  0.56742938  0.07713731  1  0.096474  0.000123  0.94679  0.0  0.107116  8.1e-05  1.008356  0.0  0.110357  5.1e-05  1.006019  0.0  0.105818  0.104792  0.000113  1.009797  0.0
H  H7  1  0.61623929  0.43257098  0.92286131  1  0.096451  -0.000122  0.946841  0.0  0.107104  -8.1e-05  1.008382  0.0  0.110344  -5.2e-05  1.006048  0.0  0.105806  0.104777  -0.000113  1.009824  0.0
H  H8  1  0.37576003  0.14403435  0.13489316  1  0.100407  0.000136  0.968204  0.0  0.105701  5e-05  1.038723  0.0  0.108969  2.2e-05  1.036353  0.0  0.1047  0.103563  0.000102  1.039913  0.0
H  H9  1  0.62424394  0.85596386  0.86510182  1  0.100329  -0.000136  0.96836  0.0  0.105652  -5e-05  1.038841  0.0  0.108918  -2.1e-05  1.036473  0.0  0.104688  0.103512  -0.000102  1.040033  0.0
H  H10  1  0.59324156  0.94398568  0.17556473  1  0.094457  0.000494  0.953282  0.002  0.098445  0.000259  1.02497  0.001  0.101847  0.000177  1.021485  0.001  0.119451  0.095841  0.000314  1.027604  0.001
H  H11  1  0.40675967  0.05601359  0.82443816  1  0.094483  -0.000494  0.953241  -0.002  0.098447  -0.000259  1.024947  -0.001  0.101849  -0.000177  1.021462  -0.001  0.119437  0.09584  -0.000314  1.027582  -0.001
H  H12  1  0.78781811  0.59813466  0.38528839  1  0.08646  0.000512  0.932987  0.001  0.096476  0.000287  0.992068  0.001  0.099825  0.000174  0.988564  0.001  0.118265  0.093662  0.000428  0.995134  0.001
H  H13  1  0.21218332  0.40186140  0.61471279  1  0.086457  -0.000511  0.932914  -0.001  0.096451  -0.000287  0.99203  -0.001  0.099801  -0.000173  0.988525  -0.001  0.118251  0.093635  -0.000428  0.995098  -0.001
H  H14  1  0.75140115  0.12899320  0.84121910  1  0.320031  -3e-06  0.917537  0.0  0.298967  1e-06  0.981332  0.0  0.308524  7e-05  0.973076  0.0  0.324348  0.291917  -9.1e-05  0.987385  0.0
H  H15  1  0.24859638  0.87100931  0.15878317  1  0.32009  3e-06  0.917438  0.0  0.298928  -1e-06  0.981392  0.0  0.30848  -6.9e-05  0.973138  0.0  0.324329  0.29188  9.1e-05  0.987443  0.0
H  H16  1  0.37518197  0.33778757  0.00073655  1  0.093415  -1.4e-05  0.947492  0.0  0.103543  2.1e-05  1.00493  0.0  0.106126  1.5e-05  1.005193  0.0  0.101743  0.101887  8e-06  1.004723  0.0
H  H17  1  0.62481949  0.66221386  0.99926288  1  0.093399  1.4e-05  0.947534  0.0  0.103549  -2.1e-05  1.004952  0.0  0.106132  -1.5e-05  1.005214  0.0  0.101752  0.101893  -8e-06  1.004747  0.0
H  H18  1  0.96987971  0.13595755  0.69589859  1  0.112294  0.00016  0.953678  0.0  0.12117  0.000316  1.016424  0.0  0.124484  0.000248  1.01633  0.0  0.107697  0.118275  0.000379  1.017374  0.0
H  H19  1  0.03012013  0.86404496  0.30410094  1  0.112299  -0.00016  0.953697  0.0  0.121184  -0.000316  1.016436  0.0  0.124485  -0.000247  1.016359  0.0  0.107707  0.118298  -0.000379  1.017367  0.0
H  H20  1  0.33049162  0.65182573  0.55114376  1  0.08998  0.000315  0.976604  0.001  0.095751  0.000179  1.043973  0.001  0.099515  0.00016  1.040613  0.001  0.114871  0.09262  0.000185  1.046709  0.001
H  H21  1  0.66950868  0.34817570  0.44885833  1  0.089943  -0.000315  0.976595  -0.001  0.095727  -0.000179  1.043951  -0.001  0.09949  -0.00016  1.040593  -0.001  0.114867  0.092597  -0.000186  1.046686  -0.001
H  H22  1  0.04468649  0.48810486  0.24742199  1  0.103956  0.000115  0.962741  0.0  0.112991  0.000248  1.022865  0.0  0.115122  0.000176  1.024567  0.0  0.104595  0.111312  0.000326  1.022099  0.0
H  H23  1  0.95531493  0.51189121  0.75257661  1  0.104038  -0.000115  0.962706  0.0  0.113008  -0.000248  1.0229  0.0  0.115137  -0.000177  1.024605  0.0  0.10461  0.111329  -0.000326  1.022134  0.0
H  H24  1  0.15177691  0.67583828  0.73536685  1  0.113028  0.000111  0.950429  0.0  0.121529  0.000254  1.012103  0.0  0.125257  0.000181  1.010639  0.0  0.109  0.118412  0.000326  1.014135  0.0
H  H25  1  0.84822177  0.32416423  0.26463276  1  0.113005  -0.000111  0.950422  0.0  0.121505  -0.000254  1.012102  0.0  0.125233  -0.000181  1.010638  0.0  0.10899  0.118389  -0.000326  1.014133  0.0
H  H26  1  0.07072720  0.61864779  0.06520483  1  0.103822  0.00026  0.952181  0.001  0.113539  -4e-05  1.015247  0.0  0.116908  -2.3e-05  1.011971  0.0  0.108059  0.110902  -6.6e-05  1.017922  0.0
H  H27  1  0.92927144  0.38134936  0.93479394  1  0.103862  -0.00026  0.952192  -0.001  0.113602  4e-05  1.015214  0.0  0.116969  2.4e-05  1.011942  0.0  0.108086  0.110965  6.6e-05  1.017889  0.0
C  C28  1  0.69648674  0.84413745  0.18861754  1  0.101865  -0.010254  3.644865  -0.014  0.065385  -0.002426  3.898333  -0.004  0.07352  -0.002305  3.913512  -0.004  0.053203  0.059307  -0.002996  3.888897  -0.004
C  C29  1  0.30351378  0.15586075  0.81138455  1  0.10178  0.010254  3.644956  0.014  0.065335  0.002427  3.898374  0.004  0.073468  0.002304  3.913555  0.004  0.053195  0.059259  0.002995  3.888933  0.004
C  C30  1  0.80590401  0.64983247  0.30538522  1  0.118233  -0.010682  3.696577  -0.014  0.088345  -0.003039  3.949484  -0.004  0.0973  -0.002885  3.964564  -0.004  0.040185  0.081403  -0.003615  3.94049  -0.005
C  C31  1  0.19409742  0.35016359  0.69461509  1  0.118345  0.01068  3.696498  0.014  0.088474  0.003041  3.949388  0.004  0.097424  0.00288  3.96447  0.004  0.040228  0.081531  0.003615  3.940391  0.005
C  C32  1  0.94770109  0.58974435  0.22874309  1  -0.124909  0.00883  3.763492  0.012  -0.132591  0.002288  4.011208  0.003  -0.140271  0.002227  4.03262  0.003  -0.086348  -0.127995  0.002469  3.998666  0.004
C  C33  1  0.05230034  0.41025171  0.77125722  1  -0.125022  -0.008827  3.763491  -0.012  -0.132662  -0.002287  4.011221  -0.003  -0.140338  -0.002224  4.032633  -0.003  -0.086408  -0.128066  -0.002468  3.998675  -0.004
C  C34  1  0.38937576  0.39084664  0.32886832  1  -0.076803  -0.001974  3.711705  -0.002  -0.112521  -0.000181  3.954625  0.0  -0.109613  -0.000211  3.973184  0.0  -0.077875  -0.116  -0.000921  3.944474  -0.001
C  C35  1  0.61062499  0.60915373  0.67112859  1  -0.076695  0.001972  3.711511  0.002  -0.112379  0.000179  3.954457  0.0  -0.109472  0.000208  3.973018  0.0  -0.077842  -0.11585  0.000922  3.944313  0.001
C  C36  1  0.41025132  0.62886640  0.30166817  1  0.634307  -0.005866  3.894716  -0.01  0.588116  -0.001449  4.190108  -0.004  0.624277  -0.000944  4.185707  -0.002  0.205586  0.562289  -0.002096  4.190049  -0.005
C  C37  1  0.58974641  0.37113290  0.69832980  1  0.634379  0.005865  3.894906  0.01  0.588151  0.00145  4.190366  0.004  0.624307  0.000928  4.185971  0.002  0.205577  0.562319  0.002096  4.190305  0.005
C  C38  1  0.38774640  0.14657294  0.36902016  1  0.661247  -0.006336  3.853255  -0.008  0.619658  -0.005003  4.147565  -0.007  0.661854  -0.003632  4.138177  -0.005  0.220489  0.587769  -0.006905  4.151217  -0.008
C  C39  1  0.61225062  0.85342530  0.63097787  1  0.661143  0.006338  3.853327  0.008  0.619576  0.005004  4.147653  0.007  0.661771  0.003618  4.13827  0.005  0.220496  0.587691  0.006906  4.151307  0.008
C  C40  1  0.38154248  0.26332211  0.28696071  1  -0.082216  0.003113  3.769132  0.004  -0.054368  0.001014  3.996757  0.002  -0.065646  0.000914  4.019406  0.001  -0.020994  -0.047443  0.000975  3.983118  0.002
C  C41  1  0.61845549  0.73667934  0.71303809  1  -0.082236  -0.003112  3.769164  -0.004  -0.054461  -0.001012  3.996893  -0.002  -0.065739  -0.000905  4.019544  -0.001  -0.021063  -0.047563  -0.000975  3.983291  -0.002
C  C42  1  0.39182731  0.49930404  0.25354588  1  -0.069006  0.003445  3.787862  0.005  -0.040555  0.001452  4.016745  0.002  -0.049461  0.001018  4.038874  0.001  -0.019816  -0.03535  0.001934  4.002741  0.003
C  C43  1  0.60817228  0.50069633  0.74645196  1  -0.069071  -0.003444  3.787843  -0.005  -0.040622  -0.00145  4.016754  -0.002  -0.049525  -0.001023  4.038881  -0.001  -0.019824  -0.035417  -0.001934  4.002747  -0.003
C  C44  1  0.38345221  0.48163689  0.13522423  1  -0.06366  -0.003063  3.723274  -0.004  -0.091389  -0.001018  3.970964  -0.001  -0.088506  -0.000742  3.989239  -0.001  -0.078357  -0.091296  -0.001212  3.956852  -0.001
C  C45  1  0.61654808  0.51836454  0.86477442  1  -0.063646  0.003063  3.723284  0.004  -0.091374  0.001019  3.970972  0.001  -0.088491  0.000747  3.989245  0.001  -0.078325  -0.091279  0.001213  3.956859  0.001
C  C46  1  0.04658540  0.90803783  0.73208032  1  0.059041  -0.010082  3.772368  -0.013  0.075341  -0.00269  4.003168  -0.003  0.080578  -0.001776  4.020925  -0.002  0.016423  0.070396  -0.004495  3.992576  -0.006
C  C47  1  0.95341259  0.09196361  0.26792192  1  0.059092  0.010083  3.772369  0.013  0.075375  0.002691  4.003167  0.003  0.080625  0.001774  4.020904  0.002  0.016407  0.070429  0.004495  3.992576  0.006
C  C48  1  0.85251844  0.87217593  0.00469372  1  0.275032  -0.000112  3.834049  0.0  0.254978  0.000211  4.112249  0.0  0.264303  9.1e-05  4.130976  0.0  0.205795  0.249003  0.000276  4.099805  0.0
C  C49  1  0.14748116  0.12782443  0.99530755  1  0.274983  0.00011  3.834158  0.0  0.254957  -0.00021  4.112292  0.0  0.264284  -9e-05  4.131015  0.0  0.205764  0.248953  -0.000276  4.099889  0.0
C  C50  1  0.15523795  0.00349467  0.56735032  1  0.13473  -0.009968  3.691807  -0.014  0.10611  -0.002024  3.954617  -0.003  0.114716  -0.001686  3.969281  -0.003  0.044938  0.09964  -0.00281  3.945338  -0.004
C  C51  1  0.84476281  0.99650568  0.43265260  1  0.13482  0.00997  3.691677  0.014  0.106201  0.002024  3.95449  0.003  0.114806  0.001681  3.96915  0.003  0.044987  0.099731  0.00281  3.945214  0.004
C  C52  1  0.04858856  0.02653460  0.66793875  1  -0.136952  0.00893  3.679976  0.012  -0.161285  0.002242  3.933352  0.003  -0.168291  0.002042  3.952677  0.003  -0.080945  -0.156748  0.002471  3.922191  0.003
C  C53  1  0.95140942  0.97346685  0.33206091  1  -0.137033  -0.00893  3.67993  -0.012  -0.161377  -0.002242  3.933315  -0.003  -0.168377  -0.002041  3.952643  -0.003  -0.08096  -0.156835  -0.002471  3.922158  -0.003
C  C54  1  0.94735514  0.91931448  0.84181706  1  0.311888  0.001347  3.761452  0.002  0.27764  0.000256  4.033083  0.001  0.290339  0.000223  4.04596  0.0  0.225768  0.269525  0.000169  4.024651  0.001
C  C55  1  0.05264168  0.08068696  0.15818439  1  0.311804  -0.001349  3.761521  -0.002  0.277596  -0.000255  4.033086  -0.001  0.290295  -0.000223  4.045962  0.0  0.225728  0.269483  -0.000169  4.024653  -0.001
C  C56  1  0.83648880  0.79301141  0.10792980  1  -0.037005  0.00803  3.786129  0.011  -0.016083  0.002345  4.019069  0.004  -0.022138  0.002301  4.041534  0.003  0.000826  -0.012345  0.002486  4.004503  0.004
C  C57  1  0.16350939  0.20698682  0.89207072  1  -0.036956  -0.008028  3.786117  -0.011  -0.016024  -0.002343  4.018991  -0.004  -0.022078  -0.002298  4.041456  -0.003  0.000804  -0.012277  -0.002486  4.004427  -0.004
C  C58  1  0.37744672  0.24464988  0.16809490  1  -0.042018  -0.003052  3.696511  -0.004  -0.074834  -0.001383  3.952995  -0.002  -0.07028  -0.001084  3.970145  -0.001  -0.075416  -0.075648  -0.001598  3.939327  -0.002
C  C59  1  0.62255680  0.75534940  0.83190268  1  -0.041948  0.003051  3.696651  0.004  -0.074771  0.001384  3.953154  0.002  -0.070214  0.001072  3.970304  0.001  -0.075401  -0.075575  0.001598  3.93949  0.002
C  C60  1  0.37791040  0.35365516  0.09293754  1  -0.072133  0.001948  3.751145  0.003  -0.082636  0.00053  4.008213  0.001  -0.088021  0.000544  4.029139  0.001  -0.086716  -0.079132  0.000445  3.992289  0.001
C  C61  1  0.62209614  0.64634518  0.90705984  1  -0.072115  -0.001947  3.751129  -0.003  -0.082639  -0.00053  4.008206  -0.001  -0.088019  -0.000544  4.029124  -0.001  -0.086741  -0.079138  -0.000445  3.992288  -0.001
C  C62  1  0.24939901  0.75739196  0.58619891  1  0.111977  -0.009561  3.710945  -0.013  0.086996  -0.001693  3.962065  -0.003  0.094902  -0.00123  3.977237  -0.002  0.03603  0.080487  -0.002568  3.953714  -0.004
C  C63  1  0.75060084  0.24261054  0.41380234  1  0.111963  0.009562  3.710934  0.013  0.086976  0.001692  3.962056  0.003  0.094883  0.001226  3.977226  0.002  0.036018  0.080469  0.002568  3.953705  0.004
C  C64  1  0.96279233  0.66155588  0.12817382  1  -0.036176  -0.011475  3.688821  -0.014  -0.065286  -0.003673  3.934307  -0.004  -0.060132  -0.002941  3.949796  -0.004  -0.06644  -0.069314  -0.005201  3.924942  -0.006
C  C65  1  0.03720864  0.33844126  0.87182566  1  -0.036258  0.011471  3.688853  0.014  -0.065385  0.003672  3.934311  0.004  -0.060233  0.002937  3.949801  0.004  -0.066434  -0.06941  0.0052  3.924939  0.006
C  C66  1  0.14922368  0.77076448  0.68825159  1  -0.136172  0.00866  3.695086  0.012  -0.152295  0.002157  3.930262  0.003  -0.159339  0.001929  3.949255  0.003  -0.079672  -0.148004  0.002295  3.919457  0.004
C  C67  1  0.85077662  0.22923695  0.31174878  1  -0.136124  -0.008662  3.695101  -0.012  -0.15224  -0.002157  3.930271  -0.003  -0.159288  -0.001926  3.949262  -0.003  -0.079643  -0.147949  -0.002295  3.919464  -0.004
N  N68  1  0.68099447  0.77389441  0.28482341  1  -0.304029  0.040668  3.327215  0.069  -0.256085  0.026513  3.608052  0.044  -0.277803  0.023084  3.622315  0.038  -0.325316  -0.240024  0.029711  3.598843  0.049
N  N69  1  0.31900811  0.22610165  0.71517768  1  -0.304082  -0.040667  3.327233  -0.069  -0.256139  -0.026513  3.608048  -0.044  -0.277853  -0.023079  3.622316  -0.038  -0.325332  -0.240075  -0.029713  3.598831  -0.049
N  N70  1  0.25659296  0.87162346  0.52641810  1  -0.329998  0.038699  3.298402  0.067  -0.284418  0.024616  3.581414  0.04  -0.305239  0.021346  3.591429  0.033  -0.328315  -0.268877  0.02739  3.575824  0.045
N  N71  1  0.74340920  0.12837903  0.47358386  1  -0.330045  -0.0387  3.298418  -0.067  -0.284468  -0.024618  3.581451  -0.04  -0.305286  -0.021346  3.591458  -0.033  -0.328366  -0.268928  -0.027392  3.57586  -0.045
N  N72  1  0.74898402  0.00731318  0.98622664  1  -0.255991  -0.000217  2.817694  0.0  -0.250393  -0.000242  3.086132  0.0  -0.257384  2.4e-05  3.099897  0.0  -0.221875  -0.246484  -0.000583  3.077802  -0.001
N  N73  1  0.25101488  0.99268610  0.01377555  1  -0.255966  0.00022  2.81776  0.0  -0.250369  0.000241  3.086155  0.0  -0.257363  -2.4e-05  3.099918  0.0  -0.221849  -0.246451  0.000583  3.077835  0.001
N  N74  1  0.81277584  0.03504009  0.88319603  1  -0.203193  -0.001132  3.419014  -0.002  -0.14167  -0.000343  3.658723  -0.001  -0.154583  -0.0001  3.672223  0.0  -0.256233  -0.13351  -0.000795  3.650549  -0.001
N  N75  1  0.18722099  0.96496135  0.11680543  1  -0.203195  0.001133  3.418917  0.002  -0.141632  0.000343  3.658677  0.001  -0.154544  9.8e-05  3.672183  0.0  -0.256185  -0.133474  0.000795  3.650509  0.001
N  N76  1  0.97567754  0.81417382  0.91799782  1  -0.460456  -0.001038  2.922538  -0.002  -0.435443  -0.000264  3.191566  0.0  -0.449542  -8.9e-05  3.202966  0.0  -0.335712  -0.42625  -0.000649  3.184045  -0.001
N  N77  1  0.02432044  0.18582762  0.08200270  1  -0.46037  0.001039  2.922672  0.002  -0.435386  0.000264  3.191683  0.0  -0.449482  9e-05  3.203084  0.0  -0.335645  -0.426182  0.000649  3.184169  0.001
O  O78  1  0.38089861  0.03082213  0.32954630  1  -0.598614  0.037029  2.113024  0.057  -0.568393  0.029587  2.398268  0.042  -0.606628  0.023459  2.385592  0.032  -0.302764  -0.535607  0.0339  2.405548  0.049
O  O79  1  0.61909244  0.96918470  0.67045466  1  -0.598663  -0.037037  2.112883  -0.057  -0.568427  -0.029592  2.398094  -0.042  -0.606664  -0.023451  2.385415  -0.032  -0.302837  -0.535634  -0.033906  2.405368  -0.049
O  O80  1  0.39748311  0.16875979  0.47563446  1  -0.636731  -0.053764  2.191588  -0.083  -0.611421  -0.041089  2.494546  -0.06  -0.653908  -0.02861  2.482612  -0.039  -0.3152  -0.570818  -0.056333  2.497501  -0.084
O  O81  1  0.60251905  0.83124271  0.52436663  1  -0.636604  0.053759  2.191763  0.083  -0.611285  0.041086  2.49467  0.06  -0.653769  0.028608  2.482743  0.039  -0.315117  -0.570684  0.056327  2.497625  0.084
O  O82  1  0.49324692  0.61458420  0.38936592  1  -0.601809  0.045954  2.040397  0.074  -0.565109  0.03378  2.302291  0.054  -0.603928  0.024753  2.296895  0.039  -0.299323  -0.531991  0.043948  2.302703  0.07
O  O83  1  0.50673579  0.38542051  0.61063904  1  -0.601904  -0.045949  2.040578  -0.074  -0.56512  -0.033778  2.302396  -0.054  -0.603931  -0.024739  2.296999  -0.039  -0.299324  -0.531998  -0.043946  2.302808  -0.07
O  O84  1  0.34605835  0.75240771  0.25823768  1  -0.627521  0.029022  2.018519  0.047  -0.592332  0.023425  2.268903  0.037  -0.625931  0.017034  2.261052  0.027  -0.307182  -0.563707  0.030171  2.27228  0.047
O  O85  1  0.65395420  0.24758941  0.74175673  1  -0.627471  -0.029019  2.01857  -0.047  -0.592331  -0.023425  2.268981  -0.037  -0.625931  -0.017032  2.261139  -0.027  -0.307122  -0.563702  -0.030171  2.272356  -0.047
