# generated using pymatgen
data_ZnH8C8Br2NO2
_symmetry_space_group_name_H-M   'P 1'
_cell_length_a   6.68402475
_cell_length_b   12.62442574
_cell_length_c   13.41417479
_cell_angle_alpha   78.50740777
_cell_angle_beta   87.15735539
_cell_angle_gamma   86.48636713
_symmetry_Int_Tables_number   1
_chemical_formula_structural   ZnH8C8Br2NO2
_chemical_formula_sum   'Zn4 H32 C32 Br8 N4 O8'
_cell_volume   1106.32624289
_cell_formula_units_Z   4
loop_
 _symmetry_equiv_pos_site_id
 _symmetry_equiv_pos_as_xyz
  1  'x, y, z'
loop_
 _atom_site_type_symbol
 _atom_site_label
 _atom_site_symmetry_multiplicity
 _atom_site_fract_x
 _atom_site_fract_y
 _atom_site_fract_z
 _atom_site_occupancy
 _atom_site_hle17_bader_spin_density
 _atom_site_hle17_ddec_charge
 _atom_site_hle17_ddec_spin_density
 _atom_site_hle17_ddec_sum_bond_order
 _atom_site_hle17_magmom
 _atom_site_hse06_10hf_bader_spin_density
 _atom_site_hse06_10hf_ddec_charge
 _atom_site_hse06_10hf_ddec_spin_density
 _atom_site_hse06_10hf_ddec_sum_bond_order
 _atom_site_hse06_10hf_magmom
 _atom_site_hse06_bader_spin_density
 _atom_site_hse06_ddec_charge
 _atom_site_hse06_ddec_spin_density
 _atom_site_hse06_ddec_sum_bond_order
 _atom_site_hse06_magmom
 _atom_site_pbe_bader_spin_density
 _atom_site_pbe_cm5_charge
 _atom_site_pbe_ddec_charge
 _atom_site_pbe_ddec_spin_density
 _atom_site_pbe_ddec_sum_bond_order
 _atom_site_pbe_magmom
Zn  Zn0  1  0.23328087  0.37943666  0.28206821  1  0  0.909366  0  2.077712  0  0  0.751422  0  2.571105  0  0  0.800032  0  2.512903  0  0  0.485014  0.717593  0  2.61073  0
Zn  Zn1  1  0.76672162  0.62056277  0.71792832  1  0  0.909347  0  2.077789  0  0  0.751436  0  2.571129  0  0  0.80002  0  2.512938  0  0  0.485036  0.717608  0  2.61076  0
Zn  Zn2  1  0.32882631  0.10398522  0.27418317  1  0  0.922138  0  2.054591  0  0  0.763447  0  2.545858  0  0  0.810801  0  2.488072  0  0  0.503451  0.730371  0  2.585409  0
Zn  Zn3  1  0.67117172  0.89601421  0.72581796  1  0  0.922086  0  2.05462  0  0  0.763398  0  2.5459  0  0  0.81074  0  2.488105  0  0  0.503438  0.730321  0  2.585474  0
H  H4  1  0.01459309  0.39403161  0.51947586  1  0  0.108938  0  0.944966  0  0  0.114211  0  1.012576  0  0  0.117533  0  1.008501  0  0  0.126203  0.111681  0  1.015669  0
H  H5  1  0.98540568  0.60597591  0.48052671  1  0  0.109004  0  0.944967  0  0  0.11426  0  1.012577  0  0  0.117582  0  1.0085  0  0  0.126198  0.111741  0  1.01566  0
H  H6  1  0.80455620  0.11807021  0.70898455  1  0  0.092573  0  0.968402  0  0  0.095641  0  1.044913  0  0  0.09862  0  1.041931  0  0  0.11757  0.093337  0  1.047244  0
H  H7  1  0.19543371  0.88193569  0.29101484  1  0  0.092601  0  0.968524  0  0  0.095669  0  1.044954  0  0  0.098649  0  1.041971  0  0  0.117593  0.093364  0  1.047287  0
H  H8  1  0.84712201  0.35288735  0.02672504  1  0  0.104166  0  0.951616  0  0  0.111122  0  1.024073  0  0  0.11403  0  1.021568  0  0  0.104965  0.1089  0  1.026013  0
H  H9  1  0.15289679  0.64709831  0.97327512  1  0  0.104161  0  0.951602  0  0  0.111096  0  1.024111  0  0  0.114005  0  1.021606  0  0  0.104918  0.108871  0  1.026051  0
H  H10  1  0.93177169  0.21876037  0.01548364  1  0  0.086297  0  0.943463  0  0  0.100189  0  1.007517  0  0  0.101781  0  1.006274  0  0  0.098604  0.098974  0  1.008492  0
H  H11  1  0.06822774  0.78122449  0.98451942  1  0  0.086361  0  0.943351  0  0  0.100245  0  1.007457  0  0  0.101843  0  1.00621  0  0  0.09863  0.099025  0  1.008434  0
H  H12  1  0.60509604  0.43859822  0.93208502  1  0  0.129033  0  0.950451  0  0  0.131217  0  1.017573  0  0  0.135396  0  1.012578  0  0  0.129564  0.128025  0  1.021448  0
H  H13  1  0.39492484  0.56139716  0.06791550  1  0  0.12902  0  0.950488  0  0  0.131197  0  1.01764  0  0  0.135375  0  1.01264  0  0  0.129544  0.128007  0  1.021512  0
H  H14  1  0.42135023  0.09473820  0.84967190  1  0  0.112357  0  0.977083  0  0  0.11657  0  1.047179  0  0  0.12024  0  1.045461  0  0  0.099048  0.113912  0  1.048558  0
H  H15  1  0.57863565  0.90526284  0.15032850  1  0  0.112402  0  0.977039  0  0  0.116583  0  1.047173  0  0  0.120254  0  1.045456  0  0  0.099057  0.113923  0  1.048559  0
H  H16  1  0.68388902  0.10288944  0.97200031  1  0  0.102612  0  0.944776  0  0  0.111135  0  1.008304  0  0  0.114247  0  1.005257  0  0  0.118093  0.108802  0  1.01064  0
H  H17  1  0.31610949  0.89710433  0.02799440  1  0  0.102601  0  0.944827  0  0  0.111156  0  1.008328  0  0  0.114275  0  1.005263  0  0  0.118088  0.10876  0  1.010733  0
H  H18  1  0.27622355  0.41165143  0.64118951  1  0  0.130732  0  0.958968  0  0  0.135508  0  1.025141  0  0  0.139671  0  1.02317  0  0  0.104508  0.132431  0  1.026874  0
H  H19  1  0.72376934  0.58835527  0.35881710  1  0  0.130698  0  0.958933  0  0  0.135468  0  1.025136  0  0  0.139631  0  1.023164  0  0  0.1045  0.132394  0  1.026869  0
H  H20  1  0.33801728  0.44426158  0.80884416  1  0  0.13625  0  0.968453  0  0  0.140576  0  1.03327  0  0  0.144945  0  1.030529  0  0  0.105121  0.137345  0  1.035559  0
H  H21  1  0.66199561  0.55573946  0.19116074  1  0  0.136207  0  0.96846  0  0  0.140534  0  1.033295  0  0  0.144901  0  1.03056  0  0  0.105088  0.137303  0  1.035588  0
H  H22  1  0.66931401  0.14264198  0.14823928  1  0  0.092069  0  0.971356  0  0  0.099882  0  1.048218  0  0  0.10232  0  1.046547  0  0  0.087545  0.098108  0  1.049485  0
H  H23  1  0.33068466  0.85735096  0.85176527  1  0  0.092153  0  0.971281  0  0  0.099938  0  1.048169  0  0  0.102373  0  1.0465  0  0  0.087591  0.098157  0  1.049435  0
H  H24  1  0.84240266  0.21963023  0.19265050  1  0  0.136797  0  0.909617  0  0  0.153367  0  0.96496  0  0  0.155188  0  0.96508  0  0  0.110269  0.151994  0  0.965033  0
H  H25  1  0.15759882  0.78036434  0.80735069  1  0  0.136766  0  0.909612  0  0  0.15333  0  0.96494  0  0  0.155153  0  0.965056  0  0  0.110275  0.151953  0  0.965015  0
H  H26  1  0.73307221  0.32245499  0.48412549  1  0  0.097119  0  0.932581  0  0  0.107488  0  1.000114  0  0  0.109846  0  0.997917  0  0  0.109575  0.105631  0  1.001866  0
H  H27  1  0.26693722  0.67755010  0.51586980  1  0  0.09719  0  0.932631  0  0  0.107559  0  1.000129  0  0  0.109908  0  0.997928  0  0  0.109624  0.105702  0  1.001877  0
H  H28  1  0.61502404  0.22189351  0.57721683  1  0  0.088209  0  0.933089  0  0  0.100705  0  0.999357  0  0  0.102232  0  0.998388  0  0  0.10409  0.099516  0  1.000135  0
H  H29  1  0.38496988  0.77811725  0.42277930  1  0  0.088235  0  0.933196  0  0  0.100735  0  0.999425  0  0  0.102238  0  0.998478  0  0  0.104089  0.099543  0  1.000211  0
H  H30  1  0.06169678  0.11994537  0.83577470  1  0  0.11883  0  0.945579  0  0  0.125836  0  1.010115  0  0  0.129411  0  1.008445  0  0  0.107957  0.123187  0  1.011564  0
H  H31  1  0.93829029  0.88005891  0.16422581  1  0  0.118812  0  0.945516  0  0  0.12581  0  1.010072  0  0  0.129383  0  1.008404  0  0  0.107926  0.123164  0  1.011517  0
H  H32  1  0.86677206  0.07828060  0.53061432  1  0  0.126715  0  0.944201  0  0  0.136489  0  1.010832  0  0  0.139491  0  1.009478  0  0  0.102321  0.134331  0  1.011844  0
H  H33  1  0.13322111  0.92172288  0.46938990  1  0  0.12671  0  0.944213  0  0  0.136511  0  1.010853  0  0  0.139514  0  1.0095  0  0  0.102323  0.13435  0  1.011867  0
H  H34  1  0.70530486  0.13668846  0.43448821  1  0  0.13205  0  0.932487  0  0  0.146947  0  0.990471  0  0  0.149579  0  0.989614  0  0  0.102227  0.144989  0  0.991232  0
H  H35  1  0.29469728  0.86331502  0.56551280  1  0  0.132108  0  0.932483  0  0  0.146996  0  0.990521  0  0  0.14963  0  0.989662  0  0  0.102247  0.145039  0  0.991279  0
C  C36  1  0.02878426  0.33835395  0.59199127  1  0  0.121432  0  3.590736  0  0  0.074563  0  3.846709  0  0  0.084858  0  3.859737  0  0  0.073001  0.067701  0  3.838353  0
C  C37  1  0.97121466  0.66165195  0.40801086  1  0  0.121217  0  3.590708  0  0  0.074415  0  3.846653  0  0  0.084711  0  3.85968  0  0  0.073008  0.067548  0  3.838294  0
C  C38  1  0.55351191  0.29940732  0.17445791  1  0  0.702637  0  3.791488  0  0  0.655844  0  4.08148  0  0  0.689192  0  4.075381  0  0  0.211391  0.633071  0  4.085044  0
C  C39  1  0.44649951  0.70059292  0.82554122  1  0  0.702559  0  3.791411  0  0  0.655615  0  4.081596  0  0  0.688926  0  4.075534  0  0  0.211261  0.632853  0  4.085144  0
C  C40  1  0.91306412  0.18074955  0.69841326  1  0  0.107467  0  3.591033  0  0  0.067378  0  3.838886  0  0  0.075113  0  3.855295  0  0  0.066441  0.06235  0  3.828025  0
C  C41  1  0.08692579  0.81925636  0.30158687  1  0  0.107326  0  3.591189  0  0  0.067397  0  3.83887  0  0  0.075134  0  3.855274  0  0  0.066379  0.062367  0  3.828019  0
C  C42  1  0.80147134  0.26983499  0.03341114  1  0  -0.004271  0  3.601243  0  0  -0.069758  0  3.859616  0  0  -0.065927  0  3.869199  0  0  -0.060104  -0.072028  0  3.852912  0
C  C43  1  0.19853826  0.73015310  0.96659030  1  0  -0.004345  0  3.60124  0  0  -0.069982  0  3.859794  0  0  -0.066154  0  3.869369  0  0  -0.060179  -0.072246  0  3.853076  0
C  C44  1  0.55727369  0.36536431  0.91165479  1  0  0.121368  0  3.545294  0  0  0.078673  0  3.795081  0  0  0.088552  0  3.806941  0  0  0.075231  0.072074  0  3.787566  0
C  C45  1  0.44274420  0.63463107  0.08834656  1  0  0.121343  0  3.545476  0  0  0.078573  0  3.795235  0  0  0.088461  0  3.807085  0  0  0.075178  0.071964  0  3.787723  0
C  C46  1  0.45246667  0.17235649  0.86769106  1  0  -0.139598  0  3.720413  0  0  -0.162572  0  3.97826  0  0  -0.169827  0  3.998061  0  0  -0.077834  -0.158058  0  3.965261  0
C  C47  1  0.54752228  0.82764375  0.13230866  1  0  -0.139537  0  3.72043  0  0  -0.162479  0  3.97828  0  0  -0.169738  0  3.998083  0  0  -0.077776  -0.157966  0  3.965267  0
C  C48  1  0.35263942  0.26908938  0.82039981  1  0  0.104901  0  3.706929  0  0  0.115236  0  3.939806  0  0  0.120347  0  3.958532  0  0  0.023419  0.112003  0  3.927184  0
C  C49  1  0.64735548  0.73091167  0.17960407  1  0  0.104738  0  3.707095  0  0  0.115218  0  3.939922  0  0  0.120339  0  3.958635  0  0  0.023398  0.111982  0  3.927306  0
C  C50  1  0.60040779  0.17557003  0.93494904  1  0  0.090947  0  3.624872  0  0  0.048131  0  3.878304  0  0  0.055354  0  3.894759  0  0  0.055387  0.04303  0  3.86814  0
C  C51  1  0.39958903  0.82442616  0.06505048  1  0  0.091001  0  3.625125  0  0  0.04804  0  3.878568  0  0  0.055264  0  3.895026  0  0  0.055322  0.042996  0  3.868405  0
C  C52  1  0.17339310  0.34611452  0.66030898  1  0  -0.12453  0  3.651569  0  0  -0.145099  0  3.906557  0  0  -0.152907  0  3.924465  0  0  -0.063409  -0.140411  0  3.895156  0
C  C53  1  0.82659852  0.65388976  0.33969812  1  0  -0.124461  0  3.651218  0  0  -0.145011  0  3.906339  0  0  -0.152817  0  3.924251  0  0  -0.063432  -0.140324  0  3.894942  0
C  C54  1  0.41047008  0.36663048  0.84205809  1  0  -0.11031  0  3.643444  0  0  -0.133022  0  3.894896  0  0  -0.139324  0  3.911653  0  0  -0.064185  -0.129422  0  3.884355  0
C  C55  1  0.58953087  0.63336975  0.15794355  1  0  -0.110222  0  3.643528  0  0  -0.132968  0  3.894979  0  0  -0.139281  0  3.91174  0  0  -0.064166  -0.129367  0  3.884443  0
C  C56  1  0.71858183  0.22547225  0.14031622  1  0  -0.292589  0  3.686125  0  0  -0.331785  0  3.933561  0  0  -0.338791  0  3.942606  0  0  -0.165892  -0.326822  0  3.927156  0
C  C57  1  0.28142885  0.77451989  0.85968145  1  0  -0.292574  0  3.686068  0  0  -0.331671  0  3.933571  0  0  -0.338688  0  3.942672  0  0  -0.165919  -0.326703  0  3.927153  0
C  C58  1  0.19222337  0.26700257  0.74927250  1  0  0.122528  0  3.709953  0  0  0.128621  0  3.946517  0  0  0.13476  0  3.964636  0  0  0.028631  0.124638  0  3.934301  0
C  C59  1  0.80776956  0.73300333  0.25073054  1  0  0.122623  0  3.709838  0  0  0.128481  0  3.946739  0  0  0.134614  0  3.964865  0  0  0.028608  0.124501  0  3.934524  0
C  C60  1  0.75629973  0.24387063  0.53519273  1  0  0.009228  0  3.587178  0  0  -0.059143  0  3.848573  0  0  -0.054424  0  3.857767  0  0  -0.056598  -0.062071  0  3.842261  0
C  C61  1  0.24369899  0.75613689  0.46480463  1  0  0.00891  0  3.587487  0  0  -0.059354  0  3.848787  0  0  -0.054602  0  3.857978  0  0  -0.05671  -0.062282  0  3.842479  0
C  C62  1  0.05700402  0.18366220  0.76783576  1  0  -0.130071  0  3.689818  0  0  -0.153027  0  3.945973  0  0  -0.160044  0  3.964807  0  0  -0.0717  -0.148682  0  3.933594  0
C  C63  1  0.94298758  0.81634208  0.23216836  1  0  -0.130022  0  3.689843  0  0  -0.152977  0  3.946062  0  0  -0.159991  0  3.964901  0  0  -0.071625  -0.148628  0  3.933682  0
C  C64  1  0.82952202  0.15501380  0.47833042  1  0  -0.301745  0  3.65747  0  0  -0.336859  0  3.900127  0  0  -0.345257  0  3.908716  0  0  -0.165713  -0.330985  0  3.894056  0
C  C65  1  0.17047720  0.84498887  0.52167155  1  0  -0.301606  0  3.657437  0  0  -0.336859  0  3.900295  0  0  -0.345259  0  3.908878  0  0  -0.165691  -0.330968  0  3.894181  0
C  C66  1  0.00535334  0.18385239  0.40398746  1  0  0.734809  0  3.790279  0  0  0.685699  0  4.083381  0  0  0.7216  0  4.074945  0  0  0.222365  0.661262  0  4.088324  0
C  C67  1  0.99464770  0.81614704  0.59601508  1  0  0.734887  0  3.790172  0  0  0.685801  0  4.083305  0  0  0.721705  0  4.074863  0  0  0.222422  0.66138  0  4.088238  0
Br  Br68  1  0.21043886  0.07610526  0.11457909  1  0  -0.559158  0  0.937324  0  0  -0.496675  0  1.220988  0  0  -0.516155  0  1.196966  0  0  -0.275505  -0.482156  0  1.237312  0
Br  Br69  1  0.78954138  0.92389254  0.88542654  1  0  -0.559196  0  0.937348  0  0  -0.496676  0  1.220977  0  0  -0.516155  0  1.19696  0  0  -0.275502  -0.482169  0  1.237312  0
Br  Br70  1  0.57902406  0.97173205  0.34268693  1  0  -0.526266  0  0.971634  0  0  -0.463229  0  1.258153  0  0  -0.483526  0  1.234961  0  0  -0.256265  -0.448531  0  1.273964  0
Br  Br71  1  0.42095287  0.02825281  0.65731301  1  0  -0.526286  0  0.971602  0  0  -0.463252  0  1.258139  0  0  -0.483549  0  1.234955  0  0  -0.256293  -0.448561  0  1.273949  0
Br  Br72  1  0.37801046  0.47687260  0.39199392  1  0  -0.539751  0  0.999887  0  0  -0.479666  0  1.303291  0  0  -0.500893  0  1.278621  0  0  -0.278185  -0.463932  0  1.319975  0
Br  Br73  1  0.62197018  0.52313573  0.60800004  1  0  -0.539777  0  0.999888  0  0  -0.479685  0  1.303245  0  0  -0.500906  0  1.278579  0  0  -0.278183  -0.463948  0  1.319938  0
Br  Br74  1  0.03013882  0.47218138  0.15068066  1  0  -0.524929  0  1.026215  0  0  -0.46742  0  1.32828  0  0  -0.488233  0  1.303461  0  0  -0.264947  -0.452115  0  1.345145  0
Br  Br75  1  0.96990895  0.52781240  0.84929186  1  0  -0.524895  0  1.026217  0  0  -0.467453  0  1.32838  0  0  -0.488257  0  1.303558  0  0  -0.264924  -0.452128  0  1.345227  0
N  N76  1  0.64931469  0.27074233  0.95668007  1  0  0.000285  0  3.526303  0  0  0.098719  0  3.730353  0  0  0.08512  0  3.756798  0  0  -0.204832  0.107508  0  3.712549  0
N  N77  1  0.35069585  0.72925144  0.04331954  1  0  0.000156  0  3.526759  0  0  0.098876  0  3.730576  0  0  0.085277  0  3.757021  0  0  -0.204686  0.107675  0  3.712747  0
N  N78  1  0.90268593  0.25629250  0.61130995  1  0  0.002323  0  3.51282  0  0  0.099598  0  3.718534  0  0  0.086005  0  3.744192  0  0  -0.201965  0.10833  0  3.701304  0
N  N79  1  0.09730690  0.74371421  0.38868995  1  0  0.002511  0  3.512706  0  0  0.099681  0  3.718385  0  0  0.086088  0  3.744036  0  0  -0.201936  0.108409  0  3.701162  0
O  O80  1  0.42793382  0.25587696  0.24894320  1  0  -0.668291  0  2.184755  0  0  -0.569361  0  2.474243  0  0  -0.602372  0  2.454047  0  0  -0.337316  -0.546405  0  2.487547  0
O  O81  1  0.57207035  0.74412085  0.75105658  1  0  -0.668127  0  2.184628  0  0  -0.569158  0  2.474189  0  0  -0.602103  0  2.45395  0  0  -0.337259  -0.546207  0  2.487497  0
O  O82  1  0.53933079  0.39685915  0.13684141  1  0  -0.564562  0  1.982153  0  0  -0.513734  0  2.211933  0  0  -0.537702  0  2.205572  0  0  -0.285021  -0.496921  0  2.215902  0
O  O83  1  0.46069000  0.60313704  0.86315672  1  0  -0.564565  0  1.981936  0  0  -0.513651  0  2.211764  0  0  -0.537618  0  2.205435  0  0  -0.284956  -0.496847  0  2.215729  0
O  O84  1  0.09629403  0.10490847  0.37094028  1  0  -0.625527  0  2.08885  0  0  -0.553305  0  2.363456  0  0  -0.582496  0  2.347124  0  0  -0.323463  -0.533034  0  2.374062  0
O  O85  1  0.90372057  0.89509094  0.62907233  1  0  -0.625589  0  2.088779  0  0  -0.553372  0  2.363402  0  0  -0.582561  0  2.347065  0  0  -0.32351  -0.533113  0  2.374019  0
O  O86  1  0.04551765  0.28266847  0.37941436  1  0  -0.632536  0  2.108665  0  0  -0.559507  0  2.376199  0  0  -0.588339  0  2.361413  0  0  -0.319022  -0.539468  0  2.385683  0
O  O87  1  0.95447440  0.71733016  0.62057962  1  0  -0.632575  0  2.108757  0  0  -0.559526  0  2.376261  0  0  -0.588364  0  2.36149  0  0  -0.319029  -0.539494  0  2.38575  0
