# generated using pymatgen
data_Sm2CuH16C32(N2O13)2
_symmetry_space_group_name_H-M   'P 1'
_cell_length_a   9.85529656
_cell_length_b   10.42072337
_cell_length_c   11.07122898
_cell_angle_alpha   69.63827381
_cell_angle_beta   84.84444335
_cell_angle_gamma   70.73422827
_symmetry_Int_Tables_number   1
_chemical_formula_structural   Sm2CuH16C32(N2O13)2
_chemical_formula_sum   'Sm2 Cu1 H16 C32 N4 O26'
_cell_volume   1005.86582020
_cell_formula_units_Z   1
loop_
 _symmetry_equiv_pos_site_id
 _symmetry_equiv_pos_as_xyz
  1  'x, y, z'
loop_
 _atom_site_type_symbol
 _atom_site_label
 _atom_site_symmetry_multiplicity
 _atom_site_fract_x
 _atom_site_fract_y
 _atom_site_fract_z
 _atom_site_occupancy
 _atom_site_hle17_ddec_charge
 _atom_site_hle17_ddec_spin_density
 _atom_site_hle17_ddec_sum_bond_order
 _atom_site_hle17_magmom
 _atom_site_hse06_10hf_ddec_charge
 _atom_site_hse06_10hf_ddec_spin_density
 _atom_site_hse06_10hf_ddec_sum_bond_order
 _atom_site_hse06_10hf_magmom
 _atom_site_hse06_ddec_charge
 _atom_site_hse06_ddec_spin_density
 _atom_site_hse06_ddec_sum_bond_order
 _atom_site_hse06_magmom
 _atom_site_pbe_cm5_charge
 _atom_site_pbe_ddec_charge
 _atom_site_pbe_ddec_spin_density
 _atom_site_pbe_ddec_sum_bond_order
 _atom_site_pbe_magmom
Sm  Sm0  1  0.40375025  0.40744926  0.41596618  1  2.313182  -0.00038  1.613732  0.0  2.22667  -0.000133  1.956941  0.0  2.27009  -0.000324  1.91583  0.0  1.512439  2.128656  0.00016  2.109904  0.0
Sm  Sm1  1  0.59625041  0.59255107  0.58403562  1  2.313191  -0.000379  1.613745  0.0  2.226674  -0.000141  1.956957  0.0  2.270092  -0.000331  1.915846  0.0  1.512486  2.128675  0.00016  2.109902  0.0
Cu  Cu2  1  0.49999826  0.99999959  0.50000070  1  1.119795  0.707261  1.645832  0.54  1.132626  0.809085  2.041245  0.676  1.220386  0.871744  1.977599  0.766  0.773358  1.073444  0.758284  2.085697  0.61
H  H3  1  0.92047703  0.35876268  0.48329846  1  0.133035  0.00011  0.916298  0.0  0.139879  9.4e-05  0.979497  0.0  0.144776  4.6e-05  0.975025  0.0  0.128052  0.136411  0.000114  0.982628  0.0
H  H4  1  0.07952669  0.64124085  0.51670568  1  0.133084  0.000102  0.916227  0.0  0.139891  9.4e-05  0.979449  0.0  0.144788  4.6e-05  0.974979  0.0  0.128073  0.136429  0.000114  0.982581  0.0
H  H5  1  0.81309484  0.96606111  0.66497689  1  0.123172  -9.2e-05  0.949303  0.0  0.12826  -0.0001  1.017651  0.0  0.131908  -8.6e-05  1.014383  0.0  0.11744  0.125208  -9.5e-05  1.020672  0.0
H  H6  1  0.18689758  0.03394909  0.33501158  1  0.123129  -0.000129  0.949327  0.0  0.128265  -0.000101  1.017628  0.0  0.131914  -8.5e-05  1.014361  0.0  0.117421  0.125211  -9.5e-05  1.020645  0.0
H  H7  1  0.25421638  0.95331125  0.65412113  1  0.132459  -0.00033  0.953926  0.0  0.131687  -0.000237  1.030188  0.0  0.136435  -0.000263  1.025109  0.0  0.119891  0.127957  -0.000189  1.03439  0.0
H  H8  1  0.74577712  0.04668914  0.34587761  1  0.132527  -0.000316  0.954044  0.0  0.131731  -0.000236  1.030288  0.0  0.136481  -0.000263  1.025208  0.0  0.119902  0.127988  -0.000189  1.034495  0.0
H  H9  1  0.45135242  0.37258541  0.97840231  1  0.133504  -0.000149  0.907051  0.0  0.14297  -1.5e-05  0.9644  0.0  0.147183  -1.2e-05  0.960539  0.0  0.126014  0.139451  -9e-06  0.968081  0.0
H  H10  1  0.54864757  0.62741060  0.02160092  1  0.133496  -0.00014  0.907063  0.0  0.142965  -1.5e-05  0.964413  0.0  0.147178  -1.3e-05  0.96055  0.0  0.126022  0.139449  -9e-06  0.968091  0.0
H  H11  1  0.34977649  0.98705329  0.20325272  1  0.126847  4e-06  0.951275  0.0  0.132037  5e-05  1.017784  0.0  0.135675  1.8e-05  1.014486  0.0  0.119582  0.129203  7.8e-05  1.020534  0.0
H  H12  1  0.65022044  0.01294595  0.79675153  1  0.126819  7e-06  0.951374  0.0  0.132109  5e-05  1.017771  0.0  0.135747  1.8e-05  1.014471  0.0  0.119584  0.129266  7.8e-05  1.020524  0.0
H  H13  1  0.29157052  0.15079617  0.78982868  1  0.138715  -8.9e-05  0.930499  0.0  0.142776  4.1e-05  0.995814  0.0  0.147096  1.5e-05  0.991807  0.0  0.121212  0.139392  1.8e-05  0.999263  0.0
H  H14  1  0.70844679  0.84919664  0.21016966  1  0.138706  -5.9e-05  0.93047  0.0  0.142721  4e-05  0.995848  0.0  0.147042  1.4e-05  0.991839  0.0  0.121211  0.139342  1.8e-05  0.999293  0.0
H  H15  1  0.22841542  0.67717659  0.18223982  1  0.444533  0.0  0.84029  0.0  0.413355  -2e-06  0.902495  0.0  0.424391  -2e-06  0.885939  0.0  0.310098  0.405221  -4e-06  0.914597  0.0
H  H16  1  0.77158252  0.32282267  0.81776254  1  0.444471  -1e-06  0.84038  0.0  0.413294  -3e-06  0.902583  0.0  0.424329  -2e-06  0.886029  0.0  0.310074  0.405163  -4e-06  0.914681  0.0
H  H17  1  0.15271506  0.55663729  0.21892854  1  0.450947  1e-06  0.794786  0.0  0.438406  7e-06  0.834517  0.0  0.446092  3e-06  0.823557  0.0  0.342907  0.432653  6e-06  0.842581  0.0
H  H18  1  0.84728932  0.44335772  0.78106833  1  0.450907  -1e-06  0.794845  0.0  0.438373  7e-06  0.834556  0.0  0.446058  3e-06  0.8236  0.0  0.342902  0.43262  6e-06  0.842619  0.0
C  C19  1  0.09821172  0.16395438  0.56030517  1  -0.061213  -0.000118  3.715168  0.0  -0.033911  -0.000316  3.948485  0.0  -0.045964  -0.000303  3.971178  0.0  -0.006628  -0.027097  -0.000293  3.935028  0.0
C  C20  1  0.90178892  0.83604919  0.43969650  1  -0.061108  -0.000175  3.715251  0.0  -0.033887  -0.000311  3.948562  0.0  -0.045941  -0.000301  3.971259  0.0  -0.006651  -0.02708  -0.000293  3.935111  0.0
C  C21  1  0.95173555  0.24285179  0.53541435  1  -0.009245  -0.000705  3.597325  0.0  -0.05666  -0.000219  3.851953  0.0  -0.049784  -0.000251  3.866674  0.0  -0.045445  -0.062254  -0.000102  3.844377  0.0
C  C22  1  0.04826509  0.75715180  0.46458460  1  -0.009273  -0.00058  3.597214  0.0  -0.056621  -0.000227  3.851818  0.0  -0.049748  -0.000252  3.866543  0.0  -0.045409  -0.062229  -0.000102  3.844262  0.0
C  C23  1  0.84898926  0.17183488  0.57121424  1  -0.055283  0.000236  3.72713  0.0  -0.029105  2.9e-05  3.962007  0.0  -0.040689  4.6e-05  3.985435  0.0  -0.007533  -0.022597  3.1e-05  3.948081  0.0
C  C24  1  0.15101033  0.82817201  0.42877923  1  -0.055242  0.000163  3.727033  0.0  -0.029033  3.4e-05  3.961951  0.0  -0.040617  4.2e-05  3.985382  0.0  -0.007546  -0.02253  3.1e-05  3.948031  0.0
C  C25  1  0.89124692  0.02356180  0.63913167  1  -0.078369  -0.000167  3.690237  0.0  -0.119009  -5.1e-05  3.946517  0.0  -0.114499  -0.00012  3.96474  0.0  -0.063343  -0.120231  -0.000111  3.933975  0.0
C  C26  1  0.10874859  0.97644509  0.36086303  1  -0.078502  5.7e-05  3.690383  0.0  -0.119205  -5.7e-05  3.946635  0.0  -0.114703  -0.000122  3.964862  0.0  -0.063384  -0.120415  -0.000111  3.934081  0.0
C  C27  1  0.03575348  0.94973287  0.67268867  1  0.05726  0.0001  3.697455  0.0  0.055993  1e-06  3.950738  0.0  0.050268  2.1e-05  3.974475  0.0  0.076017  0.058987  6e-06  3.934649  0.0
C  C28  1  0.96423933  0.05027290  0.32730931  1  0.057419  -8e-06  3.697505  0.0  0.056215  8e-06  3.950649  0.0  0.050506  2.7e-05  3.974368  0.0  0.076022  0.059208  6e-06  3.934548  0.0
C  C29  1  0.14150548  0.01626436  0.63170992  1  -0.054654  -0.000234  3.644873  0.0  -0.094838  -0.000239  3.901583  0.0  -0.08925  -0.000362  3.917167  0.0  -0.056206  -0.096965  -0.000328  3.891224  0.0
C  C30  1  0.85848803  0.98373924  0.36828960  1  -0.054819  -0.000218  3.645081  0.0  -0.094938  -0.000245  3.901707  0.0  -0.089353  -0.000361  3.917283  0.0  -0.056168  -0.097051  -0.000328  3.891347  0.0
C  C31  1  0.20357855  0.24209850  0.50409305  1  0.670565  -0.000982  3.880594  0.001  0.630055  0.002215  4.169119  0.004  0.66819  0.002158  4.158764  0.004  0.214706  0.604166  0.002158  4.169558  0.004
C  C32  1  0.79642450  0.75790394  0.49591240  1  0.670447  -0.000989  3.880798  0.001  0.629983  0.002214  4.169266  0.004  0.668118  0.002156  4.158912  0.004  0.214655  0.604099  0.002157  4.169698  0.004
C  C33  1  0.69565239  0.25172552  0.52950365  1  0.707782  -1.8e-05  3.862807  0.0  0.664711  -5.1e-05  4.15147  0.0  0.700248  -3.1e-05  4.140543  0.0  0.222946  0.641286  -6.6e-05  4.150319  0.0
C  C34  1  0.30434651  0.74828351  0.47049100  1  0.707923  2.3e-05  3.862369  0.0  0.664684  -5.1e-05  4.151305  0.0  0.700224  -2.8e-05  4.140381  0.0  0.222927  0.641261  -6.6e-05  4.15016  0.0
C  C35  1  0.37633324  0.26984747  0.87161038  1  -0.052299  -3.6e-05  3.685252  0.0  -0.029797  8.6e-05  3.926189  0.0  -0.040807  -0.000164  3.949295  0.0  -0.005328  -0.0236  0.000323  3.912217  0.0
C  C36  1  0.62367049  0.73014959  0.12839492  1  -0.051987  1.8e-05  3.684684  0.0  -0.029655  7.9e-05  3.92595  0.0  -0.040666  -0.000168  3.949057  0.0  -0.005232  -0.023458  0.000323  3.911984  0.0
C  C37  1  0.41091564  0.28483407  0.98517599  1  -0.014925  0.002574  3.598309  0.003  -0.062695  0.001715  3.854254  0.002  -0.057006  0.00113  3.870673  0.001  -0.049524  -0.065814  0.002015  3.844055  0.002
C  C38  1  0.58909048  0.71515868  0.01482869  1  -0.014945  0.002531  3.598034  0.003  -0.062704  0.001722  3.854011  0.002  -0.057015  0.00113  3.870428  0.001  -0.04956  -0.065828  0.002016  3.843819  0.002
C  C39  1  0.39971950  0.18398381  0.10499609  1  -0.049723  0.009009  3.708779  0.01  -0.024949  0.004473  3.944417  0.005  -0.036738  0.002661  3.967797  0.004  -0.006736  -0.017603  0.005861  3.92945  0.007
C  C40  1  0.60028015  0.81601007  0.89500604  1  -0.049898  0.009055  3.708857  0.01  -0.025011  0.004468  3.94428  0.005  -0.0368  0.002662  3.967661  0.004  -0.006771  -0.017666  0.005861  3.929303  0.007
C  C41  1  0.35097582  0.07028710  0.11147004  1  -0.080013  0.000941  3.693179  0.001  -0.122571  0.000289  3.955018  0.0  -0.117926  0.000225  3.972538  0.0  -0.066349  -0.125861  0.000636  3.943635  0.0
C  C42  1  0.64902927  0.92970568  0.88853290  1  -0.0799  0.000908  3.69318  0.001  -0.12259  0.000295  3.954973  0.0  -0.117948  0.000225  3.972494  0.0  -0.066357  -0.125869  0.000636  3.943577  0.0
C  C43  1  0.30613998  0.06422309  0.99870642  1  0.062119  -0.001491  3.730202  -0.001  0.050166  -0.000391  3.986243  0.0  0.043578  -0.00043  4.010819  0.0  0.07544  0.054467  -0.000371  3.969425  0.0
C  C44  1  0.69386169  0.93577725  0.00129438  1  0.062096  -0.001443  3.730166  -0.001  0.050186  -0.000402  3.986234  0.0  0.043601  -0.000432  4.010809  0.0  0.07548  0.054484  -0.000371  3.969418  0.0
C  C45  1  0.31941433  0.16133128  0.87794677  1  -0.063977  0.002812  3.641899  0.003  -0.102234  0.001129  3.89528  0.001  -0.097341  0.000754  3.911592  0.001  -0.056742  -0.105383  0.001338  3.884861  0.001
C  C46  1  0.68059041  0.83866582  0.12205482  1  -0.064069  0.002719  3.641823  0.002  -0.102224  0.001135  3.895261  0.001  -0.097332  0.000761  3.911571  0.001  -0.056782  -0.105376  0.001338  3.88485  0.001
C  C47  1  0.40980469  0.36290464  0.74152531  1  0.717491  0.000134  3.854495  0.0  0.672247  7.8e-05  4.149276  0.0  0.707629  3.8e-05  4.138541  0.0  0.234099  0.647966  9.7e-05  4.151861  0.0
C  C48  1  0.59020857  0.63708808  0.25848151  1  0.717303  0.000153  3.854771  0.0  0.671918  7.7e-05  4.149877  0.0  0.707302  3.9e-05  4.139145  0.0  0.233904  0.647626  9.7e-05  4.152477  0.0
C  C49  1  0.44105275  0.18883830  0.23046700  1  0.695464  -0.005705  3.850328  -0.006  0.657861  -0.00028  4.13964  -0.001  0.696591  -0.000436  4.129858  0.0  0.234177  0.63095  0.000221  4.144172  -0.001
C  C50  1  0.55893567  0.81115883  0.76953409  1  0.695105  -0.005784  3.850724  -0.006  0.657632  -0.000278  4.13973  -0.001  0.696361  -0.000432  4.129952  0.0  0.234095  0.630726  0.00022  4.144259  -0.001
N  N51  1  0.07739747  0.79446992  0.74928142  1  0.495542  -4.6e-05  3.919683  0.0  0.5241  -1e-05  4.221198  0.0  0.544326  6e-06  4.23054  0.0  0.05542  0.51055  4e-06  4.214735  0.0
N  N52  1  0.92259465  0.20553162  0.25071165  1  0.495124  4e-06  3.919852  0.0  0.523636  -8e-06  4.221381  0.0  0.543855  7e-06  4.230729  0.0  0.055265  0.510086  4e-06  4.214915  0.0
N  N53  1  0.24800566  0.94854162  0.00905858  1  0.477892  -2.7e-05  3.942859  0.0  0.533226  -2.8e-05  4.197405  0.0  0.554704  -1.9e-05  4.206512  0.0  0.060559  0.518814  -2.1e-05  4.191548  0.0
N  N54  1  0.75199701  0.05145878  0.99093762  1  0.478025  -1.6e-05  3.942812  0.0  0.533222  -2.7e-05  4.197546  0.0  0.554697  -1.9e-05  4.206654  0.0  0.060551  0.518812  -2.1e-05  4.191682  0.0
O  O55  1  0.33873155  0.17372093  0.50066088  1  -0.735504  0.045677  2.235748  0.065  -0.702081  0.034168  2.531876  0.052  -0.740464  0.025212  2.517991  0.042  -0.374606  -0.669573  0.040504  2.541847  0.058
O  O56  1  0.66126912  0.82627936  0.49934455  1  -0.73555  0.045677  2.235899  0.065  -0.70213  0.034168  2.531972  0.052  -0.740512  0.025212  2.518084  0.042  -0.374647  -0.669626  0.040504  2.54195  0.058
O  O57  1  0.16068475  0.37851301  0.45770417  1  -0.637106  0.015582  1.932365  0.02  -0.603956  0.007904  2.162956  0.011  -0.629618  0.003776  2.153038  0.006  -0.349707  -0.577489  0.013338  2.168805  0.018
O  O58  1  0.83931799  0.62149041  0.54230913  1  -0.637033  0.01558  1.932448  0.02  -0.603897  0.007905  2.163005  0.011  -0.62956  0.003776  2.153089  0.006  -0.349615  -0.577436  0.013339  2.168859  0.018
O  O59  1  0.64274660  0.38376992  0.52313979  1  -0.813441  6.1e-05  2.172862  0.0  -0.768305  -4.2e-05  2.426929  0.0  -0.792637  -4.5e-05  2.415443  0.0  -0.423936  -0.735441  -1.7e-05  2.433935  0.0
O  O60  1  0.35724724  0.61623584  0.47685901  1  -0.813524  4.8e-05  2.172569  0.0  -0.768315  -4.1e-05  2.426684  0.0  -0.792647  -4.6e-05  2.415195  0.0  -0.423934  -0.735452  -1.7e-05  2.433695  0.0
O  O61  1  0.62120554  0.18993354  0.49653805  1  -0.701448  -0.001332  2.022953  0.0  -0.678814  -0.001287  2.294252  0.0  -0.702497  -0.00149  2.279502  0.0  -0.357163  -0.65556  -0.000973  2.305261  0.0
O  O62  1  0.37879676  0.81007443  0.50345485  1  -0.701492  -0.001357  2.022892  0.0  -0.678783  -0.001287  2.294247  0.0  -0.702448  -0.001487  2.279447  0.0  -0.357139  -0.655532  -0.000973  2.305254  0.0
O  O63  1  0.97891121  0.74141668  0.78905407  1  -0.37156  -3.2e-05  1.703229  0.0  -0.35978  3e-06  1.894609  0.0  -0.371604  1e-06  1.891595  0.0  -0.147725  -0.351671  -1e-06  1.896895  0.0
O  O64  1  0.02107547  0.25859559  0.21094143  1  -0.371387  -1.4e-05  1.703201  0.0  -0.359614  -0.0  1.894594  0.0  -0.37144  0.0  1.891588  0.0  -0.147705  -0.351502  -1e-06  1.896874  0.0
O  O65  1  0.20715566  0.72597220  0.76878073  1  -0.32861  8.8e-05  1.737677  0.0  -0.316568  2.8e-05  1.937766  0.0  -0.326937  3.5e-05  1.933801  0.0  -0.11164  -0.30905  4.3e-05  1.940037  0.0
O  O66  1  0.79283679  0.27401864  0.23120669  1  -0.328435  5.5e-05  1.737713  0.0  -0.316364  2.9e-05  1.937794  0.0  -0.326732  3.3e-05  1.933838  0.0  -0.111555  -0.308852  4.3e-05  1.940062  0.0
O  O67  1  0.37636050  0.34034472  0.64447721  1  -0.718319  0.000576  2.053172  0.001  -0.67589  0.000212  2.296457  0.0  -0.701251  6.7e-05  2.287265  0.0  -0.388657  -0.649677  0.000331  2.304213  0.0
O  O68  1  0.62365790  0.65963826  0.35553321  1  -0.718178  0.000556  2.053515  0.001  -0.675664  0.000212  2.296863  0.0  -0.701026  6.7e-05  2.28767  0.0  -0.388552  -0.649444  0.000331  2.304623  0.0
O  O69  1  0.47356566  0.45127129  0.74024674  1  -0.71824  -0.000162  2.013157  0.0  -0.681823  -9.7e-05  2.262555  0.0  -0.706518  -8.1e-05  2.250643  0.0  -0.392993  -0.655167  -4.4e-05  2.272291  0.0
O  O70  1  0.52643532  0.54873122  0.25975343  1  -0.718262  -0.000145  2.013159  0.0  -0.681771  -9.8e-05  2.262644  0.0  -0.706467  -8.8e-05  2.250733  0.0  -0.392936  -0.655111  -4.5e-05  2.272388  0.0
O  O71  1  0.42452979  0.30830120  0.24332339  1  -0.693625  0.000173  2.003344  0.002  -0.660291  0.000316  2.242325  0.001  -0.684043  -0.000258  2.22943  0.0  -0.371332  -0.635036  0.000855  2.254188  0.002
O  O72  1  0.57545793  0.69169815  0.75667254  1  -0.693426  0.000212  2.003441  0.002  -0.660159  0.000315  2.24234  0.001  -0.683918  -0.000262  2.229452  0.0  -0.371265  -0.634907  0.000856  2.254206  0.002
O  O73  1  0.48950207  0.06228627  0.31523825  1  -0.606933  0.080821  2.084218  0.112  -0.590111  0.046272  2.378522  0.071  -0.633205  0.032769  2.367752  0.055  -0.317993  -0.561208  0.055513  2.386922  0.08
O  O74  1  0.51048569  0.93771617  0.68476842  1  -0.606758  0.080833  2.084275  0.112  -0.590014  0.04627  2.378545  0.071  -0.633088  0.032766  2.36774  0.055  -0.317965  -0.561114  0.055508  2.386951  0.08
O  O75  1  0.25534448  0.85429305  0.11780957  1  -0.377022  -0.000186  1.819159  0.0  -0.355467  2.6e-05  2.011515  0.0  -0.371332  9e-06  2.007939  0.0  -0.120094  -0.345486  -3e-06  2.014924  0.0
O  O76  1  0.74465818  0.14570736  0.88218571  1  -0.377068  -0.000114  1.819148  0.0  -0.355481  2.3e-05  2.011563  0.0  -0.371338  7e-06  2.007984  0.0  -0.120106  -0.345502  -3e-06  2.014967  0.0
O  O77  1  0.19450783  0.94932162  0.91191258  1  -0.331407  -0.000264  1.770697  0.0  -0.329607  -0.000133  1.963214  0.0  -0.341025  -0.000156  1.960205  0.0  -0.120001  -0.32247  -0.000118  1.96607  0.0
O  O78  1  0.80549688  0.05067554  0.08808448  1  -0.331479  -0.000336  1.770757  0.0  -0.329616  -0.000129  1.963327  0.0  -0.341034  -0.000155  1.96032  0.0  -0.120002  -0.322478  -0.000118  1.966172  0.0
O  O79  1  0.21620958  0.59213824  0.25141648  1  -0.887461  -5.8e-05  1.85082  0.0  -0.852247  -3.6e-05  2.021472  0.0  -0.868249  -2.3e-05  1.99088  0.0  -0.617996  -0.832819  -4.6e-05  2.048084  0.0
O  O80  1  0.78379210  0.40785566  0.74858368  1  -0.887364  -5.5e-05  1.850937  0.0  -0.852144  -3.6e-05  2.02159  0.0  -0.868145  -2.1e-05  1.990998  0.0  -0.617973  -0.832721  -4.6e-05  2.048199  0.0
