# generated using pymatgen
data_ZnH17C12N5O2
_symmetry_space_group_name_H-M   'P 1'
_cell_length_a   10.42161770
_cell_length_b   17.56893157
_cell_length_c   17.56675285
_cell_angle_alpha   119.98527112
_cell_angle_beta   90.00022082
_cell_angle_gamma   90.00002757
_symmetry_Int_Tables_number   1
_chemical_formula_structural   ZnH17C12N5O2
_chemical_formula_sum   'Zn6 H102 C72 N30 O12'
_cell_volume   2785.90979081
_cell_formula_units_Z   6
loop_
 _symmetry_equiv_pos_site_id
 _symmetry_equiv_pos_as_xyz
  1  'x, y, z'
loop_
 _atom_site_type_symbol
 _atom_site_label
 _atom_site_symmetry_multiplicity
 _atom_site_fract_x
 _atom_site_fract_y
 _atom_site_fract_z
 _atom_site_occupancy
 _atom_site_pbe_bader_charge
 _atom_site_pbe_bader_spin_density
 _atom_site_pbe_cm5_charge
 _atom_site_pbe_ddec_charge
 _atom_site_pbe_ddec_spin_density
 _atom_site_pbe_ddec_sum_bond_order
 _atom_site_pbe_magmom
Zn  Zn0  1  0.86261512  0.53189880  0.07797147  1  1.235302  0  0.707058  0.748235  0  2.417778  0
Zn  Zn1  1  0.69615093  0.07789974  0.54598740  1  1.234475  0  0.707197  0.748831  0  2.417382  0
Zn  Zn2  1  0.52962299  0.54605095  0.46806493  1  1.234196  0  0.707376  0.749188  0  2.417131  0
Zn  Zn3  1  0.36261485  0.46810322  0.92202927  1  1.235316  0  0.707063  0.748219  0  2.417811  0
Zn  Zn4  1  0.19615376  0.92210041  0.45401323  1  1.234454  0  0.707187  0.748802  0  2.417409  0
Zn  Zn5  1  0.02962304  0.45394799  0.53193492  1  1.234202  0  0.707359  0.749167  0  2.41713  0
H  H6  1  0.96621758  0.36689264  0.84256661  1  0.070372  0  0.112206  0.078765  0  1.00855  0
H  H7  1  0.79958602  0.84248071  0.47569720  1  0.066568  0  0.111622  0.078633  0  1.008414  0
H  H8  1  0.63328494  0.47573890  0.63319720  1  0.067042  0  0.112207  0.078964  0  1.008333  0
H  H9  1  0.46622015  0.63310892  0.15743512  1  0.070336  0  0.112194  0.07875  0  1.00851  0
H  H10  1  0.29958386  0.15751712  0.52430058  1  0.066835  0  0.111624  0.078604  0  1.008443  0
H  H11  1  0.13328207  0.52426243  0.36680648  1  0.067123  0  0.112233  0.07897  0  1.00835  0
H  H12  1  0.99294846  0.47801563  0.80119927  1  0.049286  0  0.098715  0.074277  0  0.98004  0
H  H13  1  0.82637022  0.80116823  0.32324069  1  0.059266  0  0.098846  0.074539  0  0.979713  0
H  H14  1  0.65983318  0.32324294  0.52220730  1  0.050598  0  0.099036  0.074323  0  0.980165  0
H  H15  1  0.49295409  0.52198541  0.19880198  1  0.049522  0  0.098755  0.074293  0  0.979908  0
H  H16  1  0.32637292  0.19883202  0.67675822  1  0.059231  0  0.098834  0.074556  0  0.979669  0
H  H17  1  0.15982828  0.67675838  0.47779311  1  0.050623  0  0.099001  0.074274  0  0.980224  0
H  H18  1  0.78374630  0.58088385  0.93619693  1  0.008547  0  0.083827  0.069416  0  1.028028  0
H  H19  1  0.61716582  0.93614699  0.35529629  1  0.007688  0  0.083499  0.068751  0  1.028172  0
H  H20  1  0.45063597  0.35533153  0.41926616  1  0.003633  0  0.083856  0.068966  0  1.027936  0
H  H21  1  0.28374616  0.41911964  0.06380649  1  0.008572  0  0.083795  0.069416  0  1.027976  0
H  H22  1  0.11716244  0.06385694  0.64470471  1  0.007773  0  0.083479  0.068743  0  1.028218  0
H  H23  1  0.95063577  0.64467072  0.58073822  1  0.004003  0  0.08385  0.068961  0  1.027887  0
H  H24  1  0.81120431  0.59097864  0.84292980  1  0.040885  0  0.088069  0.084185  0  1.025594  0
H  H25  1  0.64465158  0.84288976  0.25193109  1  0.059512  0  0.088003  0.084342  0  1.024665  0
H  H26  1  0.47818824  0.25197191  0.40920651  1  0.024182  0  0.08733  0.08348  0  1.0257  0
H  H27  1  0.31120573  0.40902434  0.15707314  1  0.040906  0  0.088063  0.08414  0  1.025559  0
H  H28  1  0.14465183  0.15711455  0.74806967  1  0.059485  0  0.088045  0.084355  0  1.024614  0
H  H29  1  0.97818915  0.74803114  0.59079607  1  0.024169  0  0.087331  0.08349  0  1.025699  0
H  H30  1  0.03979353  0.63594624  0.88974185  1  0.002794  0  0.081723  0.112206  0  1.008476  0
H  H31  1  0.87321592  0.88976651  0.25378096  1  0.030521  0  0.081953  0.112159  0  1.008799  0
H  H32  1  0.70676297  0.25386005  0.36416889  1  0.013573  0  0.082356  0.112323  0  1.007997  0
H  H33  1  0.53979291  0.36405297  0.11025892  1  0.002803  0  0.081714  0.112188  0  1.008444  0
H  H34  1  0.37321613  0.11023586  0.74621949  1  0.030496  0  0.08194  0.112146  0  1.008792  0
H  H35  1  0.20676683  0.74614177  0.63583012  1  0.013644  0  0.082347  0.112293  0  1.00808  0
H  H36  1  0.00833521  0.63520617  0.98925847  1  0.014069  0  0.076127  0.099395  0  1.068438  0
H  H37  1  0.84177204  0.98921621  0.35403360  1  0.033038  0  0.076231  0.099529  0  1.068447  0
H  H38  1  0.67522760  0.35409575  0.36491468  1  0.019505  0  0.076568  0.099945  0  1.067816  0
H  H39  1  0.50833298  0.36479657  0.01074317  1  0.014045  0  0.076128  0.099364  0  1.068435  0
H  H40  1  0.34176958  0.01078472  0.64596471  1  0.033059  0  0.076236  0.099539  0  1.068355  0
H  H41  1  0.17523137  0.64590616  0.63508635  1  0.019543  0  0.07655  0.099909  0  1.067847  0
H  H42  1  0.92497213  0.70891929  0.96643559  1  0.028124  0  0.088379  0.123253  0  0.98998  0
H  H43  1  0.75838159  0.96645856  0.25753370  1  0.03294  0  0.088073  0.12336  0  0.99048  0
H  H44  1  0.59185831  0.25758997  0.29119077  1  0.066412  0  0.088382  0.123467  0  0.99036  0
H  H45  1  0.42496977  0.29108441  0.03356493  1  0.028364  0  0.088379  0.123277  0  0.990034  0
H  H46  1  0.25837786  0.03354327  0.74246671  1  0.032941  0  0.088077  0.123364  0  0.990481  0
H  H47  1  0.09186552  0.74241325  0.70881081  1  0.066429  0  0.088353  0.123437  0  0.99044  0
H  H48  1  0.83861703  0.35346673  0.72369750  1  0.045118  0  0.083783  0.119578  0  1.008433  0
H  H49  1  0.67203537  0.72362465  0.37026167  1  0.001734  0  0.083565  0.119233  0  1.008638  0
H  H50  1  0.50539501  0.37051289  0.64679279  1  -0.003646  0  0.083599  0.119201  0  1.008768  0
H  H51  1  0.33862423  0.64653531  0.27630651  1  0.045068  0  0.083789  0.119588  0  1.008372  0
H  H52  1  0.17204072  0.27637752  0.62973567  1  0.001481  0  0.083581  0.119245  0  1.008605  0
H  H53  1  0.00538350  0.62948852  0.35321015  1  -0.00357  0  0.08363  0.11922  0  1.008683  0
H  H54  1  0.79446940  0.44801497  0.71767992  1  0.046197  0  0.088247  0.124865  0  1.024125  0
H  H55  1  0.62789410  0.71763363  0.26969030  1  0.051574  0  0.087884  0.125233  0  1.024054  0
H  H56  1  0.46123549  0.26988211  0.55232361  1  0.048351  0  0.088293  0.125251  0  1.023721  0
H  H57  1  0.29447751  0.55198609  0.28232371  1  0.046061  0  0.088221  0.124857  0  1.024153  0
H  H58  1  0.12790011  0.28237007  0.73030984  1  0.05189  0  0.08788  0.125193  0  1.024162  0
H  H59  1  0.96122586  0.73011894  0.44768089  1  0.048449  0  0.088301  0.125264  0  1.023744  0
H  H60  1  0.71109868  0.42169362  0.78954768  1  0.007487  0  0.079083  0.106197  0  1.040366  0
H  H61  1  0.54452160  0.78948153  0.36785808  1  0.029548  0  0.079441  0.106662  0  1.039331  0
H  H62  1  0.37800381  0.36806247  0.57842563  1  0.022662  0  0.078795  0.106102  0  1.040031  0
H  H63  1  0.21110539  0.57830957  0.21045796  1  0.007258  0  0.079106  0.10623  0  1.04037  0
H  H64  1  0.04452307  0.21052145  0.63214122  1  0.029583  0  0.079423  0.10665  0  1.039324  0
H  H65  1  0.87799777  0.63193753  0.42157836  1  0.022539  0  0.078836  0.106193  0  1.039868  0
H  H66  1  0.74011592  0.36003546  0.99163439  1  0.090575  0  0.116381  0.108129  0  0.977707  0
H  H67  1  0.57374258  0.99173769  0.63170427  1  0.060726  0  0.11607  0.108382  0  0.977578  0
H  H68  1  0.40750530  0.63171967  0.63985044  1  0.085075  0  0.116286  0.108865  0  0.97846  0
H  H69  1  0.24011945  0.63996649  0.00836808  1  0.090629  0  0.11641  0.108162  0  0.977705  0
H  H70  1  0.07373256  0.00826230  0.36829930  1  0.060685  0  0.116078  0.108399  0  0.977617  0
H  H71  1  0.90750343  0.36828139  0.36014809  1  0.085127  0  0.116281  0.108857  0  0.978464  0
H  H72  1  0.90618794  0.33474059  0.96659325  1  0.084851  0  0.113127  0.102912  0  0.977836  0
H  H73  1  0.73982043  0.96656948  0.63179829  1  0.102366  0  0.113125  0.102411  0  0.978449  0
H  H74  1  0.57347194  0.63168225  0.66522982  1  0.072771  0  0.113177  0.10281  0  0.978478  0
H  H75  1  0.40619165  0.66525988  0.03340928  1  0.08487  0  0.113157  0.102956  0  0.977916  0
H  H76  1  0.23981427  0.03342579  0.36819948  1  0.102375  0  0.113158  0.10249  0  0.978366  0
H  H77  1  0.07346873  0.36831882  0.33477154  1  0.072815  0  0.113178  0.102788  0  0.978511  0
H  H78  1  0.54936141  0.21428466  0.69741133  1  0.11924  0  0.121029  0.097635  0  1.027557  0
H  H79  1  0.38257491  0.69768472  0.48359359  1  0.138078  0  0.121314  0.098305  0  1.026854  0
H  H80  1  0.21574758  0.48343840  0.78563519  1  0.14126  0  0.121084  0.098194  0  1.026715  0
H  H81  1  0.04936697  0.78571088  0.30258974  1  0.119345  0  0.121053  0.097681  0  1.027491  0
H  H82  1  0.88257304  0.30231450  0.51640437  1  0.138152  0  0.121313  0.09831  0  1.02684  0
H  H83  1  0.71575256  0.51656442  0.21436286  1  0.1413  0  0.121063  0.09814  0  1.026821  0
H  H84  1  0.58640612  0.32262855  0.85554911  1  0.123997  0  0.109244  0.126199  0  1.040436  0
H  H85  1  0.41972868  0.85581822  0.53340779  1  0.129033  0  0.109112  0.125899  0  1.040494  0
H  H86  1  0.25316082  0.53324850  0.67730715  1  0.145053  0  0.109092  0.12579  0  1.041035  0
H  H87  1  0.08641632  0.67736461  0.14445225  1  0.124854  0  0.10928  0.126217  0  1.040466  0
H  H88  1  0.91972444  0.14418137  0.46659454  1  0.128969  0  0.109067  0.125853  0  1.040555  0
H  H89  1  0.75315975  0.46675454  0.32269315  1  0.145088  0  0.109083  0.125835  0  1.0409  0
H  H90  1  0.96581445  0.21144589  0.82744675  1  0.130959  0  0.111085  0.124279  0  1.032161  0
H  H91  1  0.79931684  0.82738172  0.61602436  1  0.119814  0  0.111313  0.124977  0  1.031951  0
H  H92  1  0.63261863  0.61587338  0.78857752  1  0.118824  0  0.110979  0.124312  0  1.032354  0
H  H93  1  0.46581533  0.78856001  0.17255406  1  0.130921  0  0.111082  0.124292  0  1.032124  0
H  H94  1  0.29931186  0.17261375  0.38397237  1  0.119867  0  0.111305  0.124949  0  1.031924  0
H  H95  1  0.13261846  0.38412689  0.21142380  1  0.118815  0  0.110972  0.124305  0  1.032337  0
H  H96  1  0.90988784  0.10487845  0.66998514  1  0.108763  0  0.116648  0.085432  0  1.043527  0
H  H97  1  0.74345580  0.66985059  0.56489045  1  0.132454  0  0.116682  0.086522  0  1.042431  0
H  H98  1  0.57638008  0.56488433  0.89507045  1  0.132241  0  0.116738  0.08604  0  1.043577  0
H  H99  1  0.40988504  0.89512276  0.33001552  1  0.108683  0  0.116647  0.085374  0  1.043543  0
H  H100  1  0.24345416  0.33014666  0.43510536  1  0.131847  0  0.116659  0.086482  0  1.042452  0
H  H101  1  0.07638022  0.43511438  0.10492987  1  0.132247  0  0.116715  0.086027  0  1.04366  0
H  H102  1  0.74661859  0.45160026  0.93027074  1  0.465409  0  0.293247  0.24626  0  0.993334  0
H  H103  1  0.58000308  0.93021125  0.47873311  1  0.453107  0  0.293359  0.246227  0  0.993674  0
H  H104  1  0.41365178  0.47871124  0.54845721  1  0.462273  0  0.293623  0.246927  0  0.992954  0
H  H105  1  0.24661956  0.54840113  0.06973118  1  0.465438  0  0.293244  0.246315  0  0.993305  0
H  H106  1  0.08000274  0.06978761  0.52126935  1  0.453081  0  0.293329  0.24621  0  0.993707  0
H  H107  1  0.91364967  0.52128900  0.45154444  1  0.462249  0  0.293615  0.246917  0  0.992953  0
C  C108  1  0.06143903  0.47547053  0.94421841  1  1.551292  0  0.21303  0.576675  0  4.151849  0
C  C109  1  0.89486876  0.94417249  0.46874427  1  1.566991  0  0.212943  0.576652  0  4.151819  0
C  C110  1  0.72842817  0.46871930  0.52449714  1  1.560833  0  0.213537  0.577544  0  4.151047  0
C  C111  1  0.56144011  0.52453197  0.05578372  1  1.551209  0  0.212992  0.576545  0  4.152018  0
C  C112  1  0.39486751  0.05582756  0.53125520  1  1.56693  0  0.212921  0.576571  0  4.151906  0
C  C113  1  0.22842696  0.53128116  0.47550448  1  1.56087  0  0.21351  0.577627  0  4.150833  0
C  C114  1  0.93918165  0.43521638  0.88988489  1  0.276227  0  -0.002061  -0.046743  0  3.811836  0
C  C115  1  0.77257385  0.88981680  0.45467208  1  0.285632  0  -0.001701  -0.047136  0  3.812257  0
C  C116  1  0.60619199  0.45468117  0.56483959  1  0.267263  0  -0.003019  -0.048865  0  3.814289  0
C  C117  1  0.43918481  0.56478423  0.11011652  1  0.276184  0  -0.002034  -0.046712  0  3.811805  0
C  C118  1  0.27257371  0.11018407  0.54532936  1  0.285419  0  -0.001643  -0.046958  0  3.81222  0
C  C119  1  0.10618766  0.54532142  0.43516269  1  0.267397  0  -0.003032  -0.048892  0  3.814204  0
C  C120  1  0.90330030  0.47838857  0.83454453  1  0.025356  0  -0.087504  0.036602  0  3.828263  0
C  C121  1  0.73672399  0.83450035  0.35617715  1  0.002976  0  -0.087793  0.036505  0  3.829138  0
C  C122  1  0.57025689  0.35622316  0.52177609  1  0.031122  0  -0.087638  0.037329  0  3.829183  0
C  C123  1  0.40330283  0.52161255  0.16545733  1  0.025097  0  -0.087529  0.03663  0  3.828222  0
C  C124  1  0.23672453  0.16550177  0.64382286  1  0.003152  0  -0.08782  0.036398  0  3.829371  0
C  C125  1  0.07025292  0.64377838  0.47822706  1  0.031012  0  -0.08762  0.037434  0  3.829096  0
C  C126  1  0.85829407  0.57446703  0.88877701  1  -0.026635  0  -0.172288  -0.133247  0  3.902699  0
C  C127  1  0.69172702  0.88872702  0.31429351  1  -0.044384  0  -0.172192  -0.133265  0  3.903369  0
C  C128  1  0.52525299  0.31433435  0.42568209  1  0.004542  0  -0.171774  -0.132348  0  3.90215  0
C  C129  1  0.35829521  0.42553669  0.11122543  1  -0.026693  0  -0.172297  -0.133265  0  3.902729  0
C  C130  1  0.19172491  0.11127525  0.68570725  1  -0.044651  0  -0.172206  -0.133236  0  3.903397  0
C  C131  1  0.02525544  0.68566776  0.57432026  1  0.004025  0  -0.171749  -0.132341  0  3.902161  0
C  C132  1  0.96435744  0.64206144  0.93628102  1  -0.031778  0  -0.252805  -0.357786  0  3.961156  0
C  C133  1  0.79777002  0.93627105  0.29421728  1  -0.083777  0  -0.252506  -0.357705  0  3.963138  0
C  C134  1  0.63127756  0.29426903  0.35805673  1  -0.093573  0  -0.253618  -0.358489  0  3.961185  0
C  C135  1  0.46435341  0.35793841  0.06371900  1  -0.031955  0  -0.252794  -0.357757  0  3.961159  0
C  C136  1  0.29776896  0.06373085  0.70578325  1  -0.083706  0  -0.252467  -0.35767  0  3.963083  0
C  C137  1  0.13128239  0.70573280  0.64194416  1  -0.09358  0  -0.253583  -0.358418  0  3.961368  0
C  C138  1  0.80623066  0.42204750  0.76262530  1  -0.097602  0  -0.249264  -0.396298  0  3.925136  0
C  C139  1  0.63966700  0.76256568  0.34059627  1  -0.077488  0  -0.249038  -0.396693  0  3.924853  0
C  C140  1  0.47308789  0.34077007  0.57816944  1  -0.067765  0  -0.248729  -0.396118  0  3.924786  0
C  C141  1  0.30623754  0.57795358  0.23737837  1  -0.097225  0  -0.249256  -0.396325  0  3.925209  0
C  C142  1  0.13967058  0.23743658  0.65940310  1  -0.077603  0  -0.249027  -0.396668  0  3.924948  0
C  C143  1  0.97308091  0.65922920  0.42183462  1  -0.06781  0  -0.24881  -0.396298  0  3.924567  0
C  C144  1  0.81646188  0.35022390  0.94442044  1  0.228099  0  -0.065283  -0.093478  0  3.880634  0
C  C145  1  0.64999931  0.94447273  0.59426425  1  0.260567  0  -0.0638  -0.091878  0  3.87862  0
C  C146  1  0.48359236  0.59420810  0.64972598  1  0.242319  0  -0.065811  -0.094912  0  3.88196  0
C  C147  1  0.31646572  0.64977771  0.05558048  1  0.227952  0  -0.065334  -0.093566  0  3.8807  0
C  C148  1  0.14999245  0.05552645  0.40573598  1  0.260711  0  -0.063855  -0.091994  0  3.878724  0
C  C149  1  0.98359045  0.40579107  0.35027141  1  0.242216  0  -0.065864  -0.094934  0  3.882022  0
C  C150  1  0.63998276  0.21653297  0.72927052  1  0.427409  0  0.050233  0.098721  0  3.916693  0
C  C151  1  0.47332773  0.72944818  0.51299983  1  0.474896  0  0.050196  0.097424  0  3.915962  0
C  C152  1  0.30647630  0.51294977  0.78340596  1  0.440128  0  0.049677  0.097236  0  3.917842  0
C  C153  1  0.13998908  0.78346535  0.27073279  1  0.427297  0  0.050304  0.098778  0  3.916627  0
C  C154  1  0.97332852  0.27055438  0.48700094  1  0.474757  0  0.050147  0.097337  0  3.916054  0
C  C155  1  0.80647551  0.48705125  0.21659436  1  0.43987  0  0.049708  0.0973  0  3.917822  0
C  C156  1  0.66226081  0.27657249  0.81715145  1  -0.041679  0  -0.078676  -0.172055  0  3.920947  0
C  C157  1  0.49562286  0.81735096  0.54095632  1  -0.028988  0  -0.078639  -0.171246  0  3.920934  0
C  C158  1  0.32892753  0.54083579  0.72339847  1  -0.045494  0  -0.078858  -0.171733  0  3.921648  0
C  C159  1  0.16226458  0.72342563  0.18285103  1  -0.042304  0  -0.07873  -0.172109  0  3.921017  0
C  C160  1  0.99561572  0.18264928  0.45904347  1  -0.028851  0  -0.078586  -0.171193  0  3.92094  0
C  C161  1  0.82893286  0.45916626  0.27660094  1  -0.045492  0  -0.078809  -0.171737  0  3.921597  0
C  C162  1  0.78199953  0.27756561  0.85372219  1  0.038188  0  0.013094  0.147511  0  3.92875  0
C  C163  1  0.61549497  0.85381794  0.57635030  1  -0.069495  0  0.012954  0.146604  0  3.92963  0
C  C164  1  0.44884462  0.57621318  0.72239023  1  -0.021333  0  0.013439  0.148195  0  3.92868  0
C  C165  1  0.28200019  0.72243495  0.14627960  1  0.038266  0  0.01306  0.147557  0  3.928653  0
C  C166  1  0.11548927  0.14617824  0.42364820  1  -0.069637  0  0.012987  0.146689  0  3.929762  0
C  C167  1  0.94884610  0.42378787  0.27760966  1  -0.021359  0  0.013439  0.148209  0  3.92878  0
C  C168  1  0.87189997  0.21362779  0.80113827  1  -0.026432  0  -0.079312  -0.179681  0  3.928982  0
C  C169  1  0.70541289  0.80112947  0.58754735  1  -0.010881  0  -0.08037  -0.181051  0  3.931444  0
C  C170  1  0.53863895  0.58745681  0.78635815  1  -0.019445  0  -0.079819  -0.180735  0  3.930227  0
C  C171  1  0.37190294  0.78637401  0.19886160  1  -0.026565  0  -0.079289  -0.179746  0  3.928838  0
C  C172  1  0.20540812  0.19886532  0.41245185  1  -0.010922  0  -0.080323  -0.180964  0  3.931353  0
C  C173  1  0.03863787  0.41254272  0.21364229  1  -0.019418  0  -0.079831  -0.180735  0  3.930174  0
C  C174  1  0.84228813  0.15493660  0.71375845  1  0.468867  0  0.047768  0.095048  0  3.937966  0
C  C175  1  0.67573790  0.71375392  0.55885403  1  0.437788  0  0.0481  0.093775  0  3.93783  0
C  C176  1  0.50882035  0.55876829  0.84503849  1  0.446308  0  0.048063  0.094756  0  3.937713  0
C  C177  1  0.34229076  0.84506481  0.28624166  1  0.469042  0  0.047794  0.09522  0  3.937736  0
C  C178  1  0.17573627  0.28624131  0.44114230  1  0.438395  0  0.048048  0.093703  0  3.93774  0
C  C179  1  0.00882274  0.44123420  0.15496224  1  0.446377  0  0.048084  0.094737  0  3.93783  0
N  N180  1  0.83354756  0.43532343  0.94616366  1  -1.096754  0  -0.479586  -0.334177  0  3.49748  0
N  N181  1  0.66697241  0.94612219  0.51082758  1  -1.073876  0  -0.479722  -0.334243  0  3.497557  0
N  N182  1  0.50059420  0.51083782  0.56465416  1  -1.084026  0  -0.478934  -0.334288  0  3.499239  0
N  N183  1  0.33354940  0.56467756  0.05383797  1  -1.096705  0  -0.479569  -0.334234  0  3.497528  0
N  N184  1  0.16697089  0.05387635  0.48917337  1  -1.073858  0  -0.479748  -0.334353  0  3.497614  0
N  N185  1  0.00059174  0.48916163  0.43534616  1  -1.084057  0  -0.478893  -0.334244  0  3.499046  0
N  N186  1  0.72954736  0.15763944  0.67757746  1  -1.268275  0  -0.33283  -0.232004  0  3.567457  0
N  N187  1  0.56294241  0.67766050  0.52002886  1  -1.266406  0  -0.333292  -0.230707  0  3.565902  0
N  N188  1  0.39598083  0.51997181  0.84227700  1  -1.256982  0  -0.331966  -0.229928  0  3.566524  0
N  N189  1  0.22955022  0.84236078  0.32242326  1  -1.268444  0  -0.332905  -0.23213  0  3.567409  0
N  N190  1  0.06294394  0.32233632  0.47996759  1  -1.266325  0  -0.333239  -0.23062  0  3.565917  0
N  N191  1  0.89598542  0.48002980  0.15772206  1  -1.25686  0  -0.331977  -0.229932  0  3.566477  0
N  N192  1  0.85535159  0.66116295  0.12814459  1  -0.332648  0  -0.324073  -0.544874  0  2.954284  0
N  N193  1  0.68866241  0.12815913  0.46692257  1  -0.345761  0  -0.323003  -0.544247  0  2.953066  0
N  N194  1  0.52211218  0.46697289  0.33879442  1  -0.350023  0  -0.323441  -0.545049  0  2.955293  0
N  N195  1  0.35535952  0.33884046  0.87185358  1  -0.332723  0  -0.324046  -0.544889  0  2.954392  0
N  N196  1  0.18867627  0.87183621  0.53307258  1  -0.345847  0  -0.322888  -0.544163  0  2.953383  0
N  N197  1  0.02211315  0.53302817  0.66120555  1  -0.350007  0  -0.323419  -0.54503  0  2.95532  0
N  N198  1  0.76030680  0.68980408  0.11209631  1  -0.371965  0  0.080367  0.434177  0  4.50517  0
N  N199  1  0.59355419  0.11210194  0.42228539  1  -0.367738  0  0.079257  0.434227  0  4.503226  0
N  N200  1  0.42702319  0.42232302  0.31025129  1  -0.33659  0  0.080072  0.434925  0  4.505571  0
N  N201  1  0.26031673  0.31020038  0.88790147  1  -0.372118  0  0.080278  0.434131  0  4.505034  0
N  N202  1  0.09357410  0.88789218  0.57770708  1  -0.36781  0  0.079087  0.434149  0  4.503516  0
N  N203  1  0.92702076  0.57767521  0.68974902  1  -0.336619  0  0.080061  0.434929  0  4.505597  0
N  N204  1  0.66916545  0.71915990  0.09750625  1  -0.022958  0  -0.217479  -0.421928  0  2.586885  0
N  N205  1  0.50238105  0.09747667  0.37836967  1  -0.01353  0  -0.217231  -0.422341  0  2.585855  0
N  N206  1  0.33585488  0.37839775  0.28098796  1  -0.041779  0  -0.217492  -0.422369  0  2.586604  0
N  N207  1  0.16917353  0.28084170  0.90249052  1  -0.022694  0  -0.217418  -0.421852  0  2.586675  0
N  N208  1  0.00239455  0.90251947  0.62162602  1  -0.013333  0  -0.21717  -0.422341  0  2.585827  0
N  N209  1  0.83585460  0.62160063  0.71901174  1  -0.041747  0  -0.217489  -0.422375  0  2.586619  0
O  O210  1  0.05814867  0.51078034  0.02794740  1  -1.168505  0  -0.316052  -0.550901  0  2.290466  0
O  O211  1  0.89155810  0.02790197  0.51709006  1  -1.185129  0  -0.315801  -0.550602  0  2.290468  0
O  O212  1  0.72514643  0.51709360  0.48912424  1  -1.174437  0  -0.316539  -0.551465  0  2.290015  0
O  O213  1  0.55814896  0.48922363  0.97205553  1  -1.168426  0  -0.316012  -0.55078  0  2.29051  0
O  O214  1  0.39155828  0.97209783  0.48290850  1  -1.18511  0  -0.315803  -0.550571  0  2.29047  0
O  O215  1  0.22514542  0.48290482  0.51087599  1  -1.174472  0  -0.31651  -0.551487  0  2.289894  0
O  O216  1  0.15960311  0.47019857  0.89971043  1  -1.203093  0  -0.315593  -0.557576  0  2.381199  0
O  O217  1  0.99305490  0.89968619  0.42954147  1  -1.202566  0  -0.315617  -0.557445  0  2.381674  0
O  O218  1  0.82658087  0.42946183  0.52975467  1  -1.205536  0  -0.31563  -0.557663  0  2.381465  0
O  O219  1  0.65960544  0.52980209  0.10029065  1  -1.203112  0  -0.315613  -0.557553  0  2.381229  0
O  O220  1  0.49305395  0.10031395  0.57045954  1  -1.202569  0  -0.315622  -0.557425  0  2.381683  0
O  O221  1  0.32658063  0.57053905  0.47024817  1  -1.205468  0  -0.3156  -0.5577  0  2.381425  0
