# generated using pymatgen
data_CuH7C7BrN5
_symmetry_space_group_name_H-M   'P 1'
_cell_length_a   10.11769081
_cell_length_b   10.08113625
_cell_length_c   9.48104581
_cell_angle_alpha   90.00033139
_cell_angle_beta   98.39548949
_cell_angle_gamma   90.00144812
_symmetry_Int_Tables_number   1
_chemical_formula_structural   CuH7C7BrN5
_chemical_formula_sum   'Cu4 H28 C28 Br4 N20'
_cell_volume   956.68297068
_cell_formula_units_Z   4
loop_
 _symmetry_equiv_pos_site_id
 _symmetry_equiv_pos_as_xyz
  1  'x, y, z'
loop_
 _atom_site_type_symbol
 _atom_site_label
 _atom_site_symmetry_multiplicity
 _atom_site_fract_x
 _atom_site_fract_y
 _atom_site_fract_z
 _atom_site_occupancy
 _atom_site_pbe_bader_spin_density
 _atom_site_pbe_cm5_charge
 _atom_site_pbe_ddec_charge
 _atom_site_pbe_ddec_spin_density
 _atom_site_pbe_ddec_sum_bond_order
 _atom_site_pbe_magmom
Cu  Cu0  1  0.40456187  0.05420558  0.84153725  1  0  0.508239  0.282079  0  2.604787  0
Cu  Cu1  1  0.59544861  0.55422512  0.65847020  1  0  0.508168  0.281935  0  2.604933  0
Cu  Cu2  1  0.59543856  0.94579445  0.15847163  1  0  0.508278  0.282054  0  2.604953  0
Cu  Cu3  1  0.40455986  0.44577888  0.34153583  1  0  0.508246  0.281925  0  2.604986  0
H  H4  1  0.15580664  0.87791609  0.04761519  1  0  0.090886  0.123101  0  1.060082  0
H  H5  1  0.84419054  0.37791758  0.45237721  1  0  0.09087  0.123086  0  1.060162  0
H  H6  1  0.84420587  0.12209287  0.95238835  1  0  0.090913  0.123114  0  1.059994  0
H  H7  1  0.15582425  0.62206162  0.54760457  1  0  0.090869  0.123137  0  1.059895  0
H  H8  1  0.03229686  0.83217629  0.15651566  1  0  0.09596  0.134907  0  1.01615  0
H  H9  1  0.96769906  0.33219150  0.34347543  1  0  0.095987  0.134938  0  1.016179  0
H  H10  1  0.96770773  0.16782077  0.84348021  1  0  0.095958  0.134875  0  1.016204  0
H  H11  1  0.03230886  0.66779167  0.65649569  1  0  0.095925  0.134845  0  1.016152  0
H  H12  1  0.18756299  0.74292245  0.17508444  1  0  0.094972  0.131174  0  1.054148  0
H  H13  1  0.81241716  0.24292676  0.32491759  1  0  0.094966  0.131146  0  1.054195  0
H  H14  1  0.81244449  0.25709146  0.82492142  1  0  0.094981  0.131147  0  1.054107  0
H  H15  1  0.18758560  0.75706037  0.67506531  1  0  0.094995  0.131182  0  1.054218  0
H  H16  1  0.11629108  0.09246665  0.13790033  1  0  0.129409  0.117554  0  0.97736  0
H  H17  1  0.88370568  0.59247998  0.36210963  1  0  0.129375  0.11752  0  0.977345  0
H  H18  1  0.88372026  0.90753735  0.86211672  1  0  0.129414  0.117554  0  0.977297  0
H  H19  1  0.11629389  0.40749922  0.63788750  1  0  0.129395  0.117563  0  0.977344  0
H  H20  1  0.21321328  0.26410924  0.31472965  1  0  0.091226  0.110743  0  1.08959  0
H  H21  1  0.78678694  0.76411616  0.18528425  1  0  0.091198  0.110741  0  1.089616  0
H  H22  1  0.78679522  0.73589675  0.68527427  1  0  0.091227  0.110772  0  1.089579  0
H  H23  1  0.21321546  0.23587197  0.81472707  1  0  0.091194  0.110754  0  1.089562  0
H  H24  1  0.38375438  0.94025225  0.58430422  1  0  0.105152  0.104335  0  1.08864  0
H  H25  1  0.61622446  0.44026007  0.91570247  1  0  0.105207  0.104465  0  1.088672  0
H  H26  1  0.61621498  0.05975373  0.41570676  1  0  0.105186  0.104381  0  1.088622  0
H  H27  1  0.38378012  0.55974988  0.08429445  1  0  0.105154  0.104392  0  1.088593  0
H  H28  1  0.27637443  0.78426017  0.39822205  1  0  0.129226  0.115363  0  0.99581  0
H  H29  1  0.72359422  0.28426723  0.10177384  1  0  0.129251  0.115344  0  0.995784  0
H  H30  1  0.72360600  0.21573986  0.60178448  1  0  0.129203  0.115235  0  0.995906  0
H  H31  1  0.27640054  0.71572884  0.89820875  1  0  0.129234  0.11534  0  0.995827  0
C  C32  1  0.14010460  0.83968811  0.15251087  1  0  -0.142055  -0.307109  0  3.817056  0
C  C33  1  0.85988701  0.33968989  0.34748160  1  0  -0.142013  -0.307036  0  3.817125  0
C  C34  1  0.85989993  0.16032085  0.84749026  1  0  -0.142058  -0.307062  0  3.816974  0
C  C35  1  0.14012279  0.66028832  0.65249828  1  0  -0.141996  -0.307143  0  3.817003  0
C  C36  1  0.17629357  0.06622277  0.23867278  1  0  0.061742  0.054891  0  3.82391  0
C  C37  1  0.82369219  0.56622779  0.26133634  1  0  0.061819  0.055048  0  3.824284  0
C  C38  1  0.82371183  0.93378222  0.76133905  1  0  0.061759  0.055016  0  3.823563  0
C  C39  1  0.17630541  0.43375240  0.73865940  1  0  0.061839  0.054953  0  3.824166  0
C  C40  1  0.23159821  0.15885318  0.33702246  1  0  -0.076829  -0.142951  0  3.922406  0
C  C41  1  0.76839696  0.65885924  0.16299363  1  0  -0.076775  -0.142939  0  3.922289  0
C  C42  1  0.76839820  0.84115380  0.66298784  1  0  -0.076812  -0.143066  0  3.922438  0
C  C43  1  0.23160839  0.34113087  0.83702136  1  0  -0.076782  -0.142913  0  3.922358  0
C  C44  1  0.31247383  0.11725792  0.46260237  1  0  0.02777  0.090429  0  3.95392  0
C  C45  1  0.68751903  0.61726447  0.03740379  1  0  0.027765  0.090457  0  3.953913  0
C  C46  1  0.68752363  0.88275402  0.53740389  1  0  0.02778  0.090407  0  3.953775  0
C  C47  1  0.31248242  0.38273953  0.96260314  1  0  0.027796  0.090388  0  3.953848  0
C  C48  1  0.32515826  0.97991335  0.48809876  1  0  -0.074325  -0.140856  0  3.933347  0
C  C49  1  0.67482283  0.47992510  0.01191001  1  0  -0.074422  -0.141115  0  3.933597  0
C  C50  1  0.67483018  0.02009660  0.51190808  1  0  -0.074348  -0.141013  0  3.933453  0
C  C51  1  0.32517172  0.52008981  0.98808838  1  0  -0.074389  -0.141055  0  3.933488  0
C  C52  1  0.26712558  0.89147877  0.38642897  1  0  0.065375  0.056365  0  3.798511  0
C  C53  1  0.73284985  0.39148081  0.11357979  1  0  0.065356  0.056527  0  3.798076  0
C  C54  1  0.73286377  0.10852821  0.61358540  1  0  0.065388  0.056651  0  3.798266  0
C  C55  1  0.26713579  0.60851128  0.88641075  1  0  0.065361  0.056555  0  3.798361  0
C  C56  1  0.38714650  0.21198913  0.55882811  1  0  0.209162  0.224589  0  3.983823  0
C  C57  1  0.61285199  0.71199629  0.94117957  1  0  0.209166  0.224556  0  3.983868  0
C  C58  1  0.61284809  0.78802578  0.44116711  1  0  0.209048  0.224545  0  3.983656  0
C  C59  1  0.38715237  0.28801565  0.05883525  1  0  0.209241  0.224738  0  3.983549  0
Br  Br60  1  0.16352680  0.99066159  0.79658590  1  0  -0.327039  -0.55596  0  1.312611  0
Br  Br61  1  0.83647636  0.49067568  0.70340493  1  0  -0.327045  -0.555947  0  1.312626  0
Br  Br62  1  0.83648394  0.00931860  0.20339941  1  0  -0.327019  -0.55593  0  1.312563  0
Br  Br63  1  0.16351247  0.50933526  0.29657138  1  0  -0.327002  -0.555958  0  1.312509  0
N  N64  1  0.42244587  0.33600330  0.52287980  1  0  -0.254066  -0.211193  0  3.518522  0
N  N65  1  0.57755093  0.83600971  0.97712772  1  0  -0.254133  -0.211247  0  3.518626  0
N  N66  1  0.57755480  0.66399574  0.47711012  1  0  -0.254041  -0.211229  0  3.518694  0
N  N67  1  0.42244939  0.16399032  0.02288957  1  0  -0.254205  -0.211413  0  3.518567  0
N  N68  1  0.50043442  0.38295245  0.63941021  1  0  -0.158929  -0.041614  0  3.658701  0
N  N69  1  0.49956969  0.88295176  0.86059122  1  0  -0.158951  -0.041591  0  3.658952  0
N  N70  1  0.49956902  0.61704659  0.36059812  1  0  -0.158875  -0.041418  0  3.659216  0
N  N71  1  0.50042781  0.11704628  0.13941188  1  0  -0.158822  -0.041363  0  3.659243  0
N  N72  1  0.51229404  0.29349732  0.74302802  1  0  -0.104062  -0.07704  0  3.239188  0
N  N73  1  0.48771649  0.79349848  0.75697125  1  0  -0.104058  -0.077151  0  3.239232  0
N  N74  1  0.48770537  0.70650172  0.25698279  1  0  -0.104051  -0.077207  0  3.239308  0
N  N75  1  0.51228507  0.20650155  0.24302727  1  0  -0.104113  -0.077213  0  3.23932  0
N  N76  1  0.44196148  0.18576307  0.69540385  1  0  -0.260907  -0.221762  0  3.618525  0
N  N77  1  0.55804606  0.68576695  0.80460007  1  0  -0.260913  -0.221616  0  3.618558  0
N  N78  1  0.55804302  0.81424589  0.30459939  1  0  -0.260952  -0.221716  0  3.618673  0
N  N79  1  0.44195445  0.31424201  0.19540249  1  0  -0.261052  -0.221854  0  3.618678  0
N  N80  1  0.19715620  0.93465469  0.26204435  1  0  -0.21087  0.15306  0  3.741871  0
N  N81  1  0.80283464  0.43466420  0.23796286  1  0  -0.210908  0.152862  0  3.74204  0
N  N82  1  0.80285129  0.06534931  0.73796045  1  0  -0.210893  0.152962  0  3.741575  0
N  N83  1  0.19716098  0.56532294  0.76203043  1  0  -0.210918  0.152981  0  3.741934  0
