# generated using pymatgen
data_Cu3H18(C3N)7
_symmetry_space_group_name_H-M   'P 1'
_cell_length_a   28.92862771
_cell_length_b   29.56592714
_cell_length_c   30.76649974
_cell_angle_alpha   91.44339947
_cell_angle_beta   91.06739633
_cell_angle_gamma   90.09672551
_symmetry_Int_Tables_number   1
_chemical_formula_structural   Cu3H18(C3N)7
_chemical_formula_sum   'Cu12 H72 C84 N28'
_cell_volume   26301.66369144
_cell_formula_units_Z   4
loop_
 _symmetry_equiv_pos_site_id
 _symmetry_equiv_pos_as_xyz
  1  'x, y, z'
loop_
 _atom_site_type_symbol
 _atom_site_label
 _atom_site_symmetry_multiplicity
 _atom_site_fract_x
 _atom_site_fract_y
 _atom_site_fract_z
 _atom_site_occupancy
 _atom_site_pbe_bader_charge
 _atom_site_pbe_bader_spin_density
 _atom_site_pbe_cm5_charge
 _atom_site_pbe_ddec_charge
 _atom_site_pbe_ddec_spin_density
 _atom_site_pbe_ddec_sum_bond_order
 _atom_site_pbe_magmom
Cu  Cu0  1  0.32652639  0.62750548  0.58115171  1  0.542273  0  0.483146  0.202831  0  2.118546  0
Cu  Cu1  1  0.41833055  0.67027073  0.62223255  1  0.540595  0  0.483597  0.199415  0  2.131855  0
Cu  Cu2  1  0.37263479  0.58485507  0.66536172  1  0.540688  0  0.484795  0.203902  0  2.119793  0
Cu  Cu3  1  0.84263836  0.37942561  0.92047368  1  0.541921  0  0.482366  0.202221  0  2.117705  0
Cu  Cu4  1  0.92552720  0.33201060  0.87189638  1  0.538543  0  0.482804  0.201314  0  2.123139  0
Cu  Cu5  1  0.87858223  0.41921433  0.83178681  1  0.541456  0  0.48402  0.204813  0  2.112989  0
Cu  Cu6  1  0.16768058  0.11896414  0.41382376  1  0.538016  0  0.484146  0.199312  0  2.137891  0
Cu  Cu7  1  0.07409504  0.15835928  0.37519390  1  0.542572  0  0.483261  0.203911  0  2.116561  0
Cu  Cu8  1  0.12856474  0.08123582  0.32336638  1  0.542841  0  0.482986  0.203114  0  2.115479  0
Cu  Cu9  1  0.66312542  0.88066229  0.08357329  1  0.541029  0  0.483553  0.20228  0  2.124995  0
Cu  Cu10  1  0.59030748  0.82231337  0.13492981  1  0.542703  0  0.483386  0.203844  0  2.111673  0
Cu  Cu11  1  0.62934749  0.91522389  0.17526055  1  0.538568  0  0.483027  0.199771  0  2.13105  0
H  H12  1  0.30906331  0.69253785  0.50209071  1  0.079739  0  0.11909  0.108856  0  0.994069  0
H  H13  1  0.43628019  0.74939714  0.55657333  1  0.076135  0  0.118676  0.110975  0  0.990544  0
H  H14  1  0.30302475  0.50433679  0.68136873  1  0.099982  0  0.118554  0.108198  0  0.99416  0
H  H15  1  0.24072807  0.56153400  0.56599924  1  0.088877  0  0.11902  0.111469  0  0.990339  0
H  H16  1  0.50397256  0.68748636  0.68632006  1  0.088943  0  0.118541  0.110944  0  0.98946  0
H  H17  1  0.44306512  0.56958958  0.74376297  1  0.099646  0  0.118782  0.108249  0  0.993894  0
H  H18  1  0.83525650  0.31764562  0.00322793  1  0.07902  0  0.119386  0.110261  0  0.992414  0
H  H19  1  0.94499932  0.24930771  0.93382788  1  0.070167  0  0.119287  0.112021  0  0.988009  0
H  H20  1  0.80553310  0.49746443  0.81713027  1  0.124198  0  0.118641  0.109039  0  0.994278  0
H  H21  1  0.75820454  0.44491316  0.93879135  1  0.088278  0  0.118334  0.110728  0  0.991068  0
H  H22  1  0.00516245  0.31397739  0.80442411  1  0.123619  0  0.119455  0.111986  0  0.989383  0
H  H23  1  0.94275930  0.43396204  0.75066312  1  0.091669  0  0.119334  0.109389  0  0.993625  0
H  H24  1  0.18317864  0.18424675  0.49613608  1  0.097343  0  0.118519  0.110875  0  0.990172  0
H  H25  1  0.05268797  0.23496929  0.44615639  1  0.084563  0  0.118628  0.108707  0  0.993968  0
H  H26  1  0.19896682  0.00092630  0.30480630  1  0.081097  0  0.11898  0.10933  0  0.993637  0
H  H27  1  0.25167796  0.05201547  0.42943070  1  0.115918  0  0.118983  0.111154  0  0.989265  0
H  H28  1  0.98653151  0.16965308  0.31262006  1  0.108346  0  0.118874  0.109839  0  0.993087  0
H  H29  1  0.06699917  0.07374815  0.23695123  1  0.096009  0  0.119059  0.111586  0  0.98857  0
H  H30  1  0.67414801  0.81935283  0.99880960  1  0.089332  0  0.119246  0.11135  0  0.988885  0
H  H31  1  0.58256667  0.73523736  0.07212088  1  0.100837  0  0.118841  0.109269  0  0.993029  0
H  H32  1  0.69661384  0.99940982  0.19231497  1  0.11135  0  0.118834  0.111332  0  0.989708  0
H  H33  1  0.73617902  0.95738983  0.06231340  1  0.087328  0  0.118483  0.109409  0  0.99383  0
H  H34  1  0.51397883  0.79941108  0.20384434  1  0.113357  0  0.118681  0.108569  0  0.99447  0
H  H35  1  0.56471550  0.92780960  0.25660758  1  0.121252  0  0.119016  0.111715  0  0.989023  0
H  H36  1  0.86984825  0.27625292  0.06846916  1  0.058907  0  0.095935  0.094447  0  0.9934  0
H  H37  1  0.88358702  0.22181929  0.12609163  1  0.079405  0  0.100252  0.103458  0  1.002492  0
H  H38  1  0.91228619  0.20372538  0.00810117  1  0.04369  0  0.09591  0.096245  0  1.002072  0
H  H39  1  0.86637976  0.14992988  0.05312868  1  0.060007  0  0.111272  0.087371  0  1.010448  0
H  H40  1  0.30484535  0.76187449  0.45851789  1  0.04224  0  0.094664  0.093358  0  0.9937  0
H  H41  1  0.30378051  0.82384075  0.40842479  1  0.050729  0  0.098328  0.100951  0  1.011086  0
H  H42  1  0.40474284  0.79088296  0.48129122  1  0.070313  0  0.095609  0.09585  0  1.001714  0
H  H43  1  0.41019034  0.81465202  0.40728618  1  0.099869  0  0.11207  0.088958  0  1.009023  0
H  H44  1  0.61732667  0.67025627  0.02287916  1  0.048599  0  0.095079  0.094022  0  0.993121  0
H  H45  1  0.63874087  0.61525389  0.96452664  1  0.067741  0  0.099326  0.103626  0  1.004238  0
H  H46  1  0.64576456  0.73929784  0.95525241  1  0.061306  0  0.094222  0.093416  0  1.00702  0
H  H47  1  0.59787669  0.68846515  0.90539447  1  0.114712  0  0.111287  0.086796  0  1.007438  0
H  H48  1  0.04683825  0.27520646  0.51870320  1  0.036686  0  0.09467  0.094061  0  0.993783  0
H  H49  1  0.04671230  0.32477878  0.58352978  1  0.049472  0  0.097295  0.100431  0  1.016335  0
H  H50  1  0.14918488  0.25903472  0.54228466  1  0.010486  0  0.09424  0.09409  0  1.005556  0
H  H51  1  0.15093219  0.33563589  0.56621411  1  0.080554  0  0.113249  0.091503  0  1.002966  0
H  H52  1  0.76157039  0.04261876  0.05884146  1  0.045956  0  0.094183  0.092415  0  0.994329  0
H  H53  1  0.80203331  0.11675495  0.06540384  1  0.047909  0  0.097162  0.100593  0  1.017071  0
H  H54  1  0.77302071  0.04697675  0.15831900  1  0.044694  0  0.095126  0.096062  0  1.00128  0
H  H55  1  0.85389366  0.07084775  0.14134125  1  0.064922  0  0.114734  0.094392  0  1.007764  0
H  H56  1  0.22703976  0.46292109  0.68774416  1  0.0733  0  0.095184  0.094405  0  0.993386  0
H  H57  1  0.15679966  0.41653335  0.68753870  1  0.05644  0  0.100673  0.108304  0  1.00334  0
H  H58  1  0.19691238  0.48371537  0.59397246  1  0.045643  0  0.094206  0.09346  0  1.006089  0
H  H59  1  0.17381676  0.40543721  0.58919469  1  0.087588  0  0.112968  0.088887  0  1.004063  0
H  H60  1  0.27003862  0.95375914  0.30265164  1  0.03567  0  0.094854  0.094116  0  0.993555  0
H  H61  1  0.33480682  0.90167232  0.30288073  1  0.031835  0  0.098442  0.101046  0  1.010669  0
H  H62  1  0.29799414  0.97653615  0.39768504  1  0.039736  0  0.095866  0.09595  0  1.001427  0
H  H63  1  0.32398917  0.90038289  0.40264309  1  0.065071  0  0.111756  0.087977  0  1.009734  0
H  H64  1  0.72834441  0.53471160  0.81305949  1  0.047759  0  0.094855  0.093379  0  0.994629  0
H  H65  1  0.65699645  0.57703985  0.81175225  1  0.046637  0  0.099217  0.105528  0  1.016746  0
H  H66  1  0.70791159  0.51915128  0.90925477  1  0.051702  0  0.094133  0.094012  0  1.004734  0
H  H67  1  0.67758785  0.59622063  0.90904050  1  0.058185  0  0.11452  0.091608  0  1.018101  0
H  H68  1  0.91799425  0.13460562  0.26360065  1  0.038153  0  0.094112  0.093196  0  0.994089  0
H  H69  1  0.86133414  0.11725233  0.20344232  1  0.051719  0  0.09739  0.101276  0  1.007377  0
H  H70  1  0.98794731  0.10887703  0.19326779  1  0.04897  0  0.094309  0.093696  0  1.005091  0
H  H71  1  0.93743395  0.15808040  0.14701562  1  0.096484  0  0.110097  0.085432  0  1.00988  0
H  H72  1  0.51850715  0.56176945  0.78143908  1  0.056125  0  0.095616  0.094191  0  0.994519  0
H  H73  1  0.58615159  0.55904149  0.82887283  1  0.07721  0  0.102364  0.108001  0  1.003128  0
H  H74  1  0.54838553  0.65936850  0.76375080  1  0.042363  0  0.094917  0.095115  0  1.004843  0
H  H75  1  0.57082344  0.66145047  0.84276429  1  0.044994  0  0.111591  0.08568  0  1.005132  0
H  H76  1  0.01371184  0.43870947  0.70655570  1  0.051814  0  0.095585  0.094691  0  0.994694  0
H  H77  1  0.07928102  0.44031099  0.65877559  1  0.084215  0  0.10219  0.107163  0  0.99629  0
H  H78  1  0.04587636  0.34266604  0.72842299  1  0.055134  0  0.096125  0.095782  0  1.003286  0
H  H79  1  0.07045763  0.33624370  0.65338240  1  0.091565  0  0.110631  0.083571  0  1.012236  0
H  H80  1  0.47023964  0.79414726  0.27242380  1  0.055875  0  0.094707  0.093587  0  0.994681  0
H  H81  1  0.41813147  0.79269320  0.33352895  1  0.053851  0  0.098047  0.100641  0  1.011038  0
H  H82  1  0.49005946  0.89297722  0.30060084  1  0.024568  0  0.095512  0.0959  0  1.002261  0
H  H83  1  0.41234210  0.89638280  0.32400266  1  0.088796  0  0.111647  0.0877  0  1.010809  0
C  C84  1  0.33999836  0.70143129  0.52091843  1  0.396853  0  0.005659  -0.054605  0  3.938725  0
C  C85  1  0.37253431  0.73613247  0.51475348  1  0.057378  0  -0.04152  0.014377  0  4.141274  0
C  C86  1  0.40512149  0.73014514  0.54864918  1  0.395149  0  0.003951  -0.062094  0  3.958822  0
C  C87  1  0.29323403  0.52397132  0.65333023  1  0.388229  0  0.005287  -0.05462  0  3.939747  0
C  C88  1  0.25567393  0.51813849  0.62388000  1  0.053657  0  -0.041388  0.016779  0  4.137635  0
C  C89  1  0.26178212  0.55301639  0.59420016  1  0.364765  0  0.002146  -0.064093  0  3.955724  0
C  C90  1  0.48326255  0.65857614  0.69510768  1  0.37752  0  0.00332  -0.062571  0  3.956694  0
C  C91  1  0.48990988  0.62847474  0.72934148  1  0.027493  0  -0.041296  0.016536  0  4.139697  0
C  C92  1  0.45249873  0.59809390  0.72419448  1  0.418915  0  0.005283  -0.055326  0  3.940512  0
C  C93  1  0.86217771  0.30668612  0.98125287  1  0.412121  0  0.005265  -0.057962  0  3.944156  0
C  C94  1  0.89186141  0.26905115  0.98359707  1  0.026933  0  -0.040765  0.01544  0  4.134125  0
C  C95  1  0.91765565  0.27138194  0.94538857  1  0.405297  0  0.003988  -0.061186  0  3.955669  0
C  C96  1  0.79958669  0.47916468  0.84665863  1  0.356346  0  0.004478  -0.057748  0  3.939864  0
C  C97  1  0.76517493  0.48543624  0.87807014  1  0.03931  0  -0.040995  0.018352  0  4.137101  0
C  C98  1  0.77580036  0.45254661  0.90897428  1  0.395237  0  0.002346  -0.063909  0  3.958233  0
C  C99  1  0.98445174  0.34339882  0.79671055  1  0.375135  0  0.003432  -0.062241  0  3.956402  0
C  C100  1  0.98918323  0.37383163  0.76261394  1  -0.021144  0  -0.040818  0.015128  0  4.138251  0
C  C101  1  0.95291989  0.40487671  0.76939539  1  0.39768  0  0.005951  -0.05507  0  3.938808  0
C  C102  1  0.15138319  0.19129042  0.47827484  1  0.381386  0  0.00239  -0.063916  0  3.959742  0
C  C103  1  0.11723262  0.22389691  0.48715660  1  0.004735  0  -0.040711  0.018344  0  4.13998  0
C  C104  1  0.08455404  0.21699794  0.45307067  1  0.432915  0  0.004273  -0.057653  0  3.940762  0
C  C105  1  0.20655482  0.01910692  0.33520027  1  0.399663  0  0.005875  -0.055508  0  3.939227  0
C  C106  1  0.24139327  0.01152102  0.36683260  1  0.038708  0  -0.041278  0.014941  0  4.14192  0
C  C107  1  0.23316957  0.04513578  0.39894860  1  0.393179  0  0.003583  -0.061783  0  3.957253  0
C  C108  1  0.01143435  0.14554313  0.29990815  1  0.372208  0  0.004876  -0.057887  0  3.946029  0
C  C109  1  0.01118536  0.12147703  0.25981489  1  0.042521  0  -0.041214  0.016011  0  4.133737  0
C  C110  1  0.05299027  0.09721223  0.26099162  1  0.38626  0  0.003834  -0.060595  0  3.954642  0
C  C111  1  0.65139226  0.80442726  0.02220137  1  0.413096  0  0.003174  -0.061035  0  3.956783  0
C  C112  1  0.62945944  0.76189935  0.02058749  1  0.006303  0  -0.041588  0.01507  0  4.137361  0
C  C113  1  0.60526246  0.76107112  0.05987111  1  0.414769  0  0.0046  -0.056838  0  3.942021  0
C  C114  1  0.70108895  0.98307769  0.16067840  1  0.365893  0  0.003116  -0.062595  0  3.956301  0
C  C115  1  0.73040587  0.99501459  0.12682369  1  0.000287  0  -0.041396  0.015945  0  4.136867  0
C  C116  1  0.72070809  0.96216806  0.09397363  1  0.411662  0  0.004144  -0.05917  0  3.947577  0
C  C117  1  0.53196973  0.83091564  0.21159442  1  0.38254  0  0.00601  -0.054669  0  3.938947  0
C  C118  1  0.52498122  0.86261917  0.24582903  1  0.043963  0  -0.041117  0.015676  0  4.141492  0
C  C119  1  0.55777752  0.89660337  0.23826241  1  0.350886  0  0.003125  -0.063503  0  3.957938  0
C  C120  1  0.89583317  0.23582344  0.01719772  1  -0.134122  0  -0.102362  -0.136065  0  4.047058  0
C  C121  1  0.88186626  0.24245759  0.05876569  1  0.01086  0  -0.108843  -0.094214  0  4.089929  0
C  C122  1  0.88127633  0.20929146  0.09237159  1  0.04314  0  -0.112363  -0.153913  0  4.102287  0
C  C123  1  0.87473781  0.16423454  0.08540767  1  0.272772  0  0.005495  -0.032977  0  3.992998  0
C  C124  1  0.37311026  0.77061191  0.48235930  1  -0.090335  0  -0.10371  -0.135978  0  4.048697  0
C  C125  1  0.33743801  0.78007231  0.45469307  1  -0.011482  0  -0.111556  -0.095723  0  4.096401  0
C  C126  1  0.33746224  0.81246474  0.42047945  1  0.010744  0  -0.118514  -0.1652  0  4.114863  0
C  C127  1  0.37578148  0.82838298  0.40093657  1  0.242678  0  0.004257  -0.035251  0  3.995178  0
C  C128  1  0.63321840  0.72767898  0.98642107  1  -0.109406  0  -0.10551  -0.140738  0  4.059626  0
C  C129  1  0.62504533  0.68277986  0.99060543  1  -0.007712  0  -0.109449  -0.092746  0  4.091147  0
C  C130  1  0.62751255  0.64918160  0.95579857  1  -0.078558  0  -0.121197  -0.169016  0  4.12299  0
C  C131  1  0.61553706  0.65714291  0.91392573  1  0.301042  0  0.004308  -0.037688  0  4.004358  0
C  C132  1  0.11692148  0.25605432  0.52325526  1  -0.027388  0  -0.107815  -0.143586  0  4.057263  0
C  C133  1  0.08002209  0.28146064  0.53547724  1  0.022717  0  -0.111619  -0.094455  0  4.100058  0
C  C134  1  0.07994504  0.31614514  0.56925840  1  -0.024985  0  -0.125363  -0.174896  0  4.126297  0
C  C135  1  0.11818289  0.33968312  0.58290302  1  0.292695  0  0.002338  -0.041946  0  4.009172  0
C  C136  1  0.76195475  0.03303551  0.12649354  1  -0.070507  0  -0.104935  -0.139361  0  4.053968  0
C  C137  1  0.77663827  0.05357054  0.09031102  1  -0.000871  0  -0.108542  -0.090654  0  4.087656  0
C  C138  1  0.80859108  0.09129243  0.08986935  1  -0.010008  0  -0.123061  -0.173163  0  4.109049  0
C  C139  1  0.84523038  0.09652680  0.11773339  1  0.33086  0  0.004893  -0.031326  0  3.997812  0
C  C140  1  0.21866552  0.48526858  0.62346290  1  -0.027128  0  -0.106853  -0.143237  0  4.057694  0
C  C141  1  0.20805046  0.45808250  0.65686273  1  -0.112659  0  -0.110771  -0.097307  0  4.097007  0
C  C142  1  0.17217491  0.42419585  0.65641584  1  0.068795  0  -0.118124  -0.161609  0  4.113222  0
C  C143  1  0.15660255  0.40148532  0.62015854  1  0.224496  0  0.005818  -0.03427  0  3.987491  0
C  C144  1  0.27760965  0.97802980  0.36742646  1  -0.073087  0  -0.10402  -0.136178  0  4.050661  0
C  C145  1  0.28840739  0.94963487  0.33370182  1  -0.015831  0  -0.11094  -0.095909  0  4.097257  0
C  C146  1  0.32241226  0.91410415  0.33430929  1  0.024397  0  -0.119231  -0.165569  0  4.117424  0
C  C147  1  0.33870333  0.89383895  0.37068445  1  0.300821  0  0.004229  -0.034997  0  3.995606  0
C  C148  1  0.72680338  0.51665552  0.87879875  1  -0.13289  0  -0.10816  -0.14449  0  4.056227  0
C  C149  1  0.71167100  0.54078637  0.84430970  1  0.022923  0  -0.110068  -0.094181  0  4.099299  0
C  C150  1  0.67368364  0.57222028  0.84338462  1  0.037916  0  -0.120656  -0.169019  0  4.110119  0
C  C151  1  0.65854753  0.59682607  0.87818824  1  0.300348  0  0.008893  -0.02323  0  3.969365  0
C  C152  1  0.97630651  0.11996040  0.22546287  1  -0.073568  0  -0.103424  -0.135814  0  4.047094  0
C  C153  1  0.93056857  0.12859150  0.23061192  1  0.022985  0  -0.109919  -0.094749  0  4.09134  0
C  C154  1  0.89634960  0.12814487  0.19583858  1  0.034045  0  -0.122125  -0.171723  0  4.114086  0
C  C155  1  0.90533860  0.14069195  0.15464382  1  0.202347  0  0.004746  -0.033881  0  4.010167  0
C  C156  1  0.52700156  0.62880155  0.76144156  1  -0.014265  0  -0.105576  -0.142129  0  4.060913  0
C  C157  1  0.53745707  0.59349592  0.78724315  1  -0.080697  0  -0.109917  -0.096987  0  4.099374  0
C  C158  1  0.57230231  0.59229697  0.82123540  1  0.018361  0  -0.114268  -0.154104  0  4.109177  0
C  C159  1  0.58742077  0.62841947  0.84551972  1  0.282873  0  0.007661  -0.029517  0  3.974972  0
C  C160  1  0.02420844  0.37295462  0.72977832  1  -0.019744  0  -0.10294  -0.134181  0  4.049145  0
C  C161  1  0.03303614  0.40715544  0.70234194  1  -0.049506  0  -0.110424  -0.102478  0  4.096156  0
C  C162  1  0.06696569  0.40722545  0.66867468  1  -0.038536  0  -0.110117  -0.147566  0  4.100857  0
C  C163  1  0.08446147  0.37000920  0.64826777  1  0.317406  0  0.006884  -0.026101  0  3.966491  0
C  C164  1  0.49227051  0.86188449  0.28067404  1  -0.071144  0  -0.104238  -0.137445  0  4.051386  0
C  C165  1  0.46511681  0.82609563  0.29039784  1  -0.009403  0  -0.111193  -0.095421  0  4.096314  0
C  C166  1  0.42931908  0.82567384  0.32233999  1  -0.067225  0  -0.119135  -0.165474  0  4.114079  0
C  C167  1  0.40699569  0.86307324  0.33761324  1  0.357396  0  0.004569  -0.034536  0  3.998337  0
N  N168  1  0.39275110  0.69505593  0.57306963  1  -0.781279  0  -0.341053  -0.141011  0  3.783435  0
N  N169  1  0.35231847  0.67721044  0.55577482  1  -0.768299  0  -0.337397  -0.138767  0  3.775218  0
N  N170  1  0.29963181  0.57768046  0.60528821  1  -0.77245  0  -0.339965  -0.141861  0  3.776648  0
N  N171  1  0.31916483  0.55955537  0.64201038  1  -0.776353  0  -0.337662  -0.139096  0  3.778499  0
N  N172  1  0.42614343  0.60925279  0.68955294  1  -0.775853  0  -0.3379  -0.138795  0  3.779377  0
N  N173  1  0.44525753  0.64678048  0.67140170  1  -0.779641  0  -0.341064  -0.141196  0  3.782454  0
N  N174  1  0.90468308  0.30769502  0.92253186  1  -0.764642  0  -0.339506  -0.140778  0  3.778511  0
N  N175  1  0.87008940  0.32951501  0.94476388  1  -0.784964  0  -0.337264  -0.137877  0  3.774633  0
N  N176  1  0.81317347  0.42851761  0.89673998  1  -0.779945  0  -0.340181  -0.14232  0  3.777866  0
N  N177  1  0.82794107  0.44513341  0.85802014  1  -0.774582  0  -0.337352  -0.139587  0  3.776486  0
N  N178  1  0.92901923  0.39375150  0.80475429  1  -0.77402  0  -0.335964  -0.137271  0  3.771041  0
N  N179  1  0.94860148  0.35555019  0.82178478  1  -0.771872  0  -0.340195  -0.142413  0  3.778125  0
N  N180  1  0.09823353  0.18287377  0.42647419  1  -0.788291  0  -0.337619  -0.138631  0  3.776839  0
N  N181  1  0.13973809  0.16685926  0.44212375  1  -0.775885  0  -0.341988  -0.14194  0  3.785759  0
N  N182  1  0.19669846  0.07068371  0.38722579  1  -0.786188  0  -0.341692  -0.14202  0  3.785082  0
N  N183  1  0.18019646  0.05449966  0.34761395  1  -0.779573  0  -0.33679  -0.137651  0  3.774025  0
N  N184  1  0.07585133  0.10572180  0.29891112  1  -0.788432  0  -0.338679  -0.141304  0  3.774494  0
N  N185  1  0.05011765  0.13597327  0.32298572  1  -0.771035  0  -0.337933  -0.140224  0  3.773164  0
N  N186  1  0.61265001  0.79990844  0.08290868  1  -0.775753  0  -0.33629  -0.138219  0  3.771177  0
N  N187  1  0.64145624  0.82679897  0.05956188  1  -0.785321  0  -0.34071  -0.14193  0  3.779874  0
N  N188  1  0.68804135  0.93332888  0.10732361  1  -0.76838  0  -0.339231  -0.140499  0  3.778401  0
N  N189  1  0.67569157  0.94642805  0.14868212  1  -0.767164  0  -0.340456  -0.140248  0  3.781792  0
N  N190  1  0.58234967  0.88583967  0.20268758  1  -0.77076  0  -0.341175  -0.14173  0  3.780747  0
N  N191  1  0.56624983  0.84502489  0.18611608  1  -0.773987  0  -0.336359  -0.13802  0  3.773457  0
N  N192  1  0.87611626  0.13289790  0.11863299  1  -1.264067  0  -0.252478  0.030533  0  3.840044  0
N  N193  1  0.37495804  0.86285217  0.37085721  1  -1.266248  0  -0.251361  0.037582  0  3.854568  0
N  N194  1  0.62173406  0.62724733  0.87831098  1  -1.247002  0  -0.24737  0.035001  0  3.804677  0
N  N195  1  0.11987525  0.37057643  0.61782175  1  -1.275237  0  -0.247998  0.036933  0  3.828049  0
