# generated using pymatgen
data_CdH14C20(NO3)2
_symmetry_space_group_name_H-M   'P 1'
_cell_length_a   10.38668593
_cell_length_b   9.99686260
_cell_length_c   9.99685934
_cell_angle_alpha   72.34536259
_cell_angle_beta   74.58807288
_cell_angle_gamma   74.58807475
_symmetry_Int_Tables_number   1
_chemical_formula_structural   CdH14C20(NO3)2
_chemical_formula_sum   'Cd2 H28 C40 N4 O12'
_cell_volume   933.98875695
_cell_formula_units_Z   2
loop_
 _symmetry_equiv_pos_site_id
 _symmetry_equiv_pos_as_xyz
  1  'x, y, z'
loop_
 _atom_site_type_symbol
 _atom_site_label
 _atom_site_symmetry_multiplicity
 _atom_site_fract_x
 _atom_site_fract_y
 _atom_site_fract_z
 _atom_site_occupancy
 _atom_site_hle17_bader_spin_density
 _atom_site_hle17_ddec_charge
 _atom_site_hle17_ddec_spin_density
 _atom_site_hle17_ddec_sum_bond_order
 _atom_site_hle17_magmom
 _atom_site_hse06_10hf_bader_spin_density
 _atom_site_hse06_10hf_ddec_charge
 _atom_site_hse06_10hf_ddec_spin_density
 _atom_site_hse06_10hf_ddec_sum_bond_order
 _atom_site_hse06_10hf_magmom
 _atom_site_hse06_bader_spin_density
 _atom_site_hse06_ddec_charge
 _atom_site_hse06_ddec_spin_density
 _atom_site_hse06_ddec_sum_bond_order
 _atom_site_hse06_magmom
 _atom_site_pbe_bader_spin_density
 _atom_site_pbe_cm5_charge
 _atom_site_pbe_ddec_charge
 _atom_site_pbe_ddec_spin_density
 _atom_site_pbe_ddec_sum_bond_order
 _atom_site_pbe_magmom
Cd  Cd0  1  0.24999970  0.96058866  0.03941161  1  0  1.174873  0  1.685925  0  0  0.979691  0  2.146403  0  0  1.034193  0  2.094406  0  0  0.792797  0.940138  0  2.183128  0
Cd  Cd1  1  0.75000203  0.03941059  0.96058735  1  0  1.174877  0  1.685903  0  0  0.979717  0  2.146356  0  0  1.03422  0  2.094357  0  0  0.792796  0.940164  0  2.183081  0
H  H2  1  0.37985688  0.85503329  0.73462964  1  0  0.134139  0  0.981625  0  0  0.142622  0  1.042757  0  0  0.146356  0  1.039533  0  0  0.106388  0.140061  0  1.044917  0
H  H3  1  0.12014489  0.26536487  0.14496291  1  0  0.13408  0  0.981659  0  0  0.142567  0  1.042802  0  0  0.146302  0  1.039575  0  0  0.106375  0.140008  0  1.044963  0
H  H4  1  0.62014349  0.14496271  0.26536976  1  0  0.134098  0  0.981676  0  0  0.142586  0  1.042795  0  0  0.14632  0  1.039572  0  0  0.106377  0.140027  0  1.044955  0
H  H5  1  0.87985406  0.73463330  0.85503716  1  0  0.134079  0  0.981684  0  0  0.142563  0  1.042826  0  0  0.146297  0  1.039602  0  0  0.106378  0.140005  0  1.044983  0
H  H6  1  0.44955210  0.94508435  0.44005825  1  0  0.118161  0  0.979383  0  0  0.129602  0  1.037083  0  0  0.132197  0  1.037272  0  0  0.103713  0.127773  0  1.037008  0
H  H7  1  0.05044974  0.55993468  0.05491560  1  0  0.118186  0  0.979424  0  0  0.129613  0  1.037126  0  0  0.132209  0  1.037315  0  0  0.103736  0.127784  0  1.037054  0
H  H8  1  0.55044387  0.05491375  0.55994065  1  0  0.118204  0  0.979518  0  0  0.129659  0  1.037194  0  0  0.132251  0  1.037385  0  0  0.103727  0.127825  0  1.037126  0
H  H9  1  0.94954720  0.44006352  0.94508601  1  0  0.118241  0  0.979376  0  0  0.129628  0  1.037125  0  0  0.132221  0  1.037316  0  0  0.103718  0.127796  0  1.037058  0
H  H10  1  0.20361097  0.04800423  0.35282292  1  0  0.110926  0  0.969902  0  0  0.111568  0  1.043091  0  0  0.114923  0  1.039207  0  0  0.119527  0.108857  0  1.046289  0
H  H11  1  0.29638883  0.64717353  0.95200081  1  0  0.110975  0  0.969889  0  0  0.111594  0  1.043101  0  0  0.114946  0  1.039219  0  0  0.119531  0.108878  0  1.046311  0
H  H12  1  0.79638496  0.95199400  0.64717996  1  0  0.110927  0  0.96987  0  0  0.111605  0  1.043012  0  0  0.114965  0  1.039122  0  0  0.119547  0.108879  0  1.046253  0
H  H13  1  0.70360689  0.35282577  0.04800176  1  0  0.110947  0  0.969847  0  0  0.111562  0  1.043078  0  0  0.114914  0  1.039195  0  0  0.119521  0.108849  0  1.046279  0
H  H14  1  0.03861583  0.20863685  0.87856938  1  0  0.092659  0  0.972959  0  0  0.097217  0  1.041428  0  0  0.100933  0  1.037995  0  0  0.115069  0.094591  0  1.043903  0
H  H15  1  0.46138099  0.12143554  0.79136555  1  0  0.092668  0  0.972937  0  0  0.097253  0  1.041378  0  0  0.100978  0  1.037926  0  0  0.115059  0.094619  0  1.043868  0
H  H16  1  0.96138428  0.79136564  0.12142995  1  0  0.092714  0  0.972907  0  0  0.097256  0  1.041389  0  0  0.100973  0  1.037955  0  0  0.115054  0.094628  0  1.043864  0
H  H17  1  0.53861809  0.87856702  0.20863604  1  0  0.092565  0  0.973061  0  0  0.097211  0  1.041428  0  0  0.100934  0  1.037978  0  0  0.115047  0.094577  0  1.043923  0
H  H18  1  0.02935083  0.42159718  0.66784317  1  0  0.102499  0  0.960273  0  0  0.111666  0  1.022708  0  0  0.114331  0  1.023203  0  0  0.105516  0.109423  0  1.023317  0
H  H19  1  0.47064540  0.33215798  0.57840737  1  0  0.102506  0  0.960343  0  0  0.111664  0  1.022783  0  0  0.114329  0  1.023277  0  0  0.10551  0.109421  0  1.023389  0
H  H20  1  0.97064907  0.57840636  0.33215487  1  0  0.102541  0  0.960316  0  0  0.111705  0  1.022743  0  0  0.11437  0  1.023238  0  0  0.105535  0.109463  0  1.023351  0
H  H21  1  0.52935508  0.66784246  0.42159554  1  0  0.10251  0  0.960296  0  0  0.111667  0  1.022748  0  0  0.114331  0  1.023244  0  0  0.105504  0.109423  0  1.023355  0
H  H22  1  0.07259310  0.65734194  0.57762776  1  0  0.114337  0  0.932141  0  0  0.128208  0  0.984342  0  0  0.131389  0  0.983498  0  0  0.112948  0.126223  0  0.984529  0
H  H23  1  0.42740780  0.42237277  0.34266077  1  0  0.114389  0  0.932121  0  0  0.128244  0  0.984337  0  0  0.131421  0  0.983493  0  0  0.112964  0.126258  0  0.984526  0
H  H24  1  0.92740921  0.34265945  0.42237033  1  0  0.114396  0  0.932151  0  0  0.128266  0  0.984341  0  0  0.131444  0  0.983498  0  0  0.112986  0.126281  0  0.984529  0
H  H25  1  0.57259768  0.57762769  0.65734077  1  0  0.114359  0  0.932148  0  0  0.128233  0  0.984341  0  0  0.131414  0  0.983498  0  0  0.112973  0.126247  0  0.98453  0
H  H26  1  0.07871028  0.86168867  0.36049347  1  0  0.088054  0  0.993259  0  0  0.087059  0  1.070664  0  0  0.090456  0  1.067225  0  0  0.115438  0.084443  0  1.073506  0
H  H27  1  0.42129649  0.63950588  0.13831328  1  0  0.088113  0  0.993162  0  0  0.087052  0  1.070626  0  0  0.090475  0  1.06716  0  0  0.115445  0.084435  0  1.073469  0
H  H28  1  0.92129603  0.13831273  0.63950353  1  0  0.088061  0  0.99322  0  0  0.087064  0  1.070624  0  0  0.09045  0  1.067191  0  0  0.115453  0.084456  0  1.073459  0
H  H29  1  0.57871022  0.36049344  0.86168630  1  0  0.088088  0  0.993204  0  0  0.087054  0  1.070647  0  0  0.090473  0  1.067189  0  0  0.115436  0.08444  0  1.073486  0
C  C30  1  0.07267341  0.90787404  0.83140664  1  0  0.627249  0  3.984514  0  0  0.57144  0  4.285786  0  0  0.607157  0  4.276177  0  0  0.199358  0.546876  0  4.292203  0
C  C31  1  0.42732906  0.16858949  0.09212588  1  0  0.627146  0  3.984684  0  0  0.571315  0  4.285984  0  0  0.607032  0  4.276381  0  0  0.19933  0.546752  0  4.292393  0
C  C32  1  0.92732551  0.09212420  0.16859542  1  0  0.627194  0  3.984539  0  0  0.571388  0  4.285832  0  0  0.607104  0  4.276225  0  0  0.199336  0.546825  0  4.292249  0
C  C33  1  0.57267127  0.83141187  0.90787176  1  0  0.62723  0  3.984623  0  0  0.571406  0  4.285895  0  0  0.607118  0  4.276301  0  0  0.19934  0.546842  0  4.292311  0
C  C34  1  0.17215283  0.92651854  0.69431743  1  0  0.035196  0  3.705919  0  0  0.031755  0  3.974516  0  0  0.029812  0  3.990832  0  0  0.043817  0.032578  0  3.964293  0
C  C35  1  0.32784758  0.30567583  0.07348231  1  0  0.035232  0  3.705815  0  0  0.031789  0  3.974436  0  0  0.029845  0  3.990754  0  0  0.043821  0.03262  0  3.964215  0
C  C36  1  0.82784475  0.07347638  0.30568309  1  0  0.035201  0  3.705752  0  0  0.031734  0  3.974404  0  0  0.029789  0  3.990721  0  0  0.043827  0.032555  0  3.964187  0
C  C37  1  0.67215057  0.69432127  0.92651834  1  0  0.035249  0  3.70586  0  0  0.031815  0  3.974458  0  0  0.029875  0  3.990777  0  0  0.043821  0.032638  0  3.964238  0
C  C38  1  0.31242002  0.90024675  0.65850366  1  0  -0.1532  0  3.761997  0  0  -0.187366  0  4.024841  0  0  -0.185496  0  4.041778  0  0  -0.116341  -0.188496  0  4.013552  0
C  C39  1  0.18758070  0.34149182  0.09975304  1  0  -0.153161  0  3.762078  0  0  -0.187339  0  4.024931  0  0  -0.185468  0  4.041869  0  0  -0.116374  -0.188473  0  4.013646  0
C  C40  1  0.68757772  0.09975249  0.34149639  1  0  -0.153091  0  3.761886  0  0  -0.187236  0  4.024724  0  0  -0.185365  0  4.04166  0  0  -0.116298  -0.188368  0  4.013437  0
C  C41  1  0.81241704  0.65850742  0.90024701  1  0  -0.153138  0  3.76201  0  0  -0.187305  0  4.024839  0  0  -0.18544  0  4.041777  0  0  -0.116339  -0.188437  0  4.013551  0
C  C42  1  0.34815748  0.94832352  0.50638030  1  0  -0.181061  0  3.804072  0  0  -0.198597  0  4.065153  0  0  -0.20574  0  4.085768  0  0  -0.130047  -0.193914  0  4.050703  0
C  C43  1  0.15184169  0.49361365  0.05167681  1  0  -0.181136  0  3.804214  0  0  -0.198654  0  4.065283  0  0  -0.205798  0  4.085896  0  0  -0.130071  -0.193972  0  4.050835  0
C  C44  1  0.65183648  0.05167461  0.49362014  1  0  -0.181168  0  3.804198  0  0  -0.198723  0  4.065284  0  0  -0.205866  0  4.0859  0  0  -0.130087  -0.194037  0  4.05083  0
C  C45  1  0.84815508  0.50638027  0.94832626  1  0  -0.181164  0  3.804124  0  0  -0.198649  0  4.065201  0  0  -0.205794  0  4.085816  0  0  -0.13003  -0.193969  0  4.050758  0
C  C46  1  0.22805255  0.00140141  0.45834327  1  0  0.095229  0  3.610317  0  0  0.054893  0  3.882737  0  0  0.065081  0  3.894027  0  0  -0.005755  0.048802  0  3.874109  0
C  C47  1  0.27194698  0.54165199  0.99860382  1  0  0.095251  0  3.610375  0  0  0.054943  0  3.882786  0  0  0.065137  0  3.894075  0  0  -0.005711  0.048862  0  3.874159  0
C  C48  1  0.77194241  0.99859672  0.54165690  1  0  0.09524  0  3.610265  0  0  0.0549  0  3.882691  0  0  0.065084  0  3.893986  0  0  -0.005758  0.048806  0  3.874054  0
C  C49  1  0.72805075  0.45834729  0.00139722  1  0  0.095277  0  3.610332  0  0  0.054979  0  3.882737  0  0  0.065173  0  3.894026  0  0  -0.005716  0.048892  0  3.874113  0
C  C50  1  0.13181973  0.24037299  0.80794224  1  0  0.128605  0  3.699918  0  0  0.097867  0  3.953228  0  0  0.104135  0  3.972212  0  0  0.046155  0.094186  0  3.940191  0
C  C51  1  0.36817763  0.19206042  0.75963021  1  0  0.128561  0  3.699907  0  0  0.097807  0  3.95319  0  0  0.104073  0  3.972175  0  0  0.046188  0.094128  0  3.940144  0
C  C52  1  0.86818037  0.75962954  0.19205808  1  0  0.128567  0  3.699878  0  0  0.097862  0  3.953169  0  0  0.10413  0  3.972149  0  0  0.046199  0.094184  0  3.94013  0
C  C53  1  0.63182031  0.80793778  0.24037113  1  0  0.128605  0  3.699975  0  0  0.097824  0  3.953267  0  0  0.104095  0  3.972253  0  0  0.046194  0.094142  0  3.940225  0
C  C54  1  0.12772072  0.35928280  0.69127760  1  0  -0.155293  0  3.699279  0  0  -0.170347  0  3.942453  0  0  -0.177808  0  3.96373  0  0  -0.080178  -0.16552  0  3.928369  0
C  C55  1  0.37227718  0.30872385  0.64071963  1  0  -0.155297  0  3.699263  0  0  -0.170345  0  3.942428  0  0  -0.177807  0  3.963707  0  0  -0.080203  -0.165517  0  3.928341  0
C  C56  1  0.87227981  0.64071749  0.30872034  1  0  -0.155335  0  3.699452  0  0  -0.170389  0  3.942613  0  0  -0.177852  0  3.963889  0  0  -0.080202  -0.165564  0  3.928531  0
C  C57  1  0.62772310  0.69127763  0.35928198  1  0  -0.155211  0  3.699202  0  0  -0.170277  0  3.942398  0  0  -0.177741  0  3.963677  0  0  -0.080173  -0.165449  0  3.92831  0
C  C58  1  0.24999784  0.39562757  0.60437498  1  0  0.095412  0  3.769311  0  0  0.105699  0  3.997627  0  0  0.109621  0  4.018763  0  0  0.012228  0.103129  0  3.982298  0
C  C59  1  0.75000348  0.60437382  0.39562338  1  0  0.095325  0  3.769405  0  0  0.105615  0  3.997711  0  0  0.109541  0  4.018844  0  0  0.012174  0.103046  0  3.982381  0
C  C60  1  0.25000063  0.52067827  0.47932265  1  0  0.088353  0  3.778254  0  0  0.102928  0  4.006332  0  0  0.107109  0  4.027503  0  0  0.01153  0.100605  0  3.991601  0
C  C61  1  0.75000267  0.47932315  0.52067616  1  0  0.088371  0  3.778225  0  0  0.102959  0  4.006292  0  0  0.107137  0  4.027463  0  0  0.011549  0.100635  0  3.991561  0
C  C62  1  0.15077734  0.64690131  0.48190152  1  0  -0.158959  0  3.695066  0  0  -0.176739  0  3.939413  0  0  -0.184265  0  3.959764  0  0  -0.081606  -0.171558  0  3.925254  0
C  C63  1  0.34922540  0.51809820  0.35310188  1  0  -0.159017  0  3.695065  0  0  -0.176786  0  3.939385  0  0  -0.184305  0  3.959736  0  0  -0.081638  -0.171604  0  3.925225  0
C  C64  1  0.84922577  0.35310115  0.51809599  1  0  -0.159023  0  3.694977  0  0  -0.176809  0  3.939315  0  0  -0.184327  0  3.959656  0  0  -0.081662  -0.171628  0  3.925158  0
C  C65  1  0.65077988  0.48190330  0.64689837  1  0  -0.159001  0  3.694984  0  0  -0.176782  0  3.939312  0  0  -0.184306  0  3.959669  0  0  -0.081644  -0.1716  0  3.925152  0
C  C66  1  0.15419712  0.76237044  0.36166033  1  0  0.126339  0  3.712007  0  0  0.095421  0  3.968427  0  0  0.10243  0  3.987325  0  0  0.044953  0.090591  0  3.955526  0
C  C67  1  0.34580792  0.63833977  0.23763087  1  0  0.12627  0  3.711961  0  0  0.09542  0  3.96834  0  0  0.10241  0  3.987221  0  0  0.044923  0.090592  0  3.955437  0
C  C68  1  0.84580838  0.23762992  0.63833823  1  0  0.12635  0  3.711806  0  0  0.095446  0  3.968197  0  0  0.102466  0  3.987101  0  0  0.044935  0.09061  0  3.955289  0
C  C69  1  0.65419836  0.36166173  0.76236911  1  0  0.126383  0  3.711774  0  0  0.095493  0  3.968202  0  0  0.102484  0  3.987087  0  0  0.044972  0.090664  0  3.955298  0
N  N70  1  0.24999825  0.15846185  0.84154118  1  0  -0.344199  0  3.286044  0  0  -0.265614  0  3.552406  0  0  -0.287807  0  3.575709  0  0  -0.325926  -0.249822  0  3.535772  0
N  N71  1  0.75000005  0.84153961  0.15845998  1  0  -0.3442  0  3.286054  0  0  -0.265662  0  3.552465  0  0  -0.287857  0  3.575761  0  0  -0.32594  -0.249873  0  3.535833  0
N  N72  1  0.25000398  0.75890879  0.24109088  1  0  -0.325604  0  3.203163  0  0  -0.247283  0  3.463787  0  0  -0.268121  0  3.484132  0  0  -0.320353  -0.231968  0  3.448743  0
N  N73  1  0.75000472  0.24109054  0.75890816  1  0  -0.325681  0  3.20299  0  0  -0.247367  0  3.46364  0  0  -0.268202  0  3.483972  0  0  -0.320371  -0.23205  0  3.448599  0
O  O74  1  0.11734237  0.86594356  0.94738840  1  0  -0.648138  0  2.033249  0  0  -0.580165  0  2.289623  0  0  -0.607672  0  2.277428  0  0  -0.329421  -0.560853  0  2.297955  0
O  O75  1  0.38265945  0.05260814  0.13405774  1  0  -0.648059  0  2.033442  0  0  -0.580075  0  2.289806  0  0  -0.607586  0  2.277613  0  0  -0.32936  -0.560765  0  2.298134  0
O  O76  1  0.88265691  0.13405796  0.05261448  1  0  -0.648098  0  2.033288  0  0  -0.580113  0  2.28966  0  0  -0.607618  0  2.277464  0  0  -0.329383  -0.560802  0  2.297993  0
O  O77  1  0.61734227  0.94739114  0.86594221  1  0  -0.648125  0  2.033422  0  0  -0.580143  0  2.289782  0  0  -0.607646  0  2.277593  0  0  -0.329392  -0.560824  0  2.298113  0
O  O78  1  0.94717168  0.93354045  0.82354601  1  0  -0.649462  0  2.042927  0  0  -0.58328  0  2.303678  0  0  -0.609659  0  2.288571  0  0  -0.330785  -0.565031  0  2.314103  0
O  O79  1  0.55283177  0.17645061  0.06645766  1  0  -0.649495  0  2.042915  0  0  -0.583294  0  2.303686  0  0  -0.609674  0  2.288591  0  0  -0.33084  -0.565044  0  2.314103  0
O  O80  1  0.05282825  0.06645776  0.17645479  1  0  -0.649461  0  2.042872  0  0  -0.58329  0  2.303644  0  0  -0.60967  0  2.288541  0  0  -0.330814  -0.565045  0  2.314066  0
O  O81  1  0.44716956  0.82355072  0.93353871  1  0  -0.649551  0  2.043007  0  0  -0.583337  0  2.303727  0  0  -0.609718  0  2.288634  0  0  -0.330815  -0.56509  0  2.314147  0
O  O82  1  0.12014607  0.98837190  0.57082412  1  0  -0.171657  0  2.447154  0  0  -0.100503  0  2.674794  0  0  -0.11603  0  2.681782  0  0  -0.123857  -0.09003  0  2.669506  0
O  O83  1  0.37985573  0.42917323  0.01163115  1  0  -0.171652  0  2.447062  0  0  -0.100507  0  2.674705  0  0  -0.116038  0  2.681701  0  0  -0.123847  -0.090053  0  2.669433  0
O  O84  1  0.87985247  0.01162312  0.42917910  1  0  -0.171653  0  2.447014  0  0  -0.100529  0  2.674711  0  0  -0.116057  0  2.681703  0  0  -0.123883  -0.090053  0  2.669423  0
O  O85  1  0.62014260  0.57082813  0.98836704  1  0  -0.171717  0  2.447118  0  0  -0.10059  0  2.674774  0  0  -0.116122  0  2.681766  0  0  -0.123895  -0.090119  0  2.669489  0
