# generated using pymatgen
data_MnH6C9O7
_symmetry_space_group_name_H-M   'P 1'
_cell_length_a   6.92738184
_cell_length_b   6.55322958
_cell_length_c   11.06480468
_cell_angle_alpha   92.30334810
_cell_angle_beta   102.36822702
_cell_angle_gamma   111.51271333
_symmetry_Int_Tables_number   1
_chemical_formula_structural   MnH6C9O7
_chemical_formula_sum   'Mn2 H12 C18 O14'
_cell_volume   452.55437900
_cell_formula_units_Z   2
loop_
 _symmetry_equiv_pos_site_id
 _symmetry_equiv_pos_as_xyz
  1  'x, y, z'
loop_
 _atom_site_type_symbol
 _atom_site_label
 _atom_site_symmetry_multiplicity
 _atom_site_fract_x
 _atom_site_fract_y
 _atom_site_fract_z
 _atom_site_occupancy
 _atom_site_hle17_ddec_charge
 _atom_site_hle17_ddec_spin_density
 _atom_site_hle17_ddec_sum_bond_order
 _atom_site_hle17_magmom
 _atom_site_hse06_10hf_ddec_charge
 _atom_site_hse06_10hf_ddec_spin_density
 _atom_site_hse06_10hf_ddec_sum_bond_order
 _atom_site_hse06_10hf_magmom
 _atom_site_hse06_ddec_charge
 _atom_site_hse06_ddec_spin_density
 _atom_site_hse06_ddec_sum_bond_order
 _atom_site_hse06_magmom
 _atom_site_pbe_cm5_charge
 _atom_site_pbe_ddec_charge
 _atom_site_pbe_ddec_spin_density
 _atom_site_pbe_ddec_sum_bond_order
 _atom_site_pbe_magmom
Mn  Mn0  1  0.28308337  0.58722089  0.07365294  1  1.301339  4.794344  1.658941  4.688  1.149464  4.712391  2.163089  4.546  1.208292  4.760421  2.082968  4.608  0.623951  1.101809  4.658196  2.222975  4.479
Mn  Mn1  1  0.71692394  0.41279159  0.92633275  1  1.301316  -4.794351  1.658857  -4.688  1.149402  -4.712404  2.16308  -4.546  1.208222  -4.760432  2.082946  -4.608  0.623906  1.101769  -4.658214  2.222927  -4.479
H  H2  1  0.11651822  0.23205710  0.28048970  1  0.409188  -4.6e-05  0.862742  0.0  0.373487  5.4e-05  0.946347  0.0  0.387158  -9e-06  0.931628  0.0  0.309807  0.363923  0.000118  0.956529  0.0
H  H3  1  0.88347112  0.76795266  0.71951719  1  0.409269  4e-05  0.862733  0.0  0.373576  -5.3e-05  0.946297  0.0  0.387242  9e-06  0.931583  0.0  0.309847  0.364013  -0.000119  0.956466  0.0
H  H4  1  0.36831926  0.47101606  0.58680416  1  0.099416  -5.9e-05  0.965821  0.0  0.108852  4.7e-05  1.031686  0.0  0.111721  5.6e-05  1.029533  0.0  0.106931  0.106693  -1.7e-05  1.033434  0.0
H  H5  1  0.63167235  0.52897284  0.41319531  1  0.099399  5.6e-05  0.96578  0.0  0.10888  -4.7e-05  1.031607  0.0  0.111751  -5.7e-05  1.029454  0.0  0.10701  0.10672  1.7e-05  1.033352  0.0
H  H6  1  0.18245388  0.93484481  0.37683373  1  0.111629  -0.000149  0.947619  0.0  0.117978  -0.000182  1.01339  0.0  0.122073  -0.000194  1.010341  0.0  0.108964  0.114932  -0.000167  1.015884  0.0
H  H7  1  0.81760414  0.06518151  0.62317756  1  0.111582  0.000165  0.947364  0.0  0.117955  0.000182  1.013139  0.0  0.122058  0.000194  1.010071  0.0  0.108906  0.114879  0.000167  1.01568  0.0
H  H8  1  0.18870593  0.13699983  0.57309373  1  0.095155  1.1e-05  0.973017  0.0  0.104397  -1.5e-05  1.038449  0.0  0.107155  -9e-06  1.037443  0.0  0.102429  0.10229  -5.9e-05  1.039492  0.0
H  H9  1  0.81131696  0.86301542  0.42689035  1  0.09517  7e-06  0.973157  0.0  0.104411  1.4e-05  1.038591  0.0  0.107165  8e-06  1.037586  0.0  0.102471  0.102321  5.9e-05  1.039607  0.0
H  H10  1  0.01394205  0.17940495  0.91796094  1  0.438772  7e-05  0.836436  0.0  0.405012  0.00023  0.912841  0.0  0.416446  0.000196  0.896208  0.0  0.309279  0.396662  0.000256  0.923873  0.0
H  H11  1  0.98606564  0.82058697  0.08205325  1  0.438878  -7.2e-05  0.836438  0.0  0.405135  -0.000231  0.91269  0.0  0.416564  -0.000196  0.896064  0.0  0.309325  0.396783  -0.000257  0.923813  0.0
H  H12  1  0.95707088  0.16983923  0.05001533  1  0.425714  0.000149  0.871343  0.0  0.391553  0.000364  0.944232  0.0  0.402444  0.000299  0.928361  0.0  0.306309  0.383623  0.000416  0.955787  0.0
H  H13  1  0.04294607  0.83019834  0.94998750  1  0.425351  -0.00015  0.871453  0.0  0.391376  -0.000365  0.94439  0.0  0.40228  -0.0003  0.928497  0.0  0.306172  0.383449  -0.000418  0.955938  0.0
C  C14  1  0.40204440  0.65173131  0.81693828  1  0.702128  -0.000809  3.868909  -0.001  0.650814  -0.000998  4.159471  -0.001  0.687307  -0.000697  4.15096  -0.001  0.235472  0.624777  -0.001201  4.164686  -0.001
C  C15  1  0.59793726  0.34826475  0.18304926  1  0.702323  0.00081  3.868129  0.001  0.650672  0.001  4.159248  0.001  0.687162  0.000695  4.150754  0.001  0.235416  0.624639  0.001202  4.164464  0.001
C  C16  1  0.34072291  0.73354445  0.69531106  1  -0.066128  -0.000551  3.700738  -0.001  -0.053549  -0.000391  3.940136  -0.001  -0.059562  -0.000408  3.957744  -0.001  -0.007803  -0.04976  -0.001024  3.928859  -0.001
C  C17  1  0.65928235  0.26646000  0.30468956  1  -0.06617  0.000538  3.70035  0.001  -0.053617  0.000387  3.939964  0.001  -0.059637  0.000413  3.957593  0.001  -0.007751  -0.049834  0.001024  3.928699  0.001
C  C18  1  0.32973036  0.61752404  0.58393896  1  -0.054034  0.004262  3.689408  0.003  -0.09394  0.005292  3.944737  0.004  -0.090137  0.003947  3.96219  0.003  -0.076059  -0.095975  0.003959  3.932828  0.003
C  C19  1  0.67030810  0.38247668  0.41607564  1  -0.054038  -0.004203  3.689512  -0.003  -0.093953  -0.005288  3.944793  -0.004  -0.090156  -0.003951  3.962253  -0.003  -0.076197  -0.095984  -0.003957  3.932894  -0.003
C  C20  1  0.26419134  0.68459501  0.46902764  1  -0.090583  -0.000293  3.786572  -0.001  -0.06608  0.000237  4.024419  0.0  -0.076725  -5.1e-05  4.048253  0.0  -0.019946  -0.058843  -0.00034  4.008268  -0.001
C  C21  1  0.73582262  0.31540372  0.53097755  1  -0.090436  0.000243  3.787142  0.001  -0.06586  -0.000237  4.024865  0.0  -0.076496  5.3e-05  4.0487  0.0  -0.019917  -0.05862  0.00034  4.008703  0.001
C  C22  1  0.22581513  0.87981316  0.46642306  1  -0.040431  -0.000489  3.699888  0.0  -0.069321  -0.000565  3.955431  0.0  -0.066928  -0.000237  3.973723  0.0  -0.074945  -0.071418  0.001548  3.943637  0.001
C  C23  1  0.77417092  0.12019625  0.53357528  1  -0.040454  0.00051  3.699599  0.0  -0.069369  0.000567  3.955096  0.0  -0.066983  0.000239  3.973396  0.0  -0.074857  -0.07145  -0.001548  3.943303  -0.001
C  C24  1  0.23153465  0.99301850  0.57691505  1  -0.084842  -0.000693  3.727095  -0.001  -0.109684  -0.000698  3.987728  -0.001  -0.113149  -0.000655  4.007442  -0.001  -0.086739  -0.107347  -0.000997  3.975037  -0.001
C  C25  1  0.76846833  0.00696958  0.42307767  1  -0.084736  0.000597  3.726527  0.001  -0.109616  0.000699  3.987181  0.001  -0.113077  0.000655  4.006898  0.001  -0.086735  -0.107281  0.000999  3.974493  0.001
C  C26  1  0.27910028  0.91581259  0.69107142  1  -0.048574  -0.000582  3.703341  -0.001  -0.039102  -0.000938  3.943366  -0.001  -0.039708  -0.000362  3.960235  0.0  -0.000608  -0.039366  0.000828  3.932784  0.001
C  C27  1  0.72088672  0.08418700  0.30890964  1  -0.048832  0.000619  3.704063  0.001  -0.03932  0.000939  3.944131  0.001  -0.039906  0.000361  3.960943  0.0  -0.000812  -0.039588  -0.000829  3.933564  -0.001
C  C28  1  0.21818836  0.54575013  0.34941572  1  0.681311  0.008729  3.780956  0.009  0.624812  0.013406  4.077989  0.013  0.661492  0.010236  4.067427  0.01  0.247153  0.599214  0.01586  4.084798  0.015
C  C29  1  0.78179958  0.45425132  0.65057906  1  0.681369  -0.008688  3.781059  -0.009  0.624817  -0.013406  4.07812  -0.013  0.661491  -0.010232  4.067539  -0.01  0.247148  0.599206  -0.015862  4.084938  -0.015
C  C30  1  0.25471762  0.02115332  0.80731816  1  0.698547  -0.007786  3.836642  -0.008  0.639545  -0.011367  4.140409  -0.011  0.674639  -0.009112  4.13098  -0.009  0.238089  0.615119  -0.014008  4.146142  -0.013
C  C31  1  0.74527147  0.97883559  0.19269727  1  0.698426  0.007805  3.836804  0.008  0.63943  0.011371  4.140462  0.011  0.674536  0.009115  4.131031  0.009  0.238135  0.614998  0.014015  4.146203  0.013
O  O32  1  0.27485401  0.62531249  0.88744604  1  -0.650892  0.030311  2.082246  0.015  -0.582479  0.031777  2.351887  0.012  -0.615261  0.029571  2.338139  0.01  -0.303636  -0.556979  0.034898  2.360296  0.016
O  O33  1  0.72513420  0.37470499  0.11254101  1  -0.650921  -0.030306  2.081875  -0.015  -0.582406  -0.031771  2.351731  -0.012  -0.615147  -0.029566  2.337911  -0.01  -0.303674  -0.556913  -0.034891  2.360143  -0.016
O  O34  1  0.57199667  0.61362733  0.83754653  1  -0.667942  -0.032323  2.082861  -0.018  -0.607288  -0.036097  2.362158  -0.017  -0.638963  -0.032768  2.345806  -0.014  -0.309423  -0.583105  -0.039042  2.372953  -0.02
O  O35  1  0.42795226  0.38632440  0.16244316  1  -0.668062  0.032311  2.082684  0.018  -0.607254  0.036095  2.362101  0.017  -0.638935  0.032769  2.345748  0.014  -0.309326  -0.583062  0.03904  2.372888  0.02
O  O36  1  0.19203498  0.33839965  0.36187372  1  -0.54874  0.001969  2.175721  0.003  -0.492233  0.00438  2.411043  0.005  -0.517163  0.003122  2.399424  0.004  -0.3118  -0.474794  0.005624  2.418462  0.006
O  O37  1  0.80797414  0.66158752  0.63813782  1  -0.548749  -0.001955  2.175898  -0.002  -0.492272  -0.004382  2.411312  -0.005  -0.517236  -0.003125  2.399774  -0.004  -0.311774  -0.47485  -0.005626  2.418765  -0.006
O  O38  1  0.19749861  0.62016501  0.24753825  1  -0.599924  0.023849  2.068117  0.009  -0.541901  0.030724  2.337206  0.012  -0.567403  0.027765  2.321199  0.009  -0.280036  -0.522717  0.033183  2.347856  0.014
O  O39  1  0.80252364  0.37985195  0.75245754  1  -0.600029  -0.023897  2.068253  -0.009  -0.541917  -0.030731  2.33724  -0.012  -0.567408  -0.027772  2.321224  -0.009  -0.280014  -0.522722  -0.033188  2.34788  -0.014
O  O40  1  0.06163928  0.97291702  0.81920356  1  -0.651119  -0.003712  1.988596  -0.004  -0.57705  -0.00588  2.199599  -0.007  -0.604807  -0.004655  2.187609  -0.006  -0.295909  -0.557508  -0.007358  2.207496  -0.008
O  O41  1  0.93836332  0.02709220  0.18080859  1  -0.651067  0.00373  1.988391  0.004  -0.576921  0.005885  2.199289  0.007  -0.6047  0.004661  2.187331  0.006  -0.295834  -0.557374  0.007364  2.207194  0.008
O  O42  1  0.41741135  0.14856420  0.88714967  1  -0.623791  -0.030873  2.067189  -0.017  -0.566701  -0.038159  2.347109  -0.02  -0.596379  -0.034411  2.330623  -0.016  -0.290053  -0.544442  -0.041612  2.358136  -0.023
O  O43  1  0.58258811  0.85139786  0.11284382  1  -0.623821  0.030868  2.066825  0.017  -0.56675  0.038176  2.346763  0.02  -0.596441  0.034424  2.330278  0.016  -0.290211  -0.544483  0.041629  2.357796  0.023
O  O44  1  0.98358414  0.26503028  0.98262280  1  -0.83609  0.003097  1.941978  0.003  -0.766497  0.003788  2.183787  0.003  -0.792439  0.003193  2.143213  0.002  -0.531375  -0.746718  0.004546  2.211804  0.004
O  O45  1  0.01637089  0.73494325  0.01739979  1  -0.835877  -0.003106  1.941942  -0.003  -0.766486  -0.003799  2.183675  -0.003  -0.79245  -0.003202  2.143145  -0.002  -0.531287  -0.746687  -0.004557  2.211729  -0.004
