# generated using pymatgen
data_CaH8C6N2O7
_symmetry_space_group_name_H-M   'P 1'
_cell_length_a   5.83445829
_cell_length_b   8.56379484
_cell_length_c   9.64962895
_cell_angle_alpha   91.23008959
_cell_angle_beta   90.29481305
_cell_angle_gamma   78.65519896
_symmetry_Int_Tables_number   1
_chemical_formula_structural   CaH8C6N2O7
_chemical_formula_sum   'Ca2 H16 C12 N4 O14'
_cell_volume   472.61500622
_cell_formula_units_Z   2
loop_
 _symmetry_equiv_pos_site_id
 _symmetry_equiv_pos_as_xyz
  1  'x, y, z'
loop_
 _atom_site_type_symbol
 _atom_site_label
 _atom_site_symmetry_multiplicity
 _atom_site_fract_x
 _atom_site_fract_y
 _atom_site_fract_z
 _atom_site_occupancy
 _atom_site_pbe_bader_spin_density
 _atom_site_pbe_cm5_charge
 _atom_site_pbe_ddec_charge
 _atom_site_pbe_ddec_spin_density
 _atom_site_pbe_ddec_sum_bond_order
 _atom_site_pbe_magmom
Ca  Ca0  1  0.69228992  0.66356478  0.98500424  1  0  0.858983  1.341563  0  1.482516  0
Ca  Ca1  1  0.30770594  0.33643543  0.01499167  1  0  0.858974  1.341589  0  1.482468  0
H  H2  1  0.59994530  0.83104845  0.26898587  1  0  0.284815  0.334262  0  1.029117  0
H  H3  1  0.40004301  0.16895436  0.73101833  1  0  0.284854  0.334344  0  1.029015  0
H  H4  1  0.82119119  0.91531752  0.47135512  1  0  0.122407  0.105913  0  1.033409  0
H  H5  1  0.17880096  0.08467815  0.52864911  1  0  0.122395  0.105902  0  1.033246  0
H  H6  1  0.28060795  0.66103387  0.45723346  1  0  0.12748  0.110098  0  0.970452  0
H  H7  1  0.71942504  0.33895097  0.54276147  1  0  0.127445  0.110027  0  0.970351  0
H  H8  1  0.32477748  0.90713152  0.07738595  1  0  0.313762  0.389871  0  0.935159  0
H  H9  1  0.67524990  0.09286638  0.92260789  1  0  0.313762  0.389847  0  0.935219  0
H  H10  1  0.15608452  0.84013475  0.96978041  1  0  0.302339  0.388963  0  0.953542  0
H  H11  1  0.84392085  0.15987404  0.03022168  1  0  0.302334  0.388927  0  0.953586  0
H  H12  1  0.00026906  0.44001525  0.78885569  1  0  0.3015  0.382221  0  0.961961  0
H  H13  1  0.99974451  0.55999476  0.21114639  1  0  0.301548  0.382273  0  0.96186  0
H  H14  1  0.77402135  0.93018431  0.20793099  1  0  0.288487  0.378496  0  0.961294  0
H  H15  1  0.22597215  0.06981244  0.79206909  1  0  0.288474  0.378435  0  0.961367  0
H  H16  1  0.84341887  0.33249299  0.87476886  1  0  0.314569  0.397599  0  0.926306  0
H  H17  1  0.15659747  0.66751334  0.12522909  1  0  0.314635  0.39768  0  0.926214  0
C  C18  1  0.45412204  0.66654469  0.65607507  1  0  0.130762  0.07444  0  3.960506  0
C  C19  1  0.54586248  0.33345883  0.34391358  1  0  0.130786  0.074343  0  3.960472  0
C  C20  1  0.41748429  0.70340963  0.51589275  1  0  0.071459  0.05262  0  3.885588  0
C  C21  1  0.58251623  0.29660387  0.48410829  1  0  0.071647  0.052907  0  3.88505  0
C  C22  1  0.74089745  0.81602961  0.66612326  1  0  0.128989  0.075109  0  3.980864  0
C  C23  1  0.25910304  0.18395573  0.33389345  1  0  0.128975  0.074892  0  3.980898  0
C  C24  1  0.71251361  0.84550834  0.52471615  1  0  0.06831  0.051953  0  3.863059  0
C  C25  1  0.28748769  0.15449697  0.47529011  1  0  0.068244  0.051969  0  3.863151  0
C  C26  1  0.91231419  0.88312611  0.75601223  1  0  0.223026  0.548314  0  4.24771  0
C  C27  1  0.08769166  0.11686969  0.24399407  1  0  0.222961  0.548352  0  4.247663  0
C  C28  1  0.32165843  0.55986032  0.73279659  1  0  0.22694  0.555391  0  4.228349  0
C  C29  1  0.67834392  0.44014123  0.26720346  1  0  0.22712  0.555887  0  4.228103  0
N  N30  1  0.61431952  0.72465102  0.72964893  1  0  -0.326428  -0.282897  0  3.451375  0
N  N31  1  0.38566732  0.27536251  0.27035523  1  0  -0.326437  -0.282887  0  3.451093  0
N  N32  1  0.54929050  0.79027575  0.45029142  1  0  -0.282053  -0.193744  0  3.367124  0
N  N33  1  0.45073523  0.20971622  0.54970349  1  0  -0.282105  -0.193799  0  3.366923  0
O  O34  1  0.91338238  0.84613079  0.88459424  1  0  -0.345413  -0.598833  0  2.254754  0
O  O35  1  0.08658381  0.15386012  0.11541417  1  0  -0.345286  -0.598689  0  2.254777  0
O  O36  1  0.93233781  0.41933755  0.88114243  1  0  -0.624766  -0.835238  0  2.121477  0
O  O37  1  0.06768060  0.58066772  0.11885968  1  0  -0.624855  -0.835361  0  2.121433  0
O  O38  1  0.40118329  0.51849343  0.85323714  1  0  -0.372491  -0.623624  0  2.257269  0
O  O39  1  0.59879793  0.48149825  0.14675467  1  0  -0.372607  -0.623966  0  2.257094  0
O  O40  1  0.14806604  0.52068976  0.67319151  1  0  -0.298143  -0.530946  0  2.171531  0
O  O41  1  0.85192275  0.47929981  0.32680860  1  0  -0.298204  -0.531113  0  2.171759  0
O  O42  1  0.65698919  0.86527312  0.17935461  1  0  -0.613339  -0.797525  0  2.06615  0
O  O43  1  0.34299870  0.13473681  0.82064852  1  0  -0.613349  -0.797539  0  2.066091  0
O  O44  1  0.29822533  0.81006659  0.03045924  1  0  -0.602023  -0.795739  0  2.094138  0
O  O45  1  0.70178145  0.18993719  0.96953458  1  0  -0.602026  -0.795715  0  2.094143  0
O  O46  1  0.03677583  0.96897266  0.70177094  1  0  -0.299197  -0.528223  0  2.198703  0
O  O47  1  0.96320882  0.03101904  0.29822087  1  0  -0.299263  -0.528348  0  2.198543  0
