# generated using pymatgen
data_AgH8C10SNO3
_symmetry_space_group_name_H-M   'P 1'
_cell_length_a   7.13225498
_cell_length_b   11.95475015
_cell_length_c   13.14797704
_cell_angle_alpha   72.60521574
_cell_angle_beta   74.26578298
_cell_angle_gamma   72.52529454
_symmetry_Int_Tables_number   1
_chemical_formula_structural   AgH8C10SNO3
_chemical_formula_sum   'Ag4 H32 C40 S4 N4 O12'
_cell_volume   999.94388100
_cell_formula_units_Z   4
loop_
 _symmetry_equiv_pos_site_id
 _symmetry_equiv_pos_as_xyz
  1  'x, y, z'
loop_
 _atom_site_type_symbol
 _atom_site_label
 _atom_site_symmetry_multiplicity
 _atom_site_fract_x
 _atom_site_fract_y
 _atom_site_fract_z
 _atom_site_occupancy
 _atom_site_hle17_bader_spin_density
 _atom_site_hle17_ddec_charge
 _atom_site_hle17_ddec_spin_density
 _atom_site_hle17_ddec_sum_bond_order
 _atom_site_hle17_magmom
 _atom_site_hse06_10hf_bader_spin_density
 _atom_site_hse06_10hf_ddec_charge
 _atom_site_hse06_10hf_ddec_spin_density
 _atom_site_hse06_10hf_ddec_sum_bond_order
 _atom_site_hse06_10hf_magmom
 _atom_site_hse06_bader_spin_density
 _atom_site_hse06_ddec_charge
 _atom_site_hse06_ddec_spin_density
 _atom_site_hse06_ddec_sum_bond_order
 _atom_site_hse06_magmom
 _atom_site_pbe_bader_spin_density
 _atom_site_pbe_cm5_charge
 _atom_site_pbe_ddec_charge
 _atom_site_pbe_ddec_spin_density
 _atom_site_pbe_ddec_sum_bond_order
 _atom_site_pbe_magmom
Ag  Ag0  1  0.83646508  0.91038139  0.92703645  1  0  0.616405  0  1.331276  0  0  0.520796  0  1.740175  0  0  0.539826  0  1.699  0  0  0.490835  0.507391  0  1.768618  0
Ag  Ag1  1  0.67420238  0.58945524  0.57323122  1  0  0.616334  0  1.33506  0  0  0.520796  0  1.744435  0  0  0.539782  0  1.703214  0  0  0.491505  0.50738  0  1.772928  0
Ag  Ag2  1  0.16353308  0.08963106  0.07295641  1  0  0.616433  0  1.331304  0  0  0.520805  0  1.740274  0  0  0.539833  0  1.699099  0  0  0.49087  0.507399  0  1.768729  0
Ag  Ag3  1  0.32580667  0.41054275  0.42676402  1  0  0.616352  0  1.335011  0  0  0.520822  0  1.74434  0  0  0.539806  0  1.70312  0  0  0.491508  0.507404  0  1.772836  0
H  H4  1  0.84033797  0.14178068  0.25232943  1  0  0.08659  0  0.999255  0  0  0.091941  0  1.07451  0  0  0.095996  0  1.07104  0  0  0.094726  0.088982  0  1.077118  0
H  H5  1  0.23464105  0.35798252  0.24735741  1  0  0.085278  0  0.998649  0  0  0.090907  0  1.073907  0  0  0.094849  0  1.070569  0  0  0.094528  0.08803  0  1.076415  0
H  H6  1  0.15965344  0.85822560  0.74767662  1  0  0.086567  0  0.99932  0  0  0.091908  0  1.074572  0  0  0.095963  0  1.071106  0  0  0.09471  0.088952  0  1.077173  0
H  H7  1  0.76536167  0.64202728  0.75264117  1  0  0.085323  0  0.99863  0  0  0.09095  0  1.073866  0  0  0.094892  0  1.070531  0  0  0.094534  0.088076  0  1.076373  0
H  H8  1  0.07965961  0.11035928  0.49496748  1  0  0.100065  0  0.940404  0  0  0.115037  0  0.994539  0  0  0.117469  0  0.993037  0  0  0.109019  0.113257  0  0.995666  0
H  H9  1  0.68396445  0.38968238  0.00527992  1  0  0.099908  0  0.941107  0  0  0.114808  0  0.995319  0  0  0.117336  0  0.993676  0  0  0.109279  0.112966  0  0.996551  0
H  H10  1  0.92033702  0.88962702  0.50503268  1  0  0.099975  0  0.940393  0  0  0.114957  0  0.994532  0  0  0.117391  0  0.993034  0  0  0.108963  0.113178  0  0.995661  0
H  H11  1  0.31604068  0.61030578  0.99472509  1  0  0.099926  0  0.941147  0  0  0.114796  0  0.995385  0  0  0.117325  0  0.993742  0  0  0.109301  0.112955  0  0.996611  0
H  H12  1  0.05850819  0.00645122  0.36239403  1  0  0.105686  0  0.97906  0  0  0.115602  0  1.042317  0  0  0.118522  0  1.041622  0  0  0.104528  0.11348  0  1.043006  0
H  H13  1  0.42600151  0.49347115  0.13802387  1  0  0.106418  0  0.979229  0  0  0.116368  0  1.042257  0  0  0.119286  0  1.041567  0  0  0.105274  0.114231  0  1.042944  0
H  H14  1  0.94149116  0.99353958  0.63760504  1  0  0.105644  0  0.979132  0  0  0.115554  0  1.0424  0  0  0.118472  0  1.041708  0  0  0.104531  0.113431  0  1.043088  0
H  H15  1  0.57401371  0.50651609  0.86198041  1  0  0.106396  0  0.97931  0  0  0.116363  0  1.042288  0  0  0.119283  0  1.041599  0  0  0.105292  0.114226  0  1.042978  0
H  H16  1  0.27437250  0.19277349  0.56854251  1  0  0.124814  0  0.940161  0  0  0.13152  0  1.002638  0  0  0.135101  0  1.000219  0  0  0.107262  0.128866  0  1.004479  0
H  H17  1  0.03501093  0.30760284  0.93120946  1  0  0.126213  0  0.939971  0  0  0.132253  0  1.002946  0  0  0.135881  0  1.000507  0  0  0.10779  0.129585  0  1.004806  0
H  H18  1  0.72559371  0.80721474  0.43146622  1  0  0.124836  0  0.940214  0  0  0.131548  0  1.002697  0  0  0.13513  0  1.000275  0  0  0.107262  0.128895  0  1.00454  0
H  H19  1  0.96499928  0.69239967  0.06878619  1  0  0.126259  0  0.940032  0  0  0.132292  0  1.003001  0  0  0.135918  0  1.000562  0  0  0.107814  0.129625  0  1.004857  0
H  H20  1  0.85390454  0.24772981  0.38249580  1  0  0.098646  0  0.97348  0  0  0.108043  0  1.036086  0  0  0.110386  0  1.035987  0  0  0.09925  0.106286  0  1.036266  0
H  H21  1  0.48469826  0.25218275  0.11694832  1  0  0.097994  0  0.971494  0  0  0.107262  0  1.034374  0  0  0.109595  0  1.034247  0  0  0.098929  0.105541  0  1.034571  0
H  H22  1  0.14606882  0.75227478  0.61751892  1  0  0.098662  0  0.973536  0  0  0.108068  0  1.036129  0  0  0.110399  0  1.036039  0  0  0.09932  0.106314  0  1.03631  0
H  H23  1  0.51530524  0.74782071  0.88305047  1  0  0.097985  0  0.971494  0  0  0.107255  0  1.034379  0  0  0.109588  0  1.034251  0  0  0.098927  0.105537  0  1.034573  0
H  H24  1  0.58522147  0.26121852  0.54850713  1  0  0.104187  0  0.941313  0  0  0.118248  0  0.990845  0  0  0.121394  0  0.989123  0  0  0.102249  0.11588  0  0.992312  0
H  H25  1  0.39493889  0.23898868  0.95090848  1  0  0.103218  0  0.941971  0  0  0.117605  0  0.991247  0  0  0.120785  0  0.989487  0  0  0.102176  0.115231  0  0.992756  0
H  H26  1  0.41474265  0.73876980  0.45150930  1  0  0.104165  0  0.941241  0  0  0.118317  0  0.990659  0  0  0.12144  0  0.988984  0  0  0.102311  0.115947  0  0.992138  0
H  H27  1  0.60507187  0.76101476  0.04908894  1  0  0.103306  0  0.941793  0  0  0.117636  0  0.991128  0  0  0.12082  0  0.989359  0  0  0.102141  0.115222  0  0.992691  0
H  H28  1  0.21942819  0.89903158  0.23509095  1  0  0.328426  0  0.892236  0  0  0.320522  0  0.938945  0  0  0.32691  0  0.934282  0  0  0.300693  0.315955  0  0.94227  0
H  H29  1  0.35229029  0.60136082  0.26504136  1  0  0.32984  0  0.891059  0  0  0.321458  0  0.938389  0  0  0.327849  0  0.933744  0  0  0.301172  0.316892  0  0.941714  0
H  H30  1  0.78057489  0.10096635  0.76489872  1  0  0.328457  0  0.892324  0  0  0.320574  0  0.93898  0  0  0.326958  0  0.934329  0  0  0.300791  0.316006  0  0.942305  0
H  H31  1  0.64771909  0.39863083  0.73495310  1  0  0.329767  0  0.891075  0  0  0.321417  0  0.938379  0  0  0.327809  0  0.93373  0  0  0.301118  0.316852  0  0.9417  0
H  H32  1  0.46297337  0.89845818  0.16365981  1  0  0.324755  0  0.935242  0  0  0.309318  0  0.995071  0  0  0.316641  0  0.989157  0  0  0.294315  0.304117  0  0.99922  0
H  H33  1  0.52402956  0.60156353  0.33643301  1  0  0.324885  0  0.936435  0  0  0.30999  0  0.995392  0  0  0.317291  0  0.989497  0  0  0.294853  0.304814  0  0.999513  0
H  H34  1  0.53703193  0.10154789  0.83632993  1  0  0.324832  0  0.935168  0  0  0.309407  0  0.994986  0  0  0.31673  0  0.989071  0  0  0.294307  0.304205  0  0.999137  0
H  H35  1  0.47596561  0.39844078  0.66356055  1  0  0.324816  0  0.936506  0  0  0.309986  0  0.995368  0  0  0.317285  0  0.989477  0  0  0.29484  0.30481  0  0.999487  0
C  C36  1  0.54959457  0.10331523  0.33408509  1  0  0.083856  0  3.743444  0  0  0.092253  0  3.965731  0  0  0.095431  0  3.991469  0  0  0.002963  0.090215  0  3.948449  0
C  C37  1  0.98663466  0.39664978  0.16578308  1  0  0.082286  0  3.745277  0  0  0.091043  0  3.967279  0  0  0.094286  0  3.992982  0  0  0.002202  0.088957  0  3.949995  0
C  C38  1  0.45040182  0.89668109  0.66592069  1  0  0.083718  0  3.743845  0  0  0.092055  0  3.966056  0  0  0.095244  0  3.991789  0  0  0.002937  0.090015  0  3.948766  0
C  C39  1  0.01337548  0.60335727  0.83421277  1  0  0.082264  0  3.745066  0  0  0.090947  0  3.967194  0  0  0.094194  0  3.992895  0  0  0.002183  0.088863  0  3.949915  0
C  C40  1  0.71658469  0.15157312  0.32133057  1  0  -0.119583  0  3.72763  0  0  -0.13963  0  3.977949  0  0  -0.144256  0  4.000154  0  0  -0.099167  -0.136691  0  3.963157  0
C  C41  1  0.18959268  0.34838760  0.17830564  1  0  -0.114082  0  3.724584  0  0  -0.134491  0  3.974563  0  0  -0.139008  0  3.99675  0  0  -0.096326  -0.131614  0  3.959764  0
C  C42  1  0.28341177  0.84842688  0.67868005  1  0  -0.119441  0  3.727726  0  0  -0.139497  0  3.978112  0  0  -0.144124  0  4.000309  0  0  -0.099061  -0.136553  0  3.963314  0
C  C43  1  0.81041718  0.65162214  0.82168885  1  0  -0.11409  0  3.724644  0  0  -0.13447  0  3.974642  0  0  -0.138987  0  3.99683  0  0  -0.096347  -0.131592  0  3.959847  0
C  C44  1  0.54044442  0.03263273  0.26511883  1  0  -0.286963  0  3.63243  0  0  -0.265565  0  3.880869  0  0  -0.279233  0  3.903353  0  0  -0.03141  -0.256611  0  3.865882  0
C  C45  1  0.83757176  0.46734030  0.23484128  1  0  -0.288009  0  3.630782  0  0  -0.265277  0  3.87699  0  0  -0.279074  0  3.899606  0  0  -0.031074  -0.256193  0  3.861906  0
C  C46  1  0.45955229  0.96736989  0.73488425  1  0  -0.287061  0  3.632675  0  0  -0.265618  0  3.881043  0  0  -0.279305  0  3.903538  0  0  -0.031396  -0.256681  0  3.866105  0
C  C47  1  0.16243375  0.53265683  0.76515794  1  0  -0.28814  0  3.630673  0  0  -0.265375  0  3.876898  0  0  -0.279176  0  3.899513  0  0  -0.031093  -0.256292  0  3.861817  0
C  C48  1  0.36166771  0.00157942  0.27388659  1  0  0.302682  0  3.801844  0  0  0.285233  0  4.057542  0  0  0.297734  0  4.078545  0  0  0.09214  0.276817  0  4.043159  0
C  C49  1  0.63622655  0.49851911  0.22616665  1  0  0.305022  0  3.795317  0  0  0.287639  0  4.050677  0  0  0.300132  0  4.071653  0  0  0.092905  0.279191  0  4.036328  0
C  C50  1  0.63832871  0.99842401  0.72610913  1  0  0.30264  0  3.801998  0  0  0.285139  0  4.057786  0  0  0.29765  0  4.078786  0  0  0.092035  0.276723  0  4.043389  0
C  C51  1  0.36378183  0.50148169  0.77383613  1  0  0.305132  0  3.795114  0  0  0.287752  0  4.050477  0  0  0.300247  0  4.071454  0  0  0.092926  0.279303  0  4.036129  0
C  C52  1  0.20705341  0.09017003  0.42986053  1  0  -0.048585  0  3.718879  0  0  -0.073006  0  3.969073  0  0  -0.069697  0  3.987526  0  0  -0.075371  -0.074866  0  3.956403  0
C  C53  1  0.72618416  0.40984219  0.07031809  1  0  -0.049892  0  3.721879  0  0  -0.074077  0  3.972406  0  0  -0.070805  0  3.990828  0  0  -0.075831  -0.075916  0  3.959764  0
C  C54  1  0.79293082  0.90982710  0.57013664  1  0  -0.048723  0  3.718955  0  0  -0.073249  0  3.969084  0  0  -0.069943  0  3.987531  0  0  -0.075442  -0.075111  0  3.956416  0
C  C55  1  0.27382397  0.59015411  0.92968622  1  0  -0.050045  0  3.721398  0  0  -0.074162  0  3.97187  0  0  -0.070887  0  3.99028  0  0  -0.075861  -0.076012  0  3.959257  0
C  C56  1  0.19571823  0.03181837  0.35742792  1  0  -0.172481  0  3.729506  0  0  -0.189277  0  3.987321  0  0  -0.196965  0  4.008115  0  0  -0.097033  -0.184289  0  3.973368  0
C  C57  1  0.58388829  0.46819444  0.14279729  1  0  -0.173817  0  3.729532  0  0  -0.190898  0  3.987946  0  0  -0.198598  0  4.008768  0  0  -0.09826  -0.185852  0  3.973947  0
C  C58  1  0.80427747  0.96818143  0.64256643  1  0  -0.172278  0  3.729371  0  0  -0.189061  0  3.98723  0  0  -0.196746  0  4.008023  0  0  -0.09692  -0.184068  0  3.973268  0
C  C59  1  0.41614634  0.53179453  0.85720126  1  0  -0.173735  0  3.729324  0  0  -0.19085  0  3.987755  0  0  -0.19855  0  4.008572  0  0  -0.098266  -0.18581  0  3.973765  0
C  C60  1  0.38222810  0.12800451  0.42041460  1  0  0.04103  0  3.775215  0  0  0.058712  0  4.003161  0  0  0.054784  0  4.028283  0  0  -0.012413  0.061007  0  3.9863  0
C  C61  1  0.93010508  0.37201441  0.07954403  1  0  0.04232  0  3.776096  0  0  0.058969  0  4.005258  0  0  0.055017  0  4.030398  0  0  -0.012764  0.061273  0  3.98842  0
C  C62  1  0.61775594  0.87199267  0.57958701  1  0  0.041221  0  3.775512  0  0  0.059203  0  4.003028  0  0  0.055278  0  4.02815  0  0  -0.012309  0.061499  0  3.986167  0
C  C63  1  0.06991418  0.62798901  0.92045223  1  0  0.042475  0  3.775631  0  0  0.059121  0  4.004828  0  0  0.05517  0  4.029966  0  0  -0.012723  0.061421  0  3.987998  0
C  C64  1  0.39418093  0.18736604  0.49671738  1  0  -0.123873  0  3.73243  0  0  -0.141637  0  3.990581  0  0  -0.140922  0  4.006834  0  0  -0.107103  -0.141889  0  3.979533  0
C  C65  1  0.07792390  0.31278499  0.00302200  1  0  -0.125343  0  3.733823  0  0  -0.142116  0  3.992237  0  0  -0.141527  0  4.008496  0  0  -0.106605  -0.142306  0  3.98122  0
C  C66  1  0.60579639  0.81262577  0.50328832  1  0  -0.124078  0  3.732566  0  0  -0.141991  0  3.990731  0  0  -0.141275  0  4.006974  0  0  -0.107189  -0.14224  0  3.979685  0
C  C67  1  0.92209153  0.68721039  0.99698287  1  0  -0.12541  0  3.733812  0  0  -0.142191  0  3.992252  0  0  -0.141601  0  4.008512  0  0  -0.106675  -0.142374  0  3.981221  0
C  C68  1  0.72427405  0.21205021  0.39378106  1  0  -0.069766  0  3.780147  0  0  -0.086147  0  4.034164  0  0  -0.087157  0  4.05628  0  0  -0.098462  -0.085134  0  4.019076  0
C  C69  1  0.33042206  0.28804764  0.10567340  1  0  -0.06993  0  3.77665  0  0  -0.086189  0  4.031336  0  0  -0.087218  0  4.053504  0  0  -0.098359  -0.085205  0  4.016192  0
C  C70  1  0.27570632  0.78794352  0.60623479  1  0  -0.069974  0  3.780198  0  0  -0.08639  0  4.034285  0  0  -0.087397  0  4.056421  0  0  -0.098621  -0.085374  0  4.01919  0
C  C71  1  0.66958765  0.71195219  0.89432437  1  0  -0.069985  0  3.776601  0  0  -0.086251  0  4.031284  0  0  -0.08728  0  4.053456  0  0  -0.098373  -0.085264  0  4.016126  0
C  C72  1  0.56583411  0.22740548  0.48458945  1  0  -0.112221  0  3.834697  0  0  -0.118465  0  4.095879  0  0  -0.120789  0  4.112518  0  0  -0.123704  -0.117047  0  4.084552  0
C  C73  1  0.27789504  0.27289794  0.01486424  1  0  -0.112317  0  3.834077  0  0  -0.118807  0  4.094731  0  0  -0.121136  0  4.111449  0  0  -0.124952  -0.117406  0  4.083384  0
C  C74  1  0.43413784  0.77258375  0.51542736  1  0  -0.111928  0  3.834481  0  0  -0.118201  0  4.095665  0  0  -0.120515  0  4.112319  0  0  -0.12367  -0.116786  0  4.084347  0
C  C75  1  0.72212171  0.72709648  0.98513563  1  0  -0.112266  0  3.833782  0  0  -0.118686  0  4.09439  0  0  -0.121018  0  4.111112  0  0  -0.124742  -0.117259  0  4.083047  0
S  S76  1  0.76840022  0.97791553  0.17720288  1  0  1.310615  0  5.605261  0  0  1.215982  0  6.114986  0  0  1.264906  0  6.091858  0  0  0.500644  1.182213  0  6.1298  0
S  S77  1  0.92285468  0.52190945  0.32276805  1  0  1.311817  0  5.616286  0  0  1.216351  0  6.126609  0  0  1.265351  0  6.1035  0  0  0.500656  1.182516  0  6.14144  0
S  S78  1  0.23160250  0.02209426  0.82279570  1  0  1.310933  0  5.604903  0  0  1.216359  0  6.11457  0  0  1.265286  0  6.091433  0  0  0.50089  1.182589  0  6.129378  0
S  S79  1  0.07714749  0.47809310  0.67722974  1  0  1.311814  0  5.61632  0  0  1.216355  0  6.126635  0  0  1.265353  0  6.103522  0  0  0.50064  1.182519  0  6.141468  0
N  N80  1  0.33000587  0.94525762  0.20178867  1  0  -0.674968  0  3.200094  0  0  -0.620774  0  3.449683  0  0  -0.641576  0  3.445359  0  0  -0.612592  -0.606074  0  3.452219  0
N  N81  1  0.47598886  0.55489537  0.29834125  1  0  -0.677582  0  3.200631  0  0  -0.623708  0  3.450197  0  0  -0.644471  0  3.445766  0  0  -0.614614  -0.609016  0  3.452798  0
N  N82  1  0.67000005  0.05474485  0.79820263  1  0  -0.6751  0  3.200292  0  0  -0.620937  0  3.449951  0  0  -0.641729  0  3.445598  0  0  -0.6127  -0.60624  0  3.452485  0
N  N83  1  0.52402484  0.44510533  0.70165352  1  0  -0.677532  0  3.20042  0  0  -0.623727  0  3.449904  0  0  -0.644492  0  3.445478  0  0  -0.614595  -0.609032  0  3.452499  0
O  O84  1  0.72462695  0.89537825  0.12700836  1  0  -0.678376  0  2.04528  0  0  -0.614412  0  2.311064  0  0  -0.636365  0  2.293058  0  0  -0.344327  -0.598884  0  2.32291  0
O  O85  1  0.74608408  0.60451347  0.37303890  1  0  -0.679154  0  2.048084  0  0  -0.615203  0  2.313688  0  0  -0.637116  0  2.295613  0  0  -0.344126  -0.59972  0  2.325603  0
O  O86  1  0.27538383  0.10463507  0.87298306  1  0  -0.678458  0  2.045071  0  0  -0.614553  0  2.310898  0  0  -0.636497  0  2.292879  0  0  -0.344388  -0.599025  0  2.32275  0
O  O87  1  0.25391723  0.39549174  0.62695384  1  0  -0.679112  0  2.048015  0  0  -0.615199  0  2.31363  0  0  -0.637104  0  2.295549  0  0  -0.344157  -0.599715  0  2.325546  0
O  O88  1  0.82184544  0.08477563  0.09396373  1  0  -0.685196  0  1.988119  0  0  -0.626776  0  2.261739  0  0  -0.649462  0  2.243637  0  0  -0.35551  -0.610561  0  2.273515  0
O  O89  1  0.00048725  0.41494092  0.40597886  1  0  -0.685116  0  1.991211  0  0  -0.626654  0  2.265176  0  0  -0.649339  0  2.247125  0  0  -0.355989  -0.610438  0  2.276948  0
O  O90  1  0.17814069  0.91524419  0.90603930  1  0  -0.685316  0  1.988006  0  0  -0.626936  0  2.261637  0  0  -0.649622  0  2.24353  0  0  -0.355675  -0.610722  0  2.273414  0
O  O91  1  0.99951147  0.58506169  0.59402369  1  0  -0.685104  0  1.991366  0  0  -0.626646  0  2.265339  0  0  -0.649331  0  2.247284  0  0  -0.355976  -0.610431  0  2.277113  0
O  O92  1  0.91577794  0.91640590  0.24710783  1  0  -0.655718  0  1.924173  0  0  -0.607576  0  2.165549  0  0  -0.628712  0  2.150719  0  0  -0.34193  -0.592479  0  2.175143  0
O  O93  1  0.07842411  0.58327205  0.25289056  1  0  -0.656385  0  1.929581  0  0  -0.608015  0  2.171162  0  0  -0.629164  0  2.156323  0  0  -0.342029  -0.592918  0  2.180785  0
O  O94  1  0.08422875  0.08360564  0.75288581  1  0  -0.655712  0  1.92416  0  0  -0.607576  0  2.165486  0  0  -0.628713  0  2.150655  0  0  -0.341939  -0.59248  0  2.175087  0
O  O95  1  0.92158109  0.41672678  0.74709936  1  0  -0.656346  0  1.929565  0  0  -0.607974  0  2.17116  0  0  -0.629123  0  2.156319  0  0  -0.341977  -0.592872  0  2.180778  0
