# generated using pymatgen
data_ErH5C6N2O7
_symmetry_space_group_name_H-M   'P 1'
_cell_length_a   9.64246489
_cell_length_b   9.64244880
_cell_length_c   9.64248329
_cell_angle_alpha   79.13629992
_cell_angle_beta   79.13605342
_cell_angle_gamma   79.13674213
_symmetry_Int_Tables_number   1
_chemical_formula_structural   ErH5C6N2O7
_chemical_formula_sum   'Er3 H15 C18 N6 O21'
_cell_volume   853.74055980
_cell_formula_units_Z   3
loop_
 _symmetry_equiv_pos_site_id
 _symmetry_equiv_pos_as_xyz
  1  'x, y, z'
loop_
 _atom_site_type_symbol
 _atom_site_label
 _atom_site_symmetry_multiplicity
 _atom_site_fract_x
 _atom_site_fract_y
 _atom_site_fract_z
 _atom_site_occupancy
 _atom_site_pbe_bader_spin_density
 _atom_site_pbe_cm5_charge
 _atom_site_pbe_ddec_charge
 _atom_site_pbe_ddec_spin_density
 _atom_site_pbe_ddec_sum_bond_order
 _atom_site_pbe_magmom
Er  Er0  1  0.50000361  0.00906767  0.99093821  1  0  1.502782  2.004756  0  2.18428  0
Er  Er1  1  0.99093810  0.50000189  0.00906665  1  0  1.502731  2.004696  0  2.184253  0
Er  Er2  1  0.00906747  0.99093675  0.50000385  1  0  1.502765  2.004775  0  2.184204  0
H  H3  1  0.41078806  0.58922173  0.00000360  1  0  0.126692  0.165745  0  0.985202  0
H  H4  1  0.00000271  0.41077724  0.58922307  1  0  0.126687  0.165715  0  0.985404  0
H  H5  1  0.58922223  0.00000844  0.41077863  1  0  0.126674  0.165718  0  0.985404  0
H  H6  1  0.76398770  0.85353630  0.07517256  1  0  0.303683  0.406931  0  0.919465  0
H  H7  1  0.07516659  0.76399160  0.85354006  1  0  0.303581  0.406719  0  0.91974  0
H  H8  1  0.85353842  0.07516647  0.76398948  1  0  0.303638  0.406863  0  0.919567  0
H  H9  1  0.92484520  0.14646418  0.23601520  1  0  0.303618  0.406826  0  0.919632  0
H  H10  1  0.14646693  0.23601277  0.92483089  1  0  0.303611  0.406808  0  0.919645  0
H  H11  1  0.23601471  0.92483380  0.14646937  1  0  0.30364  0.406841  0  0.919603  0
H  H12  1  0.76611365  0.02319047  0.06271602  1  0  0.297584  0.395298  0  0.946312  0
H  H13  1  0.06271042  0.76611418  0.02319714  1  0  0.297553  0.39523  0  0.946413  0
H  H14  1  0.02319222  0.06271643  0.76611267  1  0  0.29758  0.395275  0  0.946333  0
H  H15  1  0.93729378  0.97681114  0.23389192  1  0  0.297533  0.395195  0  0.946457  0
H  H16  1  0.97681409  0.23389018  0.93729295  1  0  0.297571  0.395279  0  0.946329  0
H  H17  1  0.23389175  0.93729235  0.97681402  1  0  0.297537  0.395217  0  0.946439  0
C  C18  1  0.67004387  0.66649572  0.00139184  1  0  0.243284  0.616233  0  4.143321  0
C  C19  1  0.00138031  0.67004528  0.66650598  1  0  0.243361  0.616249  0  4.143451  0
C  C20  1  0.66650542  0.00137800  0.67004194  1  0  0.24343  0.616303  0  4.143326  0
C  C21  1  0.99861828  0.33350041  0.32996009  1  0  0.243431  0.616293  0  4.14324  0
C  C22  1  0.33350778  0.32995846  0.99861306  1  0  0.243386  0.616236  0  4.143331  0
C  C23  1  0.32996544  0.99862405  0.33349872  1  0  0.243364  0.616175  0  4.143572  0
C  C24  1  0.63901580  0.51957110  0.99856898  1  0  0.131465  0.170674  0  4.022414  0
C  C25  1  0.99856306  0.63901534  0.51957938  1  0  0.131442  0.170497  0  4.02257  0
C  C26  1  0.51957884  0.99856206  0.63901231  1  0  0.131444  0.170599  0  4.022525  0
C  C27  1  0.00144091  0.48042848  0.36099597  1  0  0.131497  0.170629  0  4.02259  0
C  C28  1  0.48043489  0.36098432  0.00143561  1  0  0.131364  0.170453  0  4.022563  0
C  C29  1  0.36099219  0.00144488  0.48042913  1  0  0.13135  0.170426  0  4.022662  0
C  C30  1  0.49926335  0.50074179  0.00000012  1  0  -0.085225  -0.227838  0  3.901767  0
C  C31  1  0.00000303  0.49925752  0.50075139  1  0  -0.085244  -0.227725  0  3.9019  0
C  C32  1  0.50074678  0.00000702  0.49925707  1  0  -0.085204  -0.227745  0  3.902024  0
C  C33  1  0.72354544  0.27646172  0.00000753  1  0  0.338882  0.663518  0  4.047686  0
C  C34  1  0.00000304  0.72353633  0.27646822  1  0  0.338851  0.663574  0  4.047516  0
C  C35  1  0.27646413  0.00000507  0.72354183  1  0  0.338808  0.663465  0  4.0478  0
N  N36  1  0.74983815  0.41252579  0.00022999  1  0  -0.359343  -0.496644  0  3.302266  0
N  N37  1  0.00022672  0.74983151  0.41253041  1  0  -0.35936  -0.496672  0  3.302451  0
N  N38  1  0.41253322  0.00022290  0.74983129  1  0  -0.359369  -0.496713  0  3.302442  0
N  N39  1  0.99977553  0.58747386  0.25017690  1  0  -0.359441  -0.496715  0  3.302426  0
N  N40  1  0.58747978  0.25016466  0.99977576  1  0  -0.359323  -0.496531  0  3.302269  0
N  N41  1  0.25017049  0.99977891  0.58747587  1  0  -0.359321  -0.496507  0  3.302232  0
O  O42  1  0.57434928  0.77110402  0.97293690  1  0  -0.376117  -0.610158  0  2.299548  0
O  O43  1  0.97291946  0.57435274  0.77110457  1  0  -0.376142  -0.610109  0  2.299744  0
O  O44  1  0.77110962  0.97291998  0.57435062  1  0  -0.376183  -0.610145  0  2.299738  0
O  O45  1  0.02708228  0.22889113  0.42565114  1  0  -0.376194  -0.610178  0  2.299678  0
O  O46  1  0.22890608  0.42566189  0.02706453  1  0  -0.376144  -0.610113  0  2.299593  0
O  O47  1  0.42564680  0.02709356  0.22889404  1  0  -0.376093  -0.610019  0  2.299949  0
O  O48  1  0.79015008  0.67322970  0.03554221  1  0  -0.372964  -0.65071  0  2.33412  0
O  O49  1  0.03552953  0.79015446  0.67324667  1  0  -0.373004  -0.650737  0  2.334104  0
O  O50  1  0.67323995  0.03552083  0.79015253  1  0  -0.373026  -0.650797  0  2.334124  0
O  O51  1  0.96447508  0.32676783  0.20985031  1  0  -0.372998  -0.650721  0  2.334092  0
O  O52  1  0.32677168  0.20984724  0.96447104  1  0  -0.372953  -0.650673  0  2.334068  0
O  O53  1  0.20985329  0.96447115  0.32676881  1  0  -0.373008  -0.650749  0  2.334044  0
O  O54  1  0.82728664  0.17271569  0.00001027  1  0  -0.288727  -0.537217  0  2.191339  0
O  O55  1  0.00000288  0.82727956  0.17272390  1  0  -0.288643  -0.537163  0  2.191251  0
O  O56  1  0.17272170  0.00001001  0.82728327  1  0  -0.28864  -0.537108  0  2.191347  0
O  O57  1  0.70496282  0.94567637  0.09362520  1  0  -0.664768  -0.866065  0  2.109875  0
O  O58  1  0.09361704  0.70496994  0.94568065  1  0  -0.664643  -0.86579  0  2.110208  0
O  O59  1  0.94567696  0.09362422  0.70496664  1  0  -0.664712  -0.865974  0  2.109996  0
O  O60  1  0.90637811  0.05432702  0.29503833  1  0  -0.664661  -0.865868  0  2.110085  0
O  O61  1  0.05432997  0.29503522  0.90637328  1  0  -0.664678  -0.865915  0  2.110042  0
O  O62  1  0.29503678  0.90638521  0.05432818  1  0  -0.664692  -0.865912  0  2.110107  0
