# generated using pymatgen
data_Co3H58C60N2O21
_symmetry_space_group_name_H-M   'P 1'
_cell_length_a   10.68516911
_cell_length_b   13.15465008
_cell_length_c   34.87590562
_cell_angle_alpha   98.81244778
_cell_angle_beta   89.92985805
_cell_angle_gamma   113.95528274
_symmetry_Int_Tables_number   1
_chemical_formula_structural   Co3H58C60N2O21
_chemical_formula_sum   'Co6 H116 C120 N4 O42'
_cell_volume   4416.89914001
_cell_formula_units_Z   2
loop_
 _symmetry_equiv_pos_site_id
 _symmetry_equiv_pos_as_xyz
  1  'x, y, z'
loop_
 _atom_site_type_symbol
 _atom_site_label
 _atom_site_symmetry_multiplicity
 _atom_site_fract_x
 _atom_site_fract_y
 _atom_site_fract_z
 _atom_site_occupancy
 _atom_site_pbe_bader_charge
 _atom_site_pbe_bader_spin_density
 _atom_site_pbe_cm5_charge
 _atom_site_pbe_ddec_charge
 _atom_site_pbe_ddec_spin_density
 _atom_site_pbe_ddec_sum_bond_order
 _atom_site_pbe_magmom
Co  Co0  1  0.77114677  0.63645935  0.49496865  1  1.279268  2.591916  0.66192  0.984444  2.776773  2.368962  2.546
Co  Co1  1  0.13450233  0.36370985  0.00514152  1  1.281139  2.591527  0.662063  0.984122  2.777058  2.371307  2.546
Co  Co2  1  0.22885956  0.36354178  0.50503211  1  1.279253  2.5919  0.661977  0.984561  2.776759  2.368913  2.546
Co  Co3  1  0.86549356  0.63628539  0.99485860  1  1.281151  2.591522  0.662028  0.984058  2.777054  2.371226  2.546
Co  Co4  1  0.00000642  0.50000177  0.50000151  1  1.431743  2.641581  0.688445  1.140303  2.871222  2.409272  2.633
Co  Co5  1  0.50000664  0.49999945  0.99999976  1  1.430422  2.642375  0.688175  1.139534  2.871724  2.411678  2.634
H  H6  1  0.41418928  0.02355295  0.20639487  1  0.066331  2e-06  0.098537  0.065276  1e-06  0.984033  0.0
H  H7  1  0.45096360  0.12283012  0.25091954  1  0.040189  -0.0  0.099059  0.06552  -0.0  0.984956  0.0
H  H8  1  0.82605483  0.27863683  0.23928150  1  0.046131  -1.7e-05  0.105015  0.077385  -1.4e-05  0.972598  0.0
H  H9  1  0.74169059  0.17046456  0.26807224  1  0.073037  -1.1e-05  0.104898  0.073065  -8e-06  1.00364  0.0
H  H10  1  0.53915332  0.27376098  0.20711728  1  0.062723  -3.2e-05  0.106784  0.080901  -2.5e-05  0.970536  0.0
H  H11  1  0.52281708  0.17163391  0.16458617  1  0.064516  -2e-05  0.105103  0.072927  -1.6e-05  0.994857  0.0
H  H12  1  0.72852839  0.03854145  0.20785317  1  0.048827  1e-05  0.10166  0.06865  1e-06  0.987224  0.0
H  H13  1  0.77856761  0.14175259  0.17606324  1  0.057654  2.5e-05  0.104292  0.071622  1.3e-05  0.997682  0.0
H  H14  1  0.89320752  0.30358887  0.31130014  1  0.037776  0.000156  0.10054  0.110459  7.4e-05  1.019367  0.0
H  H15  1  0.95873839  0.39448919  0.38027299  1  0.100978  0.000214  0.106556  0.112122  3.9e-05  0.996159  0.0
H  H16  1  0.62498548  0.49577715  0.38226558  1  0.094073  0.000288  0.101321  0.102951  2e-06  1.051264  0.0
H  H17  1  0.55271465  0.40106483  0.31302773  1  0.068395  0.00016  0.102949  0.116032  7.8e-05  0.999696  0.0
H  H18  1  0.50492724  0.31378895  0.13833181  1  0.067569  8.4e-05  0.103863  0.11678  4.9e-05  1.010302  0.0
H  H19  1  0.53367588  0.39940881  0.07812813  1  0.163624  0.000162  0.112092  0.125976  -6.9e-05  1.00848  0.0
H  H20  1  0.96409421  0.47565079  0.08491108  1  0.102848  0.000547  0.10897  0.114122  0.000173  1.020418  0.0
H  H21  1  0.93767343  0.38935430  0.14568485  1  0.044179  7e-05  0.105844  0.119663  3.3e-05  1.001319  0.0
H  H22  1  0.41068019  0.85457300  0.11259426  1  0.067713  0.000169  0.105534  0.119033  6.6e-05  0.99301  0.0
H  H23  1  0.45571625  0.73626309  0.05531559  1  0.100329  0.0001  0.105131  0.102775  -7.8e-05  1.040224  0.0
H  H24  1  0.88653794  0.89882284  0.08722039  1  0.065565  0.000515  0.106837  0.112096  0.000166  0.987845  0.0
H  H25  1  0.84544112  0.01604840  0.14468240  1  0.059168  7.3e-05  0.099597  0.108227  2.4e-05  1.020775  0.0
H  H26  1  0.55476394  0.66262081  0.53818072  1  0.139985  1.5e-05  0.107372  0.177822  -0.000156  1.027186  0.0
H  H27  1  0.50841693  0.78013513  0.54726348  1  0.069275  -4.9e-05  0.101307  0.153248  -3.9e-05  0.995836  0.0
H  H28  1  0.39809227  0.65288646  0.51739236  1  0.103976  -0.000475  0.10678  0.165451  -0.000626  1.01537  0.0
H  H29  1  0.34029650  0.76714043  0.49341842  1  0.108214  9.6e-05  0.111019  0.135163  -1.7e-05  1.02886  0.0
H  H30  1  0.43684499  0.91543258  0.49624921  1  0.039548  0.00014  0.096152  0.102135  5.1e-05  1.018174  0.0
H  H31  1  0.36280926  0.82760728  0.45070717  1  0.063356  0.000427  0.106261  0.121024  0.000165  0.98975  0.0
H  H32  1  0.70536768  0.84773468  0.43661112  1  0.103485  0.000219  0.113842  0.139032  -4.2e-05  0.996419  0.0
H  H33  1  0.55180127  0.83802180  0.41270290  1  0.075615  2.5e-05  0.096409  0.106578  -1.1e-05  1.020555  0.0
H  H34  1  0.65098048  0.96044215  0.44728269  1  0.095298  0.000127  0.098216  0.110801  3.9e-05  1.014471  0.0
H  H35  1  0.39169938  0.97708720  0.29385107  1  0.031289  1e-06  0.098398  0.065  1e-06  0.985155  0.0
H  H36  1  0.32836481  0.87751829  0.24943154  1  0.047902  1e-06  0.099663  0.066184  1e-06  0.985278  0.0
H  H37  1  0.54792712  0.72164680  0.26066930  1  0.042176  -1.6e-05  0.105089  0.077681  -1.3e-05  0.973058  0.0
H  H38  1  0.57140140  0.82959241  0.23181722  1  0.072272  -1e-05  0.104655  0.073133  -8e-06  1.002623  0.0
H  H39  1  0.26616827  0.72719944  0.29312671  1  0.069974  -1.8e-05  0.10669  0.080794  -1.3e-05  0.970724  0.0
H  H40  1  0.35229092  0.82928690  0.33560863  1  0.071929  -2.1e-05  0.105005  0.074424  -1.7e-05  0.992836  0.0
H  H41  1  0.69074054  0.96180311  0.29193696  1  0.075901  1.6e-05  0.102062  0.069909  4e-06  0.98651  0.0
H  H42  1  0.63778378  0.85862494  0.32375006  1  0.072774  2.9e-05  0.104466  0.0725  1.4e-05  0.997306  0.0
H  H43  1  0.58918417  0.69599171  0.18856732  1  0.05644  0.000154  0.100352  0.110167  7.4e-05  1.019234  0.0
H  H44  1  0.56339126  0.60525358  0.11957654  1  0.103863  0.000212  0.106654  0.111898  3.7e-05  0.996826  0.0
H  H45  1  0.12853153  0.50479219  0.11805116  1  0.115456  0.000282  0.101109  0.102437  2e-06  1.050684  0.0
H  H46  1  0.15151688  0.59947212  0.18731222  1  0.076799  0.00016  0.103006  0.116177  7.8e-05  0.999396  0.0
H  H47  1  0.19180775  0.68697014  0.36193569  1  0.051449  8.4e-05  0.103618  0.116861  4.8e-05  1.009861  0.0
H  H48  1  0.13473845  0.60085000  0.42207296  1  0.142442  0.000168  0.112318  0.126453  -6.7e-05  1.008679  0.0
H  H49  1  0.48836180  0.52390895  0.41478649  1  0.100946  0.000555  0.108943  0.114082  0.000177  1.0201  0.0
H  H50  1  0.54836479  0.61054092  0.35403959  1  0.074027  6.8e-05  0.106083  0.119536  3.4e-05  1.002392  0.0
H  H51  1  0.55681873  0.14571622  0.38730861  1  0.065807  0.00017  0.105261  0.118975  6.6e-05  0.993784  0.0
H  H52  1  0.71987039  0.26408642  0.44458484  1  0.094458  0.0001  0.105433  0.102905  -7.6e-05  1.040035  0.0
H  H53  1  0.98758594  0.10061672  0.41278862  1  0.085631  0.000508  0.107051  0.112234  0.000165  0.988531  0.0
H  H54  1  0.82982061  0.98369885  0.35526816  1  0.054769  7.3e-05  0.099708  0.108726  2.3e-05  1.02074  0.0
H  H55  1  0.89267867  0.33767886  0.96189073  1  0.144984  4e-06  0.107127  0.177955  -0.000158  1.027414  0.0
H  H56  1  0.72903770  0.22003743  0.95269551  1  0.060075  -5.6e-05  0.101409  0.153671  -4.3e-05  0.994955  0.0
H  H57  1  0.74529642  0.34719803  0.98255545  1  0.054809  -0.000496  0.106797  0.165368  -0.00064  1.015455  0.0
H  H58  1  0.57311916  0.23274263  0.00643430  1  0.09236  0.0001  0.111043  0.134913  -1.6e-05  1.02868  0.0
H  H59  1  0.52135885  0.08450374  0.00385767  1  0.037412  0.000119  0.095971  0.10192  4.1e-05  1.018376  0.0
H  H60  1  0.53496231  0.17291848  0.04928304  1  0.0728  0.000431  0.106348  0.121013  0.000168  0.989085  0.0
H  H61  1  0.85720319  0.15231204  0.06335844  1  0.103776  0.000215  0.113706  0.13814  -4.1e-05  0.996877  0.0
H  H62  1  0.71347741  0.16247690  0.08731987  1  0.040611  4e-05  0.096314  0.106147  -7e-06  1.020304  0.0
H  H63  1  0.69000206  0.03979070  0.05281500  1  0.093141  0.000108  0.09807  0.110436  3e-05  1.014368  0.0
H  H64  1  0.58580221  0.97646342  0.79360451  1  0.066364  2e-06  0.098577  0.065301  1e-06  0.983952  0.0
H  H65  1  0.54903521  0.87718031  0.74908148  1  0.039969  -0.0  0.099078  0.065547  -0.0  0.984925  0.0
H  H66  1  0.17394909  0.72135761  0.76071599  1  0.046135  -1.7e-05  0.105016  0.077438  -1.4e-05  0.972473  0.0
H  H67  1  0.25830597  0.82953575  0.73192761  1  0.072993  -1.1e-05  0.104903  0.07306  -8e-06  1.003618  0.0
H  H68  1  0.46083585  0.72624517  0.79288694  1  0.06252  -3.2e-05  0.106781  0.080815  -2.5e-05  0.970416  0.0
H  H69  1  0.47717277  0.82837733  0.83541663  1  0.064733  -2e-05  0.105123  0.072926  -1.6e-05  0.994781  0.0
H  H70  1  0.27146708  0.96146979  0.79214963  1  0.048659  1e-05  0.101687  0.068691  1e-06  0.987307  0.0
H  H71  1  0.22143628  0.85825865  0.82393927  1  0.057553  2.5e-05  0.104303  0.071675  1.3e-05  0.997751  0.0
H  H72  1  0.10679330  0.69640127  0.68870168  1  0.037698  0.000156  0.100548  0.110443  7.4e-05  1.019481  0.0
H  H73  1  0.04128275  0.60551536  0.61972567  1  0.10115  0.000214  0.106591  0.112185  3.9e-05  0.996167  0.0
H  H74  1  0.37506973  0.50426372  0.61773295  1  0.094145  0.000287  0.101255  0.102883  2e-06  1.051256  0.0
H  H75  1  0.44732924  0.59897773  0.68697091  1  0.068155  0.00016  0.102988  0.116065  7.8e-05  0.999515  0.0
H  H76  1  0.49506664  0.68620223  0.86165917  1  0.066871  8.4e-05  0.103894  0.116808  4.9e-05  1.010334  0.0
H  H77  1  0.46634422  0.60058239  0.92186199  1  0.162731  0.000162  0.111959  0.125879  -6.9e-05  1.008258  0.0
H  H78  1  0.03591957  0.52433344  0.91509067  1  0.102965  0.000546  0.10897  0.114155  0.000173  1.020308  0.0
H  H79  1  0.06232307  0.61064592  0.85432044  1  0.044099  7e-05  0.105825  0.119619  3.3e-05  1.001269  0.0
H  H80  1  0.58933566  0.14544341  0.88740282  1  0.067901  0.000169  0.105584  0.119117  6.6e-05  0.992985  0.0
H  H81  1  0.54428395  0.26374823  0.94468233  1  0.10054  0.0001  0.105085  0.102659  -7.8e-05  1.040343  0.0
H  H82  1  0.11346365  0.10117068  0.91278106  1  0.065637  0.000515  0.106865  0.112141  0.000166  0.98774  0.0
H  H83  1  0.15456707  0.98395272  0.85531921  1  0.058789  7.3e-05  0.099642  0.108369  2.4e-05  1.02076  0.0
H  H84  1  0.44520946  0.33736685  0.46181809  1  0.139331  1.5e-05  0.107404  0.177785  -0.000156  1.027363  0.0
H  H85  1  0.49157190  0.21986095  0.45273669  1  0.069298  -4.8e-05  0.101355  0.153317  -3.8e-05  0.995808  0.0
H  H86  1  0.60188514  0.34711299  0.48260830  1  0.103742  -0.000476  0.106764  0.165392  -0.000626  1.015487  0.0
H  H87  1  0.65969618  0.23287083  0.50658295  1  0.108174  9.6e-05  0.11103  0.135194  -1.7e-05  1.028719  0.0
H  H88  1  0.56315766  0.08457617  0.50375086  1  0.039944  0.00014  0.096113  0.102125  5.1e-05  1.018221  0.0
H  H89  1  0.63718037  0.17239977  0.54929365  1  0.06311  0.000428  0.106236  0.120966  0.000166  0.989758  0.0
H  H90  1  0.29461366  0.15225389  0.56338459  1  0.103682  0.00022  0.113774  0.138927  -4.1e-05  0.996392  0.0
H  H91  1  0.44817975  0.16197177  0.58729627  1  0.07553  2.5e-05  0.096466  0.106728  -1.1e-05  1.020551  0.0
H  H92  1  0.34900482  0.03955060  0.55271498  1  0.095157  0.000127  0.098244  0.110866  3.9e-05  1.014411  0.0
H  H93  1  0.60828970  0.02291312  0.70614821  1  0.03138  1e-06  0.098404  0.064984  1e-06  0.985205  0.0
H  H94  1  0.67162411  0.12247610  0.75056910  1  0.04803  1e-06  0.099671  0.06613  1e-06  0.985266  0.0
H  H95  1  0.45206393  0.27835184  0.73932959  1  0.042165  -1.6e-05  0.105041  0.077629  -1.3e-05  0.973066  0.0
H  H96  1  0.42860279  0.17041380  0.76818327  1  0.072319  -1e-05  0.104649  0.073191  -8e-06  1.00264  0.0
H  H97  1  0.73382838  0.27279919  0.70687275  1  0.069861  -1.8e-05  0.106698  0.080775  -1.3e-05  0.970794  0.0
H  H98  1  0.64770181  0.17071511  0.66439075  1  0.071926  -2.1e-05  0.104968  0.074405  -1.7e-05  0.992906  0.0
H  H99  1  0.30925688  0.03820641  0.70806716  1  0.076321  1.6e-05  0.102016  0.06984  4e-06  0.986552  0.0
H  H100  1  0.36221420  0.14136697  0.67624727  1  0.072713  2.9e-05  0.10447  0.072427  1.4e-05  0.997322  0.0
H  H101  1  0.41081305  0.30400433  0.81143514  1  0.056501  0.000154  0.100372  0.11018  7.4e-05  1.019252  0.0
H  H102  1  0.43661377  0.39475432  0.88042405  1  0.103862  0.000212  0.106636  0.111874  3.7e-05  0.996898  0.0
H  H103  1  0.87147611  0.49521154  0.88194631  1  0.115437  0.000282  0.101114  0.102371  2e-06  1.050788  0.0
H  H104  1  0.84848240  0.40053925  0.81268370  1  0.076732  0.00016  0.102971  0.116132  7.8e-05  0.999447  0.0
H  H105  1  0.80817843  0.31302252  0.63806685  1  0.051532  8.4e-05  0.103612  0.116843  4.8e-05  1.009854  0.0
H  H106  1  0.86526119  0.39913589  0.57793033  1  0.142  0.000168  0.112366  0.126478  -6.7e-05  1.008564  0.0
H  H107  1  0.51163660  0.47608380  0.58521090  1  0.101045  0.000554  0.108935  0.114066  0.000177  1.020146  0.0
H  H108  1  0.45162144  0.38945183  0.64595809  1  0.073888  6.8e-05  0.106082  0.119554  3.4e-05  1.00226  0.0
H  H109  1  0.44317382  0.85427048  0.61269674  1  0.065591  0.00017  0.105281  0.119041  6.6e-05  0.993659  0.0
H  H110  1  0.28013245  0.73590963  0.55541733  1  0.094458  0.000101  0.105443  0.102879  -7.6e-05  1.040188  0.0
H  H111  1  0.01241844  0.89937678  0.58721426  1  0.085136  0.000508  0.107073  0.112296  0.000165  0.988575  0.0
H  H112  1  0.17018537  0.01629974  0.64473359  1  0.054788  7.3e-05  0.099685  0.108696  2.3e-05  1.020677  0.0
H  H113  1  0.10730035  0.66230883  0.03810664  1  0.145119  5e-06  0.107173  0.178144  -0.000157  1.02725  0.0
H  H114  1  0.27094375  0.77994764  0.04730658  1  0.059986  -5.6e-05  0.101401  0.15366  -4.3e-05  0.994989  0.0
H  H115  1  0.25467785  0.65279139  0.01743973  1  0.055018  -0.000496  0.106797  0.165412  -0.00064  1.015439  0.0
H  H116  1  0.42685122  0.76723153  0.99356399  1  0.092454  0.0001  0.111138  0.134995  -1.6e-05  1.028755  0.0
H  H117  1  0.47862316  0.91547121  0.99614353  1  0.03762  0.000119  0.096079  0.102127  4.1e-05  1.01832  0.0
H  H118  1  0.46501766  0.82705988  0.95071664  1  0.072741  0.000432  0.106283  0.120977  0.000168  0.989248  0.0
H  H119  1  0.14278782  0.84768655  0.93664360  1  0.103672  0.000215  0.113717  0.138085  -4.1e-05  0.996809  0.0
H  H120  1  0.28650778  0.83751750  0.91267991  1  0.040699  4e-05  0.096262  0.106064  -6e-06  1.02045  0.0
H  H121  1  0.30998965  0.96020365  0.94718736  1  0.09318  0.000108  0.098012  0.11037  3e-05  1.014206  0.0
C  C122  1  0.62457844  0.15235530  0.21501675  1  0.037452  1e-06  -0.019839  0.047873  -3e-06  3.807341  0.0
C  C123  1  0.49218446  0.07295869  0.23053701  1  0.441401  -3e-06  -0.066547  -0.021143  -4e-06  3.894012  0.0
C  C124  1  0.72668425  0.22564652  0.24948669  1  0.440907  1.2e-05  -0.062907  -0.024432  -5e-06  3.864868  0.0
C  C125  1  0.59022644  0.22561661  0.19019736  1  0.410213  1.2e-05  -0.060896  -0.023385  -1.2e-05  3.860777  0.0
C  C126  1  0.69152842  0.08414405  0.18993319  1  0.42787  5e-06  -0.062354  -0.021597  5e-06  3.87079  0.0
C  C127  1  0.71715385  0.34583408  0.30800989  1  0.41821  -0.001598  0.082717  0.266073  -0.001867  4.065665  -0.001
C  C128  1  0.83301082  0.34487753  0.32654326  1  0.01411  0.001194  -0.116524  -0.234183  0.000526  4.019677  0.001
C  C129  1  0.87076601  0.39678525  0.36526737  1  -0.041925  -0.000848  -0.080408  -0.053806  -0.001318  3.982681  0.0
C  C130  1  0.79603612  0.45120571  0.38564064  1  -0.007693  0.009962  -0.034187  -0.070762  0.005095  3.994205  0.008
C  C131  1  0.68235269  0.45340472  0.36627886  1  -0.126872  -0.000543  -0.088929  -0.074941  -0.001032  4.012263  0.0
C  C132  1  0.64232057  0.40118249  0.32799657  1  0.047434  0.000818  -0.112914  -0.217912  0.000341  4.027999  0.001
C  C133  1  0.83288779  0.50265896  0.42753829  1  1.545947  -0.001017  0.216666  0.595481  -0.002037  4.173441  0.0
C  C134  1  0.72061407  0.34643846  0.14544848  1  0.413642  -0.002053  0.084141  0.26116  -0.002377  4.084432  -0.001
C  C135  1  0.60557728  0.34795631  0.12665951  1  -0.026145  0.001101  -0.114798  -0.241362  0.000444  4.021884  0.001
C  C136  1  0.62142820  0.39623206  0.09298303  1  -0.068777  -0.001341  -0.075213  -0.052196  -0.001787  3.953316  -0.001
C  C137  1  0.75090104  0.44340279  0.07825582  1  -0.033893  0.004541  -0.029574  -0.066059  0.002175  4.003765  0.003
C  C138  1  0.86506861  0.44106880  0.09742305  1  -0.013235  -0.000702  -0.079767  -0.066397  -0.001142  3.982307  0.0
C  C139  1  0.85060293  0.39326175  0.13073163  1  0.016939  0.000836  -0.10644  -0.210346  0.0003  4.005921  0.001
C  C140  1  0.77219275  0.49820655  0.04343637  1  1.493003  -0.001982  0.209487  0.576559  -0.003465  4.189581  0.0
C  C141  1  0.62472418  0.94417148  0.13149364  1  0.401365  0.000552  0.083432  0.261561  0.000264  4.071259  0.0
C  C142  1  0.51473759  0.86501820  0.10621812  1  -0.001578  0.000348  -0.107462  -0.213122  0.000154  4.018808  0.0
C  C143  1  0.53986013  0.80019690  0.07455775  1  0.012774  0.001148  -0.082746  -0.071884  0.000535  4.014166  0.001
C  C144  1  0.67393231  0.81256428  0.06699747  1  -0.03325  0.00683  -0.029556  -0.064379  0.003358  3.982466  0.005
C  C145  1  0.78264443  0.89030098  0.09278286  1  -0.026801  0.001745  -0.080633  -0.060878  0.000724  3.983984  0.001
C  C146  1  0.75920675  0.95596586  0.12507661  1  -0.042577  0.000418  -0.116408  -0.235389  0.000133  4.025483  0.0
C  C147  1  0.69486305  0.73922646  0.03276715  1  1.553136  0.006422  0.213129  0.600054  0.004233  4.174892  0.005
C  C148  1  0.58141534  0.75351298  0.49098595  1  1.339337  -0.000535  0.252059  0.529423  -0.000869  4.0131  0.0
C  C149  1  0.50610535  0.70950849  0.52545210  1  -0.171091  0.001519  -0.239029  -0.523417  0.000376  3.881497  0.001
C  C150  1  0.41334695  0.83204604  0.47868377  1  0.253342  0.001209  -0.132188  -0.265582  0.000729  3.905108  0.001
C  C151  1  0.61630953  0.86835884  0.44006565  1  0.197305  0.00044  -0.139289  -0.273582  0.000207  3.917994  0.0
C  C152  1  0.47297209  0.84811289  0.28501975  1  0.060412  7e-06  -0.019703  0.048388  3e-06  3.807362  0.0
C  C153  1  0.41981176  0.92748584  0.26961223  1  0.462137  -1e-06  -0.067213  -0.021963  -1e-06  3.898305  0.0
C  C154  1  0.50140171  0.77455621  0.25050480  1  0.433252  1.3e-05  -0.062501  -0.023951  -5e-06  3.863894  0.0
C  C155  1  0.36544009  0.77513768  0.30996011  1  0.395499  2e-06  -0.060894  -0.024784  -1.9e-05  3.860429  0.0
C  C156  1  0.60826836  0.91625143  0.30994379  1  0.38406  1e-06  -0.063729  -0.025243  0.0  3.873361  0.0
C  C157  1  0.37108159  0.65428004  0.19211243  1  0.439095  -0.001617  0.082702  0.266749  -0.001891  4.066006  -0.001
C  C158  1  0.48767158  0.65498596  0.17342092  1  -0.004923  0.001189  -0.115832  -0.232826  0.000522  4.017995  0.001
C  C159  1  0.47325206  0.60313910  0.13467938  1  -0.027214  -0.000867  -0.081068  -0.054295  -0.001325  3.98302  0.0
C  C160  1  0.34409239  0.54896918  0.11441006  1  -0.007723  0.00996  -0.033451  -0.070185  0.005092  3.993485  0.008
C  C161  1  0.22838581  0.54698589  0.13391843  1  -0.128069  -0.000549  -0.089415  -0.075542  -0.001052  4.011812  0.0
C  C162  1  0.24086683  0.59919923  0.17223009  1  -0.021597  0.000819  -0.113023  -0.21826  0.000341  4.02798  0.001
C  C163  1  0.32963011  0.49751670  0.07250878  1  1.551808  -0.001071  0.217396  0.596357  -0.00211  4.172785  0.0
C  C164  1  0.37458288  0.65394760  0.35457267  1  0.446266  -0.002054  0.08439  0.262432  -0.002383  4.084153  -0.001
C  C165  1  0.25813136  0.65254985  0.37349056  1  -0.028308  0.00111  -0.114097  -0.241289  0.000449  4.02276  0.001
C  C166  1  0.22560506  0.60400822  0.40711559  1  -0.052121  -0.001337  -0.075562  -0.052692  -0.001784  3.955181  -0.001
C  C167  1  0.30771520  0.55651097  0.42167233  1  -0.029218  0.004476  -0.030251  -0.067746  0.002145  4.003809  0.003
C  C168  1  0.42413329  0.55878391  0.40238791  1  -0.036037  -0.000722  -0.079145  -0.064047  -0.001159  3.980344  0.0
C  C169  1  0.45753299  0.60675455  0.36911620  1  0.001596  0.000842  -0.107296  -0.212692  0.000301  4.008134  0.001
C  C170  1  0.27406095  0.50139699  0.45642653  1  1.486559  -0.001996  0.209358  0.576686  -0.003468  4.188985  0.0
C  C171  1  0.68127687  0.05604892  0.36843419  1  0.401565  0.000508  0.082622  0.261746  0.000237  4.070531  0.0
C  C172  1  0.65038533  0.13527772  0.39369974  1  -0.012985  0.000358  -0.107166  -0.213737  0.000159  4.021608  0.0
C  C173  1  0.74005762  0.20003383  0.42535272  1  0.036093  0.001141  -0.083104  -0.07232  0.000533  4.015073  0.001
C  C174  1  0.86151535  0.18738760  0.43294118  1  0.003481  0.006782  -0.029483  -0.063625  0.003362  3.982325  0.005
C  C175  1  0.89248538  0.10945951  0.40718314  1  -0.05613  0.001738  -0.080732  -0.060527  0.000707  3.985601  0.001
C  C176  1  0.80371114  0.04392500  0.37486778  1  -0.05538  0.000443  -0.116164  -0.236303  0.000144  4.024907  0.0
C  C177  1  0.95537185  0.26062648  0.46720740  1  1.534583  0.006397  0.21255  0.598446  0.004193  4.176424  0.005
C  C178  1  0.82783510  0.24662477  0.00901650  1  1.324583  -0.000649  0.252553  0.530314  -0.001017  4.010773  0.0
C  C179  1  0.79692340  0.29066992  0.97454696  1  -0.092929  0.001518  -0.238906  -0.524218  0.000368  3.88167  0.001
C  C180  1  0.58115757  0.16805995  0.02130507  1  0.261453  0.001228  -0.131664  -0.264426  0.000737  3.903668  0.001
C  C181  1  0.74756522  0.13186008  0.05995259  1  0.231657  0.00045  -0.138717  -0.271151  0.00021  3.91597  0.0
C  C182  1  0.37541723  0.84765260  0.78498412  1  0.037531  1e-06  -0.019806  0.048029  -3e-06  3.806958  0.0
C  C183  1  0.50780985  0.92704837  0.76946324  1  0.441611  -3e-06  -0.066737  -0.021385  -3e-06  3.894028  0.0
C  C184  1  0.27331910  0.77435801  0.75051341  1  0.440999  1.2e-05  -0.06292  -0.024329  -5e-06  3.864759  0.0
C  C185  1  0.40976580  0.77439378  0.80980568  1  0.409835  1.2e-05  -0.06085  -0.023175  -1.2e-05  3.860226  0.0
C  C186  1  0.30846725  0.91586385  0.81006712  1  0.428082  5e-06  -0.062408  -0.021742  5e-06  3.871191  0.0
C  C187  1  0.28287097  0.65417973  0.69199105  1  0.417138  -0.001602  0.082867  0.26653  -0.001872  4.065211  -0.001
C  C188  1  0.16699469  0.65512196  0.67345511  1  0.01434  0.001195  -0.116562  -0.234221  0.000527  4.019638  0.001
C  C189  1  0.12925748  0.60321840  0.63473497  1  -0.041612  -0.000852  -0.080474  -0.053926  -0.001321  3.983115  0.0
C  C190  1  0.20398619  0.54880306  0.61435827  1  -0.007645  0.009964  -0.034184  -0.070797  0.005095  3.99394  0.008
C  C191  1  0.31769271  0.54662590  0.63372595  1  -0.127285  -0.000545  -0.088807  -0.074739  -0.001033  4.012492  0.0
C  C192  1  0.35770139  0.59884240  0.67199872  1  0.048946  0.000818  -0.113018  -0.218108  0.000341  4.028921  0.001
C  C193  1  0.16715450  0.49735232  0.57246164  1  1.545396  -0.00102  0.216563  0.595399  -0.002042  4.173547  0.0
C  C194  1  0.27938073  0.65356018  0.85455013  1  0.413723  -0.002053  0.084198  0.261121  -0.002378  4.084455  -0.001
C  C195  1  0.39442352  0.65203563  0.87333639  1  -0.025309  0.001101  -0.11473  -0.241392  0.000444  4.022076  0.001
C  C196  1  0.37858124  0.60375656  0.90700953  1  -0.068096  -0.001341  -0.075224  -0.051965  -0.001787  3.953225  -0.001
C  C197  1  0.24911594  0.55658407  0.92174093  1  -0.034009  0.004542  -0.029497  -0.06626  0.002175  4.003957  0.003
C  C198  1  0.13494203  0.55892224  0.90257567  1  -0.013217  -0.000701  -0.079785  -0.066458  -0.001141  3.982776  0.0
C  C199  1  0.14939686  0.60673006  0.86927115  1  0.017009  0.000835  -0.106487  -0.210256  0.0003  4.006188  0.001
C  C200  1  0.22782525  0.50177861  0.95656027  1  1.49383  -0.00198  0.209706  0.576964  -0.003464  4.189051  0.0
C  C201  1  0.37528988  0.05584323  0.86850391  1  0.40091  0.000552  0.083525  0.261717  0.000264  4.071429  0.0
C  C202  1  0.48527537  0.13499993  0.89377735  1  -0.002309  0.000348  -0.107459  -0.213125  0.000154  4.018624  0.0
C  C203  1  0.46014917  0.19981953  0.92543847  1  0.012128  0.001149  -0.082795  -0.071888  0.000536  4.014009  0.001
C  C204  1  0.32606961  0.18744113  0.93300067  1  -0.032825  0.00683  -0.029512  -0.064284  0.003357  3.982376  0.005
C  C205  1  0.21736318  0.10970271  0.90721661  1  -0.026697  0.001744  -0.080587  -0.060754  0.000724  3.983981  0.001
C  C206  1  0.24080349  0.04404122  0.87492220  1  -0.041749  0.000418  -0.116597  -0.235842  0.000133  4.025771  0.0
C  C207  1  0.30514667  0.26077211  0.96723517  1  1.553187  0.006424  0.213091  0.599843  0.004237  4.174979  0.005
C  C208  1  0.41856512  0.24647386  0.50901195  1  1.339641  -0.000534  0.251946  0.529151  -0.000868  4.013774  0.0
C  C209  1  0.49387286  0.29048506  0.47454793  1  -0.170107  0.001518  -0.239102  -0.523383  0.000376  3.881947  0.001
C  C210  1  0.58664600  0.16796016  0.52131729  1  0.253561  0.001209  -0.132085  -0.265515  0.000729  3.904861  0.001
C  C211  1  0.38367491  0.13163221  0.55993279  1  0.196931  0.000441  -0.139315  -0.273737  0.000208  3.917817  0.0
C  C212  1  0.52702531  0.15188911  0.71498020  1  0.06024  7e-06  -0.019713  0.048363  3e-06  3.807456  0.0
C  C213  1  0.58017877  0.07251364  0.73038700  1  0.461924  -1e-06  -0.067139  -0.021721  -1e-06  3.89814  0.0
C  C214  1  0.49859560  0.22544749  0.74949468  1  0.433083  1.3e-05  -0.062533  -0.024074  -5e-06  3.864032  0.0
C  C215  1  0.63455689  0.22486348  0.69003979  1  0.395721  2e-06  -0.06089  -0.024808  -1.9e-05  3.860732  0.0
C  C216  1  0.39172827  0.08374715  0.69005824  1  0.383698  1e-06  -0.063722  -0.024997  0.0  3.873334  0.0
C  C217  1  0.62891521  0.34572450  0.80788681  1  0.438975  -0.001617  0.082813  0.266827  -0.00189  4.06603  -0.001
C  C218  1  0.51232820  0.34501519  0.82657955  1  -0.00496  0.001189  -0.115858  -0.232845  0.000522  4.018005  0.001
C  C219  1  0.52674814  0.39686287  0.86532200  1  -0.027292  -0.000867  -0.081027  -0.054253  -0.001325  3.982979  0.0
C  C220  1  0.65591555  0.45103705  0.88558956  1  -0.007768  0.009961  -0.033507  -0.070299  0.005092  3.993536  0.008
C  C221  1  0.77161798  0.45301951  0.86608029  1  -0.127774  -0.000548  -0.089485  -0.07547  -0.001052  4.011775  0.0
C  C222  1  0.75913304  0.40080957  0.82776769  1  -0.021719  0.000819  -0.112953  -0.218158  0.000341  4.02778  0.001
C  C223  1  0.67037044  0.50248784  0.92749103  1  1.551799  -0.001071  0.217353  0.596355  -0.00211  4.172869  0.0
C  C224  1  0.62540416  0.34604678  0.64542855  1  0.446137  -0.002055  0.0844  0.2623  -0.002384  4.083954  -0.001
C  C225  1  0.74186173  0.34744539  0.62650928  1  -0.028356  0.00111  -0.114112  -0.241198  0.000449  4.022563  0.001
C  C226  1  0.77438775  0.39598274  0.59288714  1  -0.051465  -0.001336  -0.075609  -0.052705  -0.001783  3.955327  -0.001
C  C227  1  0.69228776  0.44348342  0.57832773  1  -0.028937  0.004476  -0.03033  -0.067883  0.002146  4.003664  0.003
C  C228  1  0.57585913  0.44120625  0.59761248  1  -0.036255  -0.000722  -0.079099  -0.063998  -0.001158  3.980558  0.0
C  C229  1  0.54245979  0.39323821  0.63088119  1  0.00158  0.000841  -0.107319  -0.212687  0.0003  4.008443  0.001
C  C230  1  0.72594181  0.49860075  0.54357545  1  1.486943  -0.001993  0.209332  0.576664  -0.003465  4.189051  0.0
C  C231  1  0.31871677  0.94394371  0.63157007  1  0.401055  0.000509  0.082677  0.261868  0.000238  4.070577  0.0
C  C232  1  0.34962013  0.86471234  0.60630609  1  -0.013014  0.000358  -0.107086  -0.213705  0.000159  4.021001  0.0
C  C233  1  0.25993939  0.79995802  0.57464777  1  0.036119  0.001142  -0.083068  -0.072227  0.000533  4.015107  0.001
C  C234  1  0.13849029  0.81260844  0.56706157  1  0.003472  0.006782  -0.029568  -0.06369  0.003362  3.982579  0.005
C  C235  1  0.10751288  0.89053485  0.59281836  1  -0.05534  0.00174  -0.080753  -0.060626  0.000708  3.985352  0.001
C  C236  1  0.19629501  0.95607017  0.62513577  1  -0.0553  0.000443  -0.116211  -0.236326  0.000144  4.024689  0.0
C  C237  1  0.04462782  0.73937632  0.53279489  1  1.534553  0.006403  0.212608  0.598472  0.004196  4.176479  0.005
C  C238  1  0.17215284  0.75337889  0.99098527  1  1.324253  -0.000648  0.252644  0.530549  -0.001016  4.010605  0.0
C  C239  1  0.20305678  0.70932195  0.02545267  1  -0.09314  0.001518  -0.238894  -0.524401  0.000368  3.881667  0.001
C  C240  1  0.41882418  0.83192010  0.97869471  1  0.261648  0.001228  -0.13183  -0.264699  0.000737  3.904056  0.001
C  C241  1  0.25242692  0.86813515  0.94004810  1  0.231786  0.00045  -0.138677  -0.270894  0.000211  3.915841  0.0
N  N242  1  0.53773428  0.81444903  0.47105647  1  -1.189249  0.005411  -0.27825  -0.02744  0.002566  3.652692  0.004
N  N243  1  0.72308135  0.18565484  0.02893263  1  -1.194589  0.005518  -0.27929  -0.029804  0.002625  3.653342  0.004
N  N244  1  0.46224895  0.18554708  0.52894256  1  -1.189296  0.00541  -0.278139  -0.027112  0.002566  3.652658  0.004
N  N245  1  0.27690411  0.81433450  0.97106657  1  -1.194618  0.00552  -0.279282  -0.03001  0.002626  3.653598  0.004
O  O246  1  0.66747228  0.29515507  0.27066910  1  -1.088951  -0.000335  -0.18086  -0.201523  -0.00033  2.571941  0.0
O  O247  1  0.71822764  0.30100482  0.17825852  1  -1.086111  -0.000555  -0.18169  -0.204822  -0.000561  2.585655  0.0
O  O248  1  0.58865987  0.00547667  0.16124082  1  -1.088979  0.000372  -0.180896  -0.203018  0.000173  2.583646  0.0
O  O249  1  0.92774793  0.48855753  0.44447262  1  -1.167601  0.061283  -0.302839  -0.575252  0.032167  2.441077  0.053
O  O250  1  0.76387380  0.55748792  0.44299789  1  -1.152538  0.087127  -0.326884  -0.581339  0.044404  2.394153  0.065
O  O251  1  0.89610779  0.55200287  0.03437266  1  -1.129249  0.089329  -0.314428  -0.554271  0.045251  2.31756  0.072
O  O252  1  0.67312322  0.49395501  0.02216863  1  -1.181174  0.09332  -0.306148  -0.600071  0.049124  2.500932  0.079
O  O253  1  0.59161050  0.67572673  0.00962172  1  -1.184446  0.050589  -0.320801  -0.599068  0.025448  2.366133  0.04
O  O254  1  0.81724241  0.74519108  0.02887692  1  -1.145045  0.102271  -0.324056  -0.571282  0.051619  2.356208  0.081
O  O255  1  0.68682012  0.73745213  0.48086840  1  -1.14857  0.066627  -0.301564  -0.524956  0.034017  2.364802  0.052
O  O256  1  0.37249722  0.70497240  0.22950564  1  -1.088702  -0.000341  -0.180777  -0.202855  -0.000337  2.572852  0.0
O  O257  1  0.41779642  0.69954319  0.32179408  1  -1.082603  -0.000512  -0.18161  -0.204753  -0.000509  2.588018  0.0
O  O258  1  0.58415407  0.99496153  0.33868294  1  -1.090968  0.000414  -0.179832  -0.201782  0.000197  2.586271  0.0
O  O259  1  0.43870164  0.51181338  0.05552670  1  -1.167215  0.061334  -0.303129  -0.575144  0.032148  2.437936  0.053
O  O260  1  0.20588353  0.44248975  0.05710440  1  -1.156025  0.087099  -0.327434  -0.58198  0.044323  2.396266  0.065
O  O261  1  0.34393837  0.44731272  0.46534869  1  -1.127196  0.089254  -0.313879  -0.554256  0.045133  2.316738  0.072
O  O262  1  0.17931927  0.50564804  0.47781197  1  -1.179444  0.093556  -0.306457  -0.600265  0.04923  2.500318  0.08
O  O263  1  0.91544938  0.32426286  0.49030050  1  -1.185704  0.051022  -0.320883  -0.598697  0.025591  2.366972  0.04
O  O264  1  0.07160343  0.25445641  0.47117683  1  -1.13877  0.102082  -0.323255  -0.57035  0.051577  2.355385  0.081
O  O265  1  0.94920491  0.26267156  0.01915659  1  -1.149898  0.067098  -0.301157  -0.524076  0.034135  2.365668  0.052
O  O266  1  0.33254540  0.70486127  0.72933142  1  -1.089378  -0.000336  -0.18089  -0.202002  -0.000331  2.572187  0.0
O  O267  1  0.28176366  0.69900557  0.82174451  1  -1.085966  -0.000555  -0.181769  -0.204895  -0.000561  2.58573  0.0
O  O268  1  0.41134476  0.99453043  0.83875742  1  -1.088344  0.000372  -0.180922  -0.203083  0.000173  2.583838  0.0
O  O269  1  0.07229504  0.51145885  0.55552589  1  -1.16742  0.061304  -0.302707  -0.575165  0.032173  2.44113  0.053
O  O270  1  0.23616829  0.44252672  0.55700310  1  -1.152386  0.087108  -0.32696  -0.581377  0.044392  2.394064  0.065
O  O271  1  0.10390592  0.44797558  0.96562186  1  -1.129739  0.089341  -0.31472  -0.554594  0.045259  2.317324  0.072
O  O272  1  0.32689014  0.50603772  0.97782990  1  -1.181393  0.093315  -0.306141  -0.600139  0.04912  2.50092  0.079
O  O273  1  0.40839943  0.32426851  0.99037839  1  -1.184689  0.050577  -0.320716  -0.59892  0.025441  2.366184  0.04
O  O274  1  0.18276118  0.25479899  0.97112862  1  -1.145018  0.102265  -0.324142  -0.571318  0.051622  2.356248  0.081
O  O275  1  0.31313696  0.26251788  0.51912648  1  -1.148636  0.066658  -0.30156  -0.525024  0.034031  2.364916  0.052
O  O276  1  0.62749881  0.29503808  0.77049253  1  -1.088444  -0.000341  -0.180793  -0.202914  -0.000337  2.572958  0.0
O  O277  1  0.58219910  0.30045878  0.67820759  1  -1.082501  -0.000512  -0.181545  -0.204622  -0.00051  2.588197  0.0
O  O278  1  0.41583847  0.00502516  0.66132298  1  -1.090791  0.000414  -0.179839  -0.201991  0.000197  2.586434  0.0
O  O279  1  0.56130239  0.48819625  0.94447170  1  -1.167171  0.061325  -0.303006  -0.574976  0.03214  2.438103  0.053
O  O280  1  0.79411968  0.55750888  0.94289506  1  -1.156081  0.087113  -0.327469  -0.582047  0.044332  2.39608  0.065
O  O281  1  0.65606897  0.55268670  0.53465368  1  -1.127909  0.08924  -0.313815  -0.554162  0.045124  2.316717  0.072
O  O282  1  0.82068859  0.49435054  0.52219035  1  -1.179437  0.093556  -0.306417  -0.600181  0.049229  2.500149  0.08
O  O283  1  0.08453951  0.67573147  0.50970301  1  -1.185489  0.051034  -0.320786  -0.598591  0.025599  2.367316  0.04
O  O284  1  0.92840480  0.74556164  0.52882293  1  -1.138738  0.102075  -0.323394  -0.570439  0.051575  2.355131  0.081
O  O285  1  0.05078875  0.73735482  0.98084969  1  -1.149757  0.067098  -0.301251  -0.524201  0.034138  2.365559  0.052
O  O286  1  0.52773037  0.00009118  0.24995641  1  -1.077422  4e-06  -0.225924  -0.218709  1e-06  2.57239  0.0
O  O287  1  0.47225601  0.99990748  0.75004162  1  -1.077351  4e-06  -0.225877  -0.218656  1e-06  2.572409  0.0
