# generated using pymatgen
data_Zn2H20C30N2O9
_symmetry_space_group_name_H-M   'P 1'
_cell_length_a   11.28907287
_cell_length_b   11.64617245
_cell_length_c   12.13317110
_cell_angle_alpha   93.10013861
_cell_angle_beta   107.55836499
_cell_angle_gamma   94.14678672
_symmetry_Int_Tables_number   1
_chemical_formula_structural   Zn2H20C30N2O9
_chemical_formula_sum   'Zn4 H40 C60 N4 O18'
_cell_volume   1512.06141350
_cell_formula_units_Z   2
loop_
 _symmetry_equiv_pos_site_id
 _symmetry_equiv_pos_as_xyz
  1  'x, y, z'
loop_
 _atom_site_type_symbol
 _atom_site_label
 _atom_site_symmetry_multiplicity
 _atom_site_fract_x
 _atom_site_fract_y
 _atom_site_fract_z
 _atom_site_occupancy
 _atom_site_hle17_bader_spin_density
 _atom_site_hle17_ddec_charge
 _atom_site_hle17_ddec_spin_density
 _atom_site_hle17_ddec_sum_bond_order
 _atom_site_hle17_magmom
 _atom_site_hse06_10hf_bader_spin_density
 _atom_site_hse06_10hf_ddec_charge
 _atom_site_hse06_10hf_ddec_spin_density
 _atom_site_hse06_10hf_ddec_sum_bond_order
 _atom_site_hse06_10hf_magmom
 _atom_site_hse06_bader_spin_density
 _atom_site_hse06_ddec_charge
 _atom_site_hse06_ddec_spin_density
 _atom_site_hse06_ddec_sum_bond_order
 _atom_site_hse06_magmom
 _atom_site_pbe_bader_spin_density
 _atom_site_pbe_cm5_charge
 _atom_site_pbe_ddec_charge
 _atom_site_pbe_ddec_spin_density
 _atom_site_pbe_ddec_sum_bond_order
 _atom_site_pbe_magmom
Zn  Zn0  1  0.22638285  0.05157847  0.55393262  1  0  1.089037  0  1.759329  0  0  0.901901  0  2.236603  0  0  0.951255  0  2.176273  0  0  0.703702  0.867058  0  2.278519  0
Zn  Zn1  1  0.77361884  0.94842165  0.44606572  1  0  1.088965  0  1.759416  0  0  0.901804  0  2.236725  0  0  0.951162  0  2.176396  0  0  0.703704  0.866961  0  2.278642  0
Zn  Zn2  1  0.96742717  0.32810116  0.43562031  1  0  1.132653  0  1.778909  0  0  0.964981  0  2.245388  0  0  1.011343  0  2.186692  0  0  0.714098  0.93228  0  2.286001  0
Zn  Zn3  1  0.03256818  0.67190069  0.56437797  1  0  1.132658  0  1.778922  0  0  0.965013  0  2.245389  0  0  1.011378  0  2.186692  0  0  0.714113  0.93231  0  2.285999  0
H  H4  1  0.79492846  0.68897007  0.08353687  1  0  0.103979  0  0.936413  0  0  0.115172  0  0.992364  0  0  0.119286  0  0.988969  0  0  0.108397  0.112127  0  0.994888  0
H  H5  1  0.20507252  0.31102316  0.91645923  1  0  0.104099  0  0.936304  0  0  0.115282  0  0.992262  0  0  0.119405  0  0.988862  0  0  0.108429  0.112232  0  0.994789  0
H  H6  1  0.94214397  0.56222624  0.02723666  1  0  0.083606  0  0.963771  0  0  0.095925  0  1.022554  0  0  0.098505  0  1.021699  0  0  0.09863  0.094084  0  1.023198  0
H  H7  1  0.05786307  0.43776343  0.97277250  1  0  0.083561  0  0.963796  0  0  0.095901  0  1.022538  0  0  0.098487  0  1.021683  0  0  0.098601  0.09405  0  1.023191  0
H  H8  1  0.15787948  0.56041804  0.16324698  1  0  0.084035  0  0.956659  0  0  0.094721  0  1.018332  0  0  0.097633  0  1.0167  0  0  0.100705  0.092642  0  1.01951  0
H  H9  1  0.84212610  0.43957590  0.83677025  1  0  0.084008  0  0.956774  0  0  0.094694  0  1.018451  0  0  0.097604  0  1.016821  0  0  0.1007  0.092615  0  1.01963  0
H  H10  1  0.44726285  0.27561881  0.41586226  1  0  0.105545  0  0.961514  0  0  0.109795  0  1.032017  0  0  0.113848  0  1.029005  0  0  0.10585  0.106864  0  1.034241  0
H  H11  1  0.55273346  0.72438308  0.58413135  1  0  0.105518  0  0.961581  0  0  0.109783  0  1.032057  0  0  0.113836  0  1.029045  0  0  0.105833  0.106854  0  1.034278  0
H  H12  1  0.55536898  0.42629609  0.33373684  1  0  0.10293  0  0.934251  0  0  0.113774  0  0.989962  0  0  0.117642  0  0.988151  0  0  0.105688  0.111035  0  0.991328  0
H  H13  1  0.44462667  0.57370840  0.66625592  1  0  0.103079  0  0.934121  0  0  0.113878  0  0.989877  0  0  0.117747  0  0.988062  0  0  0.105721  0.111137  0  0.991242  0
H  H14  1  0.47274594  0.62015684  0.30642702  1  0  0.107949  0  0.921868  0  0  0.121472  0  0.973151  0  0  0.125111  0  0.970889  0  0  0.11183  0.118773  0  0.97498  0
H  H15  1  0.52725366  0.37985018  0.69357360  1  0  0.107976  0  0.921879  0  0  0.121512  0  0.973146  0  0  0.125153  0  0.97088  0  0  0.111849  0.118809  0  0.974977  0
H  H16  1  0.85683330  0.39140446  0.18941829  1  0  0.091197  0  0.921965  0  0  0.103255  0  0.976877  0  0  0.105416  0  0.975363  0  0  0.123848  0.101735  0  0.97785  0
H  H17  1  0.14316476  0.60859654  0.81057824  1  0  0.091215  0  0.922025  0  0  0.103273  0  0.976936  0  0  0.105433  0  0.975422  0  0  0.123866  0.101753  0  0.97791  0
H  H18  1  0.78641876  0.28580825  0.99158848  1  0  0.105899  0  0.947452  0  0  0.118633  0  1.001946  0  0  0.121184  0  1.002372  0  0  0.107301  0.116768  0  1.001895  0
H  H19  1  0.21358621  0.71418756  0.00840726  1  0  0.105883  0  0.947433  0  0  0.118595  0  1.001957  0  0  0.121147  0  1.002381  0  0  0.107275  0.116731  0  1.001906  0
H  H20  1  0.94237491  0.98623211  0.15336188  1  0  0.104425  0  0.973638  0  0  0.112876  0  1.039509  0  0  0.115276  0  1.039798  0  0  0.107737  0.111118  0  1.039507  0
H  H21  1  0.05762758  0.01376711  0.84664241  1  0  0.104364  0  0.973625  0  0  0.112817  0  1.039504  0  0  0.11521  0  1.039811  0  0  0.107694  0.111059  0  1.0395  0
H  H22  1  0.99833637  0.09917566  0.34128435  1  0  0.100869  0  0.953203  0  0  0.106089  0  1.021149  0  0  0.109231  0  1.017758  0  0  0.122023  0.103562  0  1.023862  0
H  H23  1  0.00166648  0.90082702  0.65871860  1  0  0.100865  0  0.95329  0  0  0.106094  0  1.021201  0  0  0.109227  0  1.017819  0  0  0.122029  0.103566  0  1.023912  0
H  H24  1  0.88330809  0.07680432  0.89096487  1  0  0.085056  0  0.927966  0  0  0.103723  0  0.990219  0  0  0.103985  0  0.991226  0  0  0.098144  0.10353  0  0.989531  0
H  H25  1  0.11669339  0.92319405  0.10903744  1  0  0.085079  0  0.927919  0  0  0.103751  0  0.990177  0  0  0.104016  0  0.991181  0  0  0.098147  0.103554  0  0.989493  0
H  H26  1  0.72899475  0.09264366  0.88568780  1  0  0.085165  0  0.935288  0  0  0.104743  0  0.989566  0  0  0.105416  0  0.990469  0  0  0.098391  0.104296  0  0.988931  0
H  H27  1  0.27100943  0.90735383  0.11431522  1  0  0.085131  0  0.935366  0  0  0.104652  0  0.989725  0  0  0.105325  0  0.990629  0  0  0.098358  0.104205  0  0.989089  0
H  H28  1  0.73166346  0.91064819  0.99771428  1  0  0.076312  0  0.924971  0  0  0.097012  0  0.979658  0  0  0.097601  0  0.980643  0  0  0.094019  0.09652  0  0.979079  0
H  H29  1  0.26834082  0.08935019  0.00228635  1  0  0.076305  0  0.924984  0  0  0.096947  0  0.979717  0  0  0.097539  0  0.980706  0  0  0.093994  0.096457  0  0.979134  0
H  H30  1  0.88066727  0.89171507  0.98521154  1  0  0.05853  0  0.952656  0  0  0.076626  0  1.01796  0  0  0.076519  0  1.020005  0  0  0.087075  0.076641  0  1.016603  0
H  H31  1  0.11933507  0.10828246  0.01478766  1  0  0.058514  0  0.952659  0  0  0.076627  0  1.017914  0  0  0.076524  0  1.01996  0  0  0.087095  0.076638  0  1.016556  0
H  H32  1  0.72366278  0.76833375  0.83530871  1  0  0.079042  0  0.927464  0  0  0.097235  0  0.984278  0  0  0.0979  0  0.984688  0  0  0.094529  0.096737  0  0.984032  0
H  H33  1  0.27633592  0.23166463  0.16469198  1  0  0.079079  0  0.927497  0  0  0.097256  0  0.984334  0  0  0.09792  0  0.984742  0  0  0.094527  0.096755  0  0.984088  0
H  H34  1  0.79805367  0.87274646  0.77098922  1  0  0.088314  0  0.934636  0  0  0.105355  0  0.995422  0  0  0.106278  0  0.996192  0  0  0.096045  0.104827  0  0.994552  0
H  H35  1  0.20194848  0.12724932  0.22901148  1  0  0.08836  0  0.934652  0  0  0.105421  0  0.995406  0  0  0.106336  0  0.996183  0  0  0.096053  0.10489  0  0.994538  0
H  H36  1  0.68895132  0.02798129  0.66956143  1  0  0.123411  0  0.977386  0  0  0.127348  0  1.04693  0  0  0.131314  0  1.045184  0  0  0.107189  0.124409  0  1.048401  0
H  H37  1  0.31104858  0.97201968  0.33043893  1  0  0.123394  0  0.977358  0  0  0.12731  0  1.046922  0  0  0.131275  0  1.045179  0  0  0.107178  0.124373  0  1.048394  0
H  H38  1  0.48473772  0.10057709  0.57404768  1  0  0.089921  0  0.965519  0  0  0.095284  0  1.034099  0  0  0.098004  0  1.031457  0  0  0.118328  0.0932  0  1.036188  0
H  H39  1  0.51526302  0.89942301  0.42595286  1  0  0.089911  0  0.965503  0  0  0.095243  0  1.034119  0  0  0.097964  0  1.031477  0  0  0.11833  0.093158  0  1.036208  0
H  H40  1  0.29674438  0.86114282  0.71679987  1  0  0.078935  0  0.948166  0  0  0.087249  0  1.012553  0  0  0.089205  0  1.011399  0  0  0.116627  0.086012  0  1.013032  0
H  H41  1  0.70325804  0.13885556  0.28320023  1  0  0.078909  0  0.948118  0  0  0.087231  0  1.012506  0  0  0.089181  0  1.011356  0  0  0.11664  0.085994  0  1.012985  0
H  H42  1  0.49599711  0.78479671  0.82800420  1  0  0.106176  0  0.935185  0  0  0.120268  0  0.98605  0  0  0.123149  0  0.986142  0  0  0.110173  0.118089  0  0.986369  0
H  H43  1  0.50400635  0.21520254  0.17199378  1  0  0.106186  0  0.935085  0  0  0.120275  0  0.985958  0  0  0.123157  0  0.986049  0  0  0.110177  0.118096  0  0.986277  0
C  C44  1  0.13810284  0.69709629  0.28095680  1  0  -0.06334  0  3.733673  0  0  -0.052049  0  3.968544  0  0  -0.058753  0  3.992171  0  0  -0.017785  -0.047744  0  3.95278  0
C  C45  1  0.86189627  0.30290637  0.71905003  1  0  -0.063148  0  3.733447  0  0  -0.051869  0  3.968287  0  0  -0.058572  0  3.991913  0  0  -0.017734  -0.047569  0  3.952524  0
C  C46  1  0.05738277  0.77421222  0.30738726  1  0  -0.043688  0  3.618951  0  0  -0.038139  0  3.855137  0  0  -0.038286  0  3.871323  0  0  0.010325  -0.03819  0  3.844819  0
C  C47  1  0.94261330  0.22578787  0.69261607  1  0  -0.043892  0  3.618998  0  0  -0.038316  0  3.855163  0  0  -0.038457  0  3.871328  0  0  0.01035  -0.038364  0  3.844848  0
C  C48  1  0.93261356  0.76742415  0.23592130  1  0  -0.07191  0  3.693233  0  0  -0.057297  0  3.930742  0  0  -0.064391  0  3.951733  0  0  -0.010791  -0.052878  0  3.916812  0
C  C49  1  0.06738496  0.23257250  0.76407842  1  0  -0.0719  0  3.693162  0  0  -0.057251  0  3.930598  0  0  -0.064359  0  3.951612  0  0  -0.010867  -0.052851  0  3.916693  0
C  C50  1  0.89261669  0.69136338  0.13560470  1  0  -0.042891  0  3.719962  0  0  -0.06807  0  3.968133  0  0  -0.066115  0  3.985919  0  0  -0.072985  -0.06896  0  3.955818  0
C  C51  1  0.10738442  0.30863152  0.86439895  1  0  -0.043043  0  3.719879  0  0  -0.06824  0  3.968047  0  0  -0.06629  0  3.985844  0  0  -0.072947  -0.069118  0  3.955732  0
C  C52  1  0.97386879  0.62004263  0.10621004  1  0  -0.083214  0  3.796272  0  0  -0.097629  0  4.055845  0  0  -0.100845  0  4.076475  0  0  -0.095248  -0.095654  0  4.041714  0
C  C53  1  0.02613407  0.37995138  0.89379652  1  0  -0.083065  0  3.796183  0  0  -0.097469  0  4.055706  0  0  -0.100693  0  4.076348  0  0  -0.095192  -0.095486  0  4.041569  0
C  C54  1  0.09481079  0.62046767  0.18095339  1  0  -0.063684  0  3.754357  0  0  -0.091866  0  4.013832  0  0  -0.090598  0  4.033225  0  0  -0.08097  -0.092417  0  4.000598  0
C  C55  1  0.90519147  0.37952977  0.81905733  1  0  -0.063758  0  3.754369  0  0  -0.09197  0  4.013878  0  0  -0.090705  0  4.033277  0  0  -0.081048  -0.092519  0  4.000647  0
C  C56  1  0.26915285  0.69106259  0.35705469  1  0  0.399973  0  3.710058  0  0  0.378258  0  3.975515  0  0  0.398995  0  3.978955  0  0  0.167575  0.364084  0  3.973014  0
C  C57  1  0.73084984  0.30894782  0.64295443  1  0  0.400189  0  3.709783  0  0  0.378559  0  3.975155  0  0  0.399297  0  3.978596  0  0  0.167758  0.364382  0  3.972656  0
C  C58  1  0.31596082  0.57311965  0.36647320  1  0  -0.057705  0  3.747865  0  0  -0.047556  0  3.986248  0  0  -0.053702  0  4.009508  0  0  -0.016154  -0.043406  0  3.970469  0
C  C59  1  0.68403680  0.42688648  0.63353093  1  0  -0.057773  0  3.748127  0  0  -0.047711  0  3.986579  0  0  -0.053847  0  4.009845  0  0  -0.016252  -0.043554  0  3.970798  0
C  C60  1  0.25362697  0.48677383  0.41113801  1  0  -0.057291  0  3.677615  0  0  -0.050024  0  3.909591  0  0  -0.051194  0  3.92865  0  0  0.000981  -0.049205  0  3.896783  0
C  C61  1  0.74637243  0.51323145  0.58886492  1  0  -0.057335  0  3.677505  0  0  -0.049966  0  3.909463  0  0  -0.051175  0  3.928574  0  0  0.001011  -0.04915  0  3.896656  0
C  C62  1  0.30071714  0.37842514  0.42785867  1  0  -0.095524  0  3.724488  0  0  -0.080678  0  3.96064  0  0  -0.089594  0  3.982968  0  0  -0.016086  -0.075097  0  3.945827  0
C  C63  1  0.69928120  0.62157845  0.57213809  1  0  -0.095446  0  3.724297  0  0  -0.080688  0  3.960472  0  0  -0.089587  0  3.982807  0  0  -0.016093  -0.075107  0  3.945658  0
C  C64  1  0.40905930  0.35825098  0.39853360  1  0  -0.043931  0  3.717085  0  0  -0.073841  0  3.979035  0  0  -0.071372  0  3.997389  0  0  -0.076244  -0.075159  0  3.966612  0
C  C65  1  0.59093822  0.64175350  0.60145968  1  0  -0.043907  0  3.716925  0  0  -0.073774  0  3.978815  0  0  -0.071301  0  3.997161  0  0  -0.076236  -0.075091  0  3.966394  0
C  C66  1  0.46969402  0.44317037  0.35310682  1  0  -0.073521  0  3.758376  0  0  -0.089749  0  4.021293  0  0  -0.093652  0  4.041835  0  0  -0.088663  -0.087329  0  4.007442  0
C  C67  1  0.53030374  0.55683668  0.64689080  1  0  -0.07372  0  3.75829  0  0  -0.08994  0  4.021227  0  0  -0.093844  0  4.041766  0  0  -0.088694  -0.087517  0  4.007373  0
C  C68  1  0.42394425  0.55133575  0.33812473  1  0  -0.065451  0  3.72791  0  0  -0.091683  0  3.983747  0  0  -0.090331  0  4.00215  0  0  -0.076349  -0.09237  0  3.971226  0
C  C69  1  0.57605441  0.44867127  0.66187645  1  0  -0.065404  0  3.728066  0  0  -0.091621  0  3.983907  0  0  -0.090269  0  4.002304  0  0  -0.07632  -0.092314  0  3.971393  0
C  C70  1  0.10369298  0.85742933  0.41468355  1  0  0.703569  0  3.864627  0  0  0.640556  0  4.171755  0  0  0.677783  0  4.159992  0  0  0.223277  0.614845  0  4.179399  0
C  C71  1  0.89630243  0.14257336  0.58531810  1  0  0.703429  0  3.864534  0  0  0.640367  0  4.171699  0  0  0.677616  0  4.159908  0  0  0.223199  0.614656  0  4.17934  0
C  C72  1  0.83577113  0.83359654  0.26814277  1  0  0.638597  0  3.945051  0  0  0.586376  0  4.248345  0  0  0.619694  0  4.242419  0  0  0.196235  0.563818  0  4.251536  0
C  C73  1  0.16422390  0.16640189  0.73185110  1  0  0.638697  0  3.944748  0  0  0.586462  0  4.248033  0  0  0.619785  0  4.242108  0  0  0.196309  0.563903  0  4.251229  0
C  C74  1  0.14437066  0.52247864  0.44725336  1  0  0.660884  0  3.929809  0  0  0.604223  0  4.232837  0  0  0.639056  0  4.223299  0  0  0.208218  0.580405  0  4.238634  0
C  C75  1  0.85562776  0.47752581  0.55274430  1  0  0.660894  0  3.929608  0  0  0.60417  0  4.232717  0  0  0.639009  0  4.223185  0  0  0.208182  0.580351  0  4.23851  0
C  C76  1  0.24159218  0.28560298  0.48108148  1  0  0.676948  0  3.859553  0  0  0.625  0  4.147974  0  0  0.660623  0  4.139966  0  0  0.224126  0.600793  0  4.152762  0
C  C77  1  0.75840507  0.71439891  0.51891158  1  0  0.676753  0  3.859718  0  0  0.62487  0  4.148093  0  0  0.660479  0  4.140109  0  0  0.224051  0.600663  0  4.152872  0
C  C78  1  0.87255307  0.30106116  0.17610226  1  0  0.127022  0  3.72681  0  0  0.096466  0  3.975158  0  0  0.103672  0  3.994615  0  0  0.045987  0.091918  0  3.961826  0
C  C79  1  0.12744649  0.69893637  0.82389532  1  0  0.126988  0  3.726799  0  0  0.096439  0  3.975149  0  0  0.103646  0  3.994605  0  0  0.045992  0.091888  0  3.96182  0
C  C80  1  0.83518269  0.24196524  0.06701536  1  0  -0.185388  0  3.735984  0  0  -0.201171  0  3.979666  0  0  -0.211144  0  4.003869  0  0  -0.086948  -0.194839  0  3.963516  0
C  C81  1  0.16482125  0.75802969  0.93298250  1  0  -0.185396  0  3.735887  0  0  -0.201173  0  3.979532  0  0  -0.211147  0  4.003732  0  0  -0.087009  -0.194844  0  3.963383  0
C  C82  1  0.85845746  0.12579442  0.05438127  1  0  0.163035  0  3.703112  0  0  0.178261  0  3.939721  0  0  0.184361  0  3.96162  0  0  0.018684  0.174424  0  3.924792  0
C  C83  1  0.14154572  0.87420225  0.94561730  1  0  0.162961  0  3.703135  0  0  0.178271  0  3.939642  0  0  0.184373  0  3.961537  0  0  0.018705  0.174434  0  3.924713  0
C  C84  1  0.92132736  0.07579007  0.15526531  1  0  -0.159448  0  3.682747  0  0  -0.177485  0  3.930898  0  0  -0.186239  0  3.952427  0  0  -0.081238  -0.171976  0  3.91611  0
C  C85  1  0.07867423  0.92420918  0.84473460  1  0  -0.159327  0  3.682783  0  0  -0.177409  0  3.930925  0  0  -0.186166  0  3.95245  0  0  -0.081169  -0.171901  0  3.916137  0
C  C86  1  0.95421427  0.13909864  0.26199551  1  0  0.147416  0  3.681864  0  0  0.112422  0  3.938835  0  0  0.121381  0  3.954603  0  0  0.052596  0.107041  0  3.927297  0
C  C87  1  0.04578637  0.86090060  0.73800579  1  0  0.147363  0  3.682051  0  0  0.112404  0  3.938973  0  0  0.121373  0  3.954743  0  0  0.052596  0.107025  0  3.927432  0
C  C88  1  0.81479231  0.05837563  0.93775992  1  0  -0.162009  0  3.691386  0  0  -0.203782  0  3.94046  0  0  -0.205102  0  3.95254  0  0  -0.156853  -0.202749  0  3.931968  0
C  C89  1  0.18521087  0.94162102  0.06224029  1  0  -0.161983  0  3.691437  0  0  -0.203795  0  3.940528  0  0  -0.20511  0  3.952617  0  0  -0.156865  -0.20276  0  3.932032  0
C  C90  1  0.79221123  0.92774304  0.94307430  1  0  -0.09457  0  3.668082  0  0  -0.13437  0  3.928121  0  0  -0.135571  0  3.94253  0  0  -0.160086  -0.133269  0  3.918037  0
C  C91  1  0.20779230  0.07225707  0.05692540  1  0  -0.094484  0  3.668118  0  0  -0.134165  0  3.928025  0  0  -0.135385  0  3.942456  0  0  -0.160034  -0.13306  0  3.917933  0
C  C92  1  0.73432233  0.86100820  0.82331734  1  0  -0.162509  0  3.693192  0  0  -0.206681  0  3.946725  0  0  -0.20824  0  3.958948  0  0  -0.157989  -0.205487  0  3.937925  0
C  C93  1  0.26567916  0.13899018  0.17668332  1  0  -0.162637  0  3.693371  0  0  -0.20689  0  3.946893  0  0  -0.208431  0  3.959109  0  0  -0.158038  -0.205695  0  3.938093  0
C  C94  1  0.61048750  0.90057255  0.75869093  1  0  0.162621  0  3.713165  0  0  0.179448  0  3.948887  0  0  0.185099  0  3.971103  0  0  0.018343  0.175712  0  3.933877  0
C  C95  1  0.38951400  0.09942584  0.24130809  1  0  0.162561  0  3.713265  0  0  0.179518  0  3.948827  0  0  0.18517  0  3.971036  0  0  0.018368  0.175778  0  3.933821  0
C  C96  1  0.60507597  0.98969422  0.68504490  1  0  -0.167066  0  3.685665  0  0  -0.185149  0  3.934007  0  0  -0.193916  0  3.954777  0  0  -0.083548  -0.17945  0  3.92021  0
C  C97  1  0.39492579  0.01030675  0.31495516  1  0  -0.167083  0  3.6858  0  0  -0.185184  0  3.934112  0  0  -0.19395  0  3.954879  0  0  -0.083568  -0.179484  0  3.920317  0
C  C98  1  0.49107801  0.02948286  0.62952119  1  0  0.13787  0  3.694771  0  0  0.104861  0  3.943503  0  0  0.112363  0  3.962089  0  0  0.050043  0.100077  0  3.930898  0
C  C99  1  0.50892171  0.97051639  0.37047819  1  0  0.137932  0  3.69484  0  0  0.104945  0  3.943574  0  0  0.112447  0  3.962159  0  0  0.050076  0.100159  0  3.930966  0
C  C100  1  0.38648454  0.89662120  0.71115966  1  0  0.150289  0  3.699436  0  0  0.117912  0  3.948402  0  0  0.126599  0  3.96604  0  0  0.052867  0.112208  0  3.936268  0
C  C101  1  0.61351593  0.10337632  0.28884066  1  0  0.15027  0  3.699277  0  0  0.117881  0  3.948281  0  0  0.126571  0  3.965918  0  0  0.05284  0.112176  0  3.936145  0
C  C102  1  0.49770813  0.85447331  0.77182924  1  0  -0.180202  0  3.711325  0  0  -0.195223  0  3.952395  0  0  -0.204809  0  3.974927  0  0  -0.083042  -0.189222  0  3.937604  0
C  C103  1  0.50229346  0.14552595  0.22816986  1  0  -0.180169  0  3.7111  0  0  -0.195227  0  3.952151  0  0  -0.204814  0  3.974682  0  0  -0.083061  -0.189226  0  3.93736  0
N  N104  1  0.92954478  0.24970426  0.27260510  1  0  -0.350065  0  3.320974  0  0  -0.269928  0  3.598517  0  0  -0.290151  0  3.612997  0  0  -0.33565  -0.256377  0  3.588203  0
N  N105  1  0.07045512  0.75029671  0.72739526  1  0  -0.349998  0  3.320951  0  0  -0.269899  0  3.598503  0  0  -0.290123  0  3.612982  0  0  -0.335647  -0.256346  0  3.588188  0
N  N106  1  0.38325747  0.98312929  0.64128052  1  0  -0.340129  0  3.329131  0  0  -0.255047  0  3.610204  0  0  -0.275284  0  3.623093  0  0  -0.333788  -0.241305  0  3.601335  0
N  N107  1  0.61674326  0.01687081  0.35872085  1  0  -0.340074  0  3.329197  0  0  -0.254982  0  3.610258  0  0  -0.27522  0  3.62315  0  0  -0.333772  -0.241239  0  3.601383  0
O  O108  1  0.10505202  0.82418580  0.51250867  1  0  -0.640759  0  2.078417  0  0  -0.577057  0  2.357545  0  0  -0.606419  0  2.343772  0  0  -0.300809  -0.556395  0  2.3664  0
O  O109  1  0.89494164  0.17581777  0.48749170  1  0  -0.640765  0  2.078337  0  0  -0.577011  0  2.357423  0  0  -0.606383  0  2.343643  0  0  -0.300806  -0.556353  0  2.366281  0
O  O110  1  0.14774532  0.95833424  0.40150516  1  0  -0.626864  0  2.046771  0  0  -0.555309  0  2.322177  0  0  -0.58442  0  2.306031  0  0  -0.308474  -0.534645  0  2.332751  0
O  O111  1  0.85224640  0.04166848  0.59849379  1  0  -0.626711  0  2.046723  0  0  -0.555118  0  2.322111  0  0  -0.58422  0  2.30592  0  0  -0.308456  -0.534451  0  2.332679  0
O  O112  1  0.88269238  0.90984561  0.35611777  1  0  -0.662132  0  2.118993  0  0  -0.581667  0  2.40195  0  0  -0.612232  0  2.386494  0  0  -0.327135  -0.560088  0  2.411846  0
O  O113  1  0.11729706  0.09015283  0.64387534  1  0  -0.662254  0  2.118905  0  0  -0.581795  0  2.401864  0  0  -0.61236  0  2.386404  0  0  -0.327215  -0.56021  0  2.411756  0
O  O114  1  0.72336870  0.81159456  0.21328590  1  0  -0.603124  0  1.852436  0  0  -0.568742  0  2.054392  0  0  -0.588787  0  2.045916  0  0  -0.342024  -0.554706  0  2.059867  0
O  O115  1  0.27662857  0.18840735  0.78670387  1  0  -0.603118  0  1.852226  0  0  -0.56874  0  2.054199  0  0  -0.588787  0  2.045722  0  0  -0.342  -0.554702  0  2.059672  0
O  O116  1  0.33686403  0.77690083  0.40935134  1  0  -0.422402  0  1.951527  0  0  -0.379276  0  2.158844  0  0  -0.395653  0  2.157228  0  0  -0.234673  -0.367976  0  2.159879  0
O  O117  1  0.66313436  0.22310359  0.59065043  1  0  -0.422617  0  1.951206  0  0  -0.379569  0  2.15855  0  0  -0.395942  0  2.156924  0  0  -0.234856  -0.368267  0  2.159586  0
O  O118  1  0.03357711  0.48856351  0.38704140  1  0  -0.654307  0  2.049156  0  0  -0.599509  0  2.31202  0  0  -0.626031  0  2.299647  0  0  -0.323163  -0.58077  0  2.319899  0
O  O119  1  0.96642270  0.51143660  0.61295888  1  0  -0.654306  0  2.049097  0  0  -0.599497  0  2.312004  0  0  -0.626018  0  2.299629  0  0  -0.32315  -0.580752  0  2.319878  0
O  O120  1  0.17494029  0.59642432  0.53517358  1  0  -0.608745  0  2.029697  0  0  -0.54159  0  2.288234  0  0  -0.570006  0  2.274643  0  0  -0.306801  -0.521526  0  2.296773  0
O  O121  1  0.82505673  0.40357579  0.46482673  1  0  -0.608712  0  2.02959  0  0  -0.541563  0  2.288189  0  0  -0.56997  0  2.27459  0  0  -0.30678  -0.521498  0  2.296726  0
O  O122  1  0.14793394  0.30439046  0.51478408  1  0  -0.649945  0  2.093271  0  0  -0.581488  0  2.361819  0  0  -0.60852  0  2.346117  0  0  -0.320334  -0.562758  0  2.372188  0
O  O123  1  0.85206329  0.69561141  0.48521227  1  0  -0.649905  0  2.093406  0  0  -0.581476  0  2.361948  0  0  -0.608504  0  2.346252  0  0  -0.320327  -0.562744  0  2.372316  0
O  O124  1  0.29231645  0.19044307  0.49132083  1  0  -0.61936  0  2.048902  0  0  -0.545111  0  2.318912  0  0  -0.573328  0  2.303953  0  0  -0.305726  -0.525613  0  2.328765  0
O  O125  1  0.70767017  0.80955457  0.50866318  1  0  -0.619203  0  2.048887  0  0  -0.544994  0  2.318877  0  0  -0.573208  0  2.303932  0  0  -0.305641  -0.525513  0  2.328775  0
