# generated using pymatgen
data_CuH11C17SN4O5
_symmetry_space_group_name_H-M   'P 1'
_cell_length_a   8.84738646
_cell_length_b   10.55366616
_cell_length_c   10.85507186
_cell_angle_alpha   78.58131881
_cell_angle_beta   75.36076590
_cell_angle_gamma   67.26114347
_symmetry_Int_Tables_number   1
_chemical_formula_structural   CuH11C17SN4O5
_chemical_formula_sum   'Cu2 H22 C34 S2 N8 O10'
_cell_volume   898.70889340
_cell_formula_units_Z   2
loop_
 _symmetry_equiv_pos_site_id
 _symmetry_equiv_pos_as_xyz
  1  'x, y, z'
loop_
 _atom_site_type_symbol
 _atom_site_label
 _atom_site_symmetry_multiplicity
 _atom_site_fract_x
 _atom_site_fract_y
 _atom_site_fract_z
 _atom_site_occupancy
 _atom_site_hle17_ddec_charge
 _atom_site_hle17_ddec_spin_density
 _atom_site_hle17_ddec_sum_bond_order
 _atom_site_hle17_magmom
 _atom_site_hse06_10hf_ddec_charge
 _atom_site_hse06_10hf_ddec_spin_density
 _atom_site_hse06_10hf_ddec_sum_bond_order
 _atom_site_hse06_10hf_magmom
 _atom_site_hse06_ddec_charge
 _atom_site_hse06_ddec_spin_density
 _atom_site_hse06_ddec_sum_bond_order
 _atom_site_hse06_magmom
 _atom_site_pbe_cm5_charge
 _atom_site_pbe_ddec_charge
 _atom_site_pbe_ddec_spin_density
 _atom_site_pbe_ddec_sum_bond_order
 _atom_site_pbe_magmom
Cu  Cu0  1  0.49999305  0.50000127  0.00000567  1  0.815586  0.003597  1.732512  0.003  0.749342  0.000527  2.129223  0.0  0.786529  0.000163  2.075326  0.0  0.708416  0.725652  0.001397  2.166456  0.001
Cu  Cu1  1  0.50000284  0.00000372  0.99999726  1  0.865617  0.663665  1.751547  0.481  0.852614  0.771793  2.131695  0.618  0.968632  0.849319  2.035796  0.719  0.721884  0.791279  0.713442  2.178679  0.549
H  H2  1  0.21543564  0.43738903  0.21423299  1  0.374487  7e-06  0.948303  0.0  0.336981  7e-06  1.025629  0.0  0.347813  3e-06  1.009666  0.0  0.268889  0.329408  9e-06  1.036798  0.0
H  H3  1  0.78460317  0.56262709  0.78576404  1  0.374508  7e-06  0.948273  0.0  0.337017  7e-06  1.025584  0.0  0.347849  3e-06  1.009621  0.0  0.268859  0.329442  9e-06  1.036754  0.0
H  H4  1  0.34787251  0.31972602  0.12785661  1  0.404067  5.3e-05  0.908322  0.0  0.374372  3.7e-05  0.972252  0.0  0.385705  4.2e-05  0.955172  0.0  0.271295  0.366312  2.9e-05  0.984374  0.0
H  H5  1  0.65215350  0.68028962  0.87213036  1  0.404041  5.3e-05  0.908299  0.0  0.374348  3.7e-05  0.972221  0.0  0.38568  4.2e-05  0.955143  0.0  0.271272  0.366296  2.9e-05  0.984331  0.0
H  H6  1  0.40542560  0.63614350  0.23969174  1  0.101703  -3.5e-05  0.937023  0.0  0.110293  -3.1e-05  0.995415  0.0  0.112982  -2.2e-05  0.993683  0.0  0.123694  0.108133  -3.6e-05  0.996919  0.0
H  H7  1  0.59456468  0.36385237  0.76031089  1  0.101796  -3.5e-05  0.936895  0.0  0.110377  -3.1e-05  0.995307  0.0  0.113071  -2.2e-05  0.993561  0.0  0.123705  0.108215  -3.6e-05  0.996809  0.0
H  H8  1  0.53135290  0.60432331  0.43140904  1  0.117829  4e-06  0.939857  0.0  0.127432  -5e-06  0.99883  0.0  0.1308  -2e-06  0.997908  0.0  0.114554  0.124985  -5e-06  0.999798  0.0
H  H9  1  0.46862805  0.39567260  0.56859834  1  0.117779  4e-06  0.939926  0.0  0.127408  -4e-06  0.998836  0.0  0.130782  -2e-06  0.997897  0.0  0.114572  0.124957  -5e-06  0.999822  0.0
H  H10  1  0.97786856  0.30554780  0.23968695  1  0.123709  -2.7e-05  0.942195  0.0  0.13408  -1.6e-05  1.001121  0.0  0.137822  -5e-06  0.999202  0.0  0.11343  0.131194  -2.8e-05  1.002908  0.0
H  H11  1  0.02212329  0.69446066  0.76031718  1  0.123644  -2.7e-05  0.942238  0.0  0.134019  -1.6e-05  1.001171  0.0  0.137762  -5e-06  0.999252  0.0  0.113396  0.131132  -2.8e-05  1.00296  0.0
H  H12  1  0.83549014  0.35515227  0.05565565  1  0.084016  1.7e-05  0.985079  0.0  0.093273  1.2e-05  1.048002  0.0  0.095217  1.5e-05  1.046963  0.0  0.120956  0.091892  9e-06  1.048624  0.0
H  H13  1  0.16449994  0.64484691  0.94435275  1  0.084029  1.8e-05  0.984903  0.0  0.093266  1.2e-05  1.047865  0.0  0.095217  1.5e-05  1.046821  0.0  0.120937  0.091878  9e-06  1.048482  0.0
H  H14  1  0.97455592  0.39207754  0.87299043  1  0.131486  0.000413  0.962641  0.0  0.14228  0.000414  1.02133  0.001  0.145295  0.000298  1.019932  0.0  0.115609  0.140006  0.000487  1.022546  0.001
H  H15  1  0.02544089  0.60791959  0.12701607  1  0.131498  0.000413  0.962605  0.0  0.142302  0.000413  1.02129  0.001  0.145317  0.000297  1.019892  0.0  0.115639  0.14003  0.000487  1.022504  0.001
H  H16  1  0.18556708  0.26656990  0.01220579  1  0.099128  0.000664  0.940586  0.001  0.108921  0.000629  1.00056  0.001  0.110649  0.000436  0.999227  0.001  0.121  0.107216  0.000757  1.0021  0.001
H  H17  1  0.81443225  0.73342404  0.98779811  1  0.09916  0.000664  0.940548  0.001  0.108959  0.000629  1.000505  0.001  0.110688  0.000436  0.999171  0.001  0.121028  0.107257  0.000757  1.002036  0.001
H  H18  1  0.28753318  0.11449330  0.58929261  1  0.113971  0.000275  0.933793  0.0  0.127941  0.000381  0.984723  0.0  0.131275  0.000271  0.983415  0.0  0.113149  0.125245  0.000419  0.986228  0.0
H  H19  1  0.71246496  0.88551398  0.41070491  1  0.113987  0.000276  0.933821  0.0  0.127937  0.000381  0.984764  0.0  0.131271  0.000271  0.983458  0.0  0.113145  0.125241  0.000419  0.986265  0.0
H  H20  1  0.48679477  0.00369539  0.73912001  1  0.108527  0.000829  0.935012  0.002  0.116582  0.000719  0.991628  0.002  0.120445  0.000477  0.986873  0.001  0.125088  0.113311  0.000883  0.995623  0.002
H  H21  1  0.51320687  0.99631186  0.26087492  1  0.108517  0.000829  0.93501  0.002  0.116566  0.000719  0.991641  0.002  0.12043  0.000477  0.986886  0.001  0.125071  0.113295  0.000883  0.995636  0.002
H  H22  1  0.13698015  0.86989098  0.81164811  1  0.100084  -2.9e-05  0.959112  0.0  0.108849  4.3e-05  1.022489  0.0  0.112103  3.1e-05  1.021377  0.0  0.102448  0.106558  6.5e-05  1.023339  0.0
H  H23  1  0.86301911  0.13009784  0.18835878  1  0.100116  -2.8e-05  0.959064  0.0  0.108867  4.3e-05  1.022466  0.0  0.112127  3.1e-05  1.021357  0.0  0.102447  0.106577  6.5e-05  1.023318  0.0
C  C24  1  0.53095268  0.56328777  0.24518770  1  0.140216  6e-05  3.656699  0.0  0.108024  -1.6e-05  3.91402  0.0  0.11602  -3e-06  3.929911  0.0  0.051402  0.102958  -2.4e-05  3.90324  0.0
C  C25  1  0.46903858  0.43671115  0.75481221  1  0.140004  5.7e-05  3.656654  0.0  0.107824  -1.6e-05  3.91397  0.0  0.115821  -4e-06  3.929866  0.0  0.051372  0.10276  -2.4e-05  3.903202  0.0
C  C26  1  0.60130845  0.54456718  0.35117528  1  -0.133427  -0.00036  3.674109  0.0  -0.155404  -0.000108  3.926297  0.0  -0.162094  -0.000159  3.94599  0.0  -0.073509  -0.150979  -9.4e-05  3.913004  0.0
C  C27  1  0.39868029  0.45543490  0.64882631  1  -0.133295  -0.000354  3.674074  0.0  -0.155236  -0.000107  3.926332  0.0  -0.161923  -0.000158  3.946029  0.0  -0.073475  -0.150817  -9.4e-05  3.91303  0.0
C  C28  1  0.76146178  0.44528476  0.35481397  1  0.086369  0.000176  3.798777  0.0  0.099749  3.5e-05  4.032618  0.0  0.103641  4.9e-05  4.054216  0.0  0.014114  0.097279  2.4e-05  4.017949  0.0
C  C29  1  0.23852561  0.55472042  0.64518722  1  0.086214  0.000173  3.798769  0.0  0.099447  3.5e-05  4.03285  0.0  0.103339  4.9e-05  4.054447  0.0  0.013945  0.096975  2.4e-05  4.018177  0.0
C  C30  1  0.84933859  0.37742274  0.24560858  1  -0.144653  -0.000369  3.681833  0.0  -0.161564  -0.000134  3.922004  0.0  -0.169033  -0.000147  3.942162  0.0  -0.074896  -0.157144  -8.3e-05  3.909089  0.0
C  C31  1  0.15065417  0.62258357  0.75439307  1  -0.144551  -0.00036  3.681846  0.0  -0.161415  -0.000135  3.922032  0.0  -0.168884  -0.000149  3.942194  0.0  -0.074828  -0.156996  -8.3e-05  3.909108  0.0
C  C32  1  0.77175412  0.40496706  0.14227066  1  0.137188  0.000135  3.68351  0.0  0.110481  2.5e-05  3.926135  0.0  0.11723  4.4e-05  3.944971  0.0  0.050654  0.106059  1.4e-05  3.913896  0.0
C  C33  1  0.22823604  0.59503725  0.85773475  1  0.137235  0.000128  3.6833  0.0  0.110553  2.5e-05  3.925889  0.0  0.117295  4.5e-05  3.944729  0.0  0.050677  0.106149  1.4e-05  3.913639  0.0
C  C34  1  0.83451219  0.41470527  0.46842133  1  0.088159  -0.001462  3.753344  -0.001  0.0772  -0.000444  4.043255  0.0  0.083387  -0.000597  4.059384  0.0  0.124518  0.073027  -0.000332  4.032235  0.0
C  C35  1  0.16547889  0.58529679  0.53157885  1  0.088216  -0.001463  3.753478  -0.001  0.077273  -0.000443  4.04346  0.0  0.083461  -0.000597  4.059589  0.0  0.124579  0.073104  -0.000332  4.032432  0.0
C  C36  1  0.99070224  0.32976657  0.63575702  1  0.111095  0.001674  3.700963  0.002  0.09615  0.000441  3.984443  0.001  0.103666  0.000491  3.999983  0.001  0.134131  0.091425  0.000432  3.974253  0.001
C  C37  1  0.00929098  0.67023862  0.36424202  1  0.111125  0.001673  3.700928  0.002  0.096144  0.00044  3.984393  0.001  0.103659  0.000491  3.999932  0.001  0.134152  0.091415  0.000432  3.974211  0.001
C  C38  1  0.11056196  0.26069963  0.72059583  1  0.090642  -0.009951  3.784291  -0.007  0.102525  -0.004059  4.025465  -0.002  0.106629  -0.004725  4.046097  -0.003  0.014035  0.099384  -0.003452  4.011908  -0.002
C  C39  1  0.88943655  0.73930150  0.27940481  1  0.090484  -0.009942  3.784533  -0.007  0.102489  -0.004061  4.025536  -0.002  0.106597  -0.004725  4.046168  -0.003  0.014018  0.09935  -0.003451  4.011985  -0.002
C  C40  1  0.08482502  0.30482828  0.84052851  1  -0.133171  0.008298  3.639296  0.009  -0.156189  0.003572  3.888313  0.004  -0.163356  0.003431  3.908777  0.004  -0.075272  -0.151766  0.003562  3.875058  0.004
C  C41  1  0.91517233  0.69517281  0.15947146  1  -0.133197  0.008288  3.639388  0.009  -0.156277  0.003571  3.888396  0.004  -0.163446  0.00343  3.908861  0.004  -0.075349  -0.15185  0.003562  3.875146  0.004
C  C42  1  0.20181537  0.23493772  0.91844480  1  0.130165  -0.008822  3.664307  -0.006  0.103462  -0.001872  3.922823  -0.001  0.11167  -0.003453  3.944545  -0.002  0.051096  0.098025  -0.000661  3.90987  0.0
C  C43  1  0.79818548  0.76506342  0.08155534  1  0.130132  -0.00881  3.664318  -0.006  0.103457  -0.001871  3.922811  -0.001  0.111666  -0.003452  3.944534  -0.002  0.051058  0.098028  -0.000661  3.909863  0.0
C  C44  1  0.25838953  0.15107976  0.68262193  1  -0.14794  0.008621  3.693639  0.009  -0.167528  0.003669  3.937955  0.004  -0.174692  0.003369  3.95634  0.004  -0.077269  -0.162947  0.003792  3.926063  0.004
C  C45  1  0.74161166  0.84892857  0.31737470  1  -0.147855  0.008613  3.69368  0.009  -0.167438  0.003671  3.937926  0.004  -0.174605  0.003369  3.956311  0.004  -0.077202  -0.162852  0.003792  3.926033  0.004
C  C46  1  0.37013786  0.08808702  0.76500840  1  0.14369  -0.009868  3.677095  -0.007  0.11716  -0.002666  3.927917  -0.002  0.1274  -0.004399  3.944332  -0.003  0.050414  0.110274  -0.001314  3.91845  -0.001
C  C47  1  0.62986020  0.91191512  0.23499119  1  0.143663  -0.009856  3.677239  -0.007  0.117114  -0.002666  3.92808  -0.002  0.127356  -0.004397  3.944493  -0.003  0.050398  0.110232  -0.001313  3.918618  -0.001
C  C48  1  0.33627442  0.79607921  0.98041508  1  0.651525  -0.000838  3.887305  0.0  0.599377  -0.000787  4.201919  0.0  0.634779  -0.000697  4.19351  0.0  0.214646  0.574912  -0.000838  4.208078  0.0
C  C49  1  0.66373244  0.20391874  0.01958080  1  0.651357  -0.00084  3.887553  0.0  0.599131  -0.000787  4.202249  0.0  0.634531  -0.000697  4.193851  0.0  0.214526  0.574669  -0.000839  4.208409  0.0
C  C50  1  0.16656496  0.90868428  0.99086574  1  -0.050544  -0.000867  3.733195  0.0  -0.046744  -0.000185  3.983344  0.0  -0.051382  -0.000259  4.004135  0.0  -0.01327  -0.043436  5.3e-05  3.969133  0.0
C  C51  1  0.83344755  0.09131680  0.00912824  1  -0.050643  -0.000856  3.733461  0.0  -0.046703  -0.000184  3.983479  0.0  -0.051332  -0.00026  4.004257  0.0  -0.013252  -0.0434  5.3e-05  3.969277  0.0
C  C52  1  0.08840468  0.98484074  0.09632779  1  -0.06151  -0.001647  3.737815  -0.001  -0.053498  -0.000664  3.98277  0.0  -0.056945  -0.000703  4.002042  0.0  -0.017217  -0.051192  -0.000287  3.969597  0.0
C  C53  1  0.91159797  0.01515624  0.90367196  1  -0.061471  -0.001658  3.737747  -0.001  -0.053531  -0.000664  3.982759  0.0  -0.056989  -0.000703  4.002022  0.0  -0.017253  -0.051217  -0.000288  3.969591  0.0
C  C54  1  0.17772471  0.98594028  0.19672553  1  0.634872  -0.008524  3.932006  -0.007  0.599928  -0.000296  4.237497  0.0  0.637734  0.000477  4.229711  0.001  0.191059  0.573797  -0.001026  4.241667  -0.001
C  C55  1  0.82227670  0.01405155  0.80327655  1  0.634933  -0.008523  3.931486  -0.007  0.599959  -0.000294  4.237036  0.0  0.637791  0.000476  4.229211  0.001  0.191022  0.573807  -0.001026  4.241239  -0.001
C  C56  1  0.07780137  0.92636668  0.89533712  1  -0.101742  0.00128  3.72867  0.001  -0.135329  7.9e-05  3.988735  0.0  -0.13649  -0.000149  4.008357  0.0  -0.089414  -0.134423  0.000371  3.975112  0.0
C  C57  1  0.92219699  0.07362409  0.10466584  1  -0.1017  0.001272  3.728828  0.001  -0.135323  7.9e-05  3.988836  0.0  -0.136497  -0.000148  4.008466  0.0  -0.089384  -0.134418  0.000371  3.975223  0.0
S  S58  1  0.99559726  0.26308795  0.50129050  1  0.192531  -0.00087  2.453349  -0.001  0.199497  -0.000416  2.756876  0.0  0.202438  -0.000496  2.755151  0.0  0.180978  0.196089  -0.000304  2.758781  0.0
S  S59  1  0.00438440  0.73690906  0.49871833  1  0.192576  -0.000869  2.453297  -0.001  0.199554  -0.000417  2.756829  0.0  0.202495  -0.000497  2.755104  0.0  0.180992  0.196146  -0.000304  2.758734  0.0
N  N60  1  0.61286589  0.49162603  0.14348888  1  -0.281465  -0.000136  3.287  0.0  -0.218265  -0.000188  3.567821  0.0  -0.234417  -0.000218  3.58032  0.0  -0.336702  -0.208304  -4.9e-05  3.560242  0.0
N  N61  1  0.38712751  0.50837611  0.85651262  1  -0.281436  -0.00013  3.28682  0.0  -0.218246  -0.000188  3.567634  0.0  -0.2344  -0.000218  3.580138  0.0  -0.336691  -0.208303  -4.9e-05  3.56006  0.0
N  N62  1  0.78264102  0.50108074  0.55651330  1  -0.206744  0.000477  3.029091  0.001  -0.19763  0.000119  3.319566  0.0  -0.20482  0.000102  3.335799  0.0  -0.205894  -0.192568  0.000116  3.308529  0.0
N  N63  1  0.21735283  0.49892042  0.44349017  1  -0.206742  0.000478  3.029104  0.001  -0.197621  0.00012  3.319571  0.0  -0.204812  0.000102  3.335804  0.0  -0.205884  -0.192561  0.000116  3.308537  0.0
N  N64  1  0.87161253  0.45309127  0.65056558  1  -0.203368  -0.00297  3.09968  -0.002  -0.162574  -0.001018  3.375507  -0.001  -0.172752  -0.001319  3.391708  -0.001  -0.186685  -0.155963  -0.000788  3.364952  -0.001
N  N65  1  0.12838365  0.54690985  0.34943557  1  -0.20334  -0.002969  3.099495  -0.002  -0.162537  -0.00102  3.37533  -0.001  -0.172713  -0.001319  3.391528  -0.001  -0.186691  -0.155925  -0.000789  3.364778  -0.001
N  N66  1  0.34095535  0.12697822  0.88244616  1  -0.294842  0.064565  3.306834  0.081  -0.245552  0.048661  3.596345  0.066  -0.279437  0.040172  3.620928  0.059  -0.33643  -0.227735  0.052046  3.582921  0.066
N  N67  1  0.65904253  0.87302705  0.11755371  1  -0.294817  0.064556  3.306935  0.081  -0.245537  0.048659  3.596446  0.066  -0.279422  0.04017  3.621028  0.059  -0.336381  -0.227721  0.052041  3.583029  0.066
O  O68  1  0.32956046  0.68173439  0.04629376  1  -0.583619  0.000171  2.089622  0.0  -0.540267  -6.3e-05  2.371372  0.0  -0.56795  -5.5e-05  2.35827  0.0  -0.309082  -0.521085  3.1e-05  2.380182  0.0
O  O69  1  0.67045598  0.31826598  0.95370876  1  -0.583514  0.000171  2.089485  0.0  -0.540175  -6.3e-05  2.371274  0.0  -0.567854  -5.5e-05  2.358171  0.0  -0.309045  -0.520999  3.1e-05  2.38009  0.0
O  O70  1  0.46318814  0.81351197  0.90767727  1  -0.606121  -0.001612  2.02825  0.0  -0.564723  -0.001756  2.270344  0.0  -0.592472  -0.002003  2.256695  -0.001  -0.29696  -0.546584  -0.001458  2.279591  0.0
O  O71  1  0.53680648  0.18648928  0.09229652  1  -0.605959  -0.001611  2.028404  0.0  -0.564537  -0.001757  2.270545  0.0  -0.592293  -0.002002  2.256906  -0.001  -0.296814  -0.546375  -0.001457  2.279757  0.0
O  O72  1  0.32565836  0.99331630  0.15725197  1  -0.621563  0.088824  2.080474  0.119  -0.605174  0.05548  2.368773  0.083  -0.656611  0.039101  2.359267  0.064  -0.33501  -0.572226  0.065565  2.373876  0.092
O  O73  1  0.67433350  0.00669204  0.84274850  1  -0.621603  0.088825  2.080385  0.119  -0.605205  0.055481  2.368714  0.083  -0.656652  0.039103  2.359199  0.064  -0.335022  -0.572245  0.065564  2.373813  0.092
O  O74  1  0.10512628  0.98731818  0.31128202  1  -0.583504  0.03813  1.855793  0.048  -0.573169  0.014131  2.074308  0.02  -0.600247  0.005783  2.067215  0.009  -0.340705  -0.550789  0.024529  2.076763  0.032
O  O75  1  0.89488223  0.01266533  0.68871854  1  -0.583512  0.038132  1.855587  0.048  -0.573179  0.014127  2.074126  0.02  -0.600263  0.005782  2.067019  0.009  -0.340666  -0.550787  0.024529  2.076579  0.032
O  O76  1  0.24333255  0.40191381  0.13054678  1  -0.851923  7.5e-05  1.831545  0.0  -0.811994  0.000116  2.009716  0.0  -0.829654  7.9e-05  1.976722  0.0  -0.614037  -0.798897  0.000167  2.032737  0.0
O  O77  1  0.75671285  0.59812185  0.86943899  1  -0.851903  7.5e-05  1.831394  0.0  -0.811965  0.000115  2.009482  0.0  -0.829623  7.9e-05  1.976492  0.0  -0.613985  -0.798873  0.000167  2.032495  0.0
