# generated using pymatgen
data_VH12C12SO6
_symmetry_space_group_name_H-M   'P 1'
_cell_length_a   6.75252349
_cell_length_b   12.52007796
_cell_length_c   16.86988952
_cell_angle_alpha   90.00013364
_cell_angle_beta   89.99986277
_cell_angle_gamma   90.00125259
_symmetry_Int_Tables_number   1
_chemical_formula_structural   VH12C12SO6
_chemical_formula_sum   'V4 H48 C48 S4 O24'
_cell_volume   1426.21623376
_cell_formula_units_Z   4
loop_
 _symmetry_equiv_pos_site_id
 _symmetry_equiv_pos_as_xyz
  1  'x, y, z'
loop_
 _atom_site_type_symbol
 _atom_site_label
 _atom_site_symmetry_multiplicity
 _atom_site_fract_x
 _atom_site_fract_y
 _atom_site_fract_z
 _atom_site_occupancy
 _atom_site_pbe_bader_charge
 _atom_site_pbe_bader_spin_density
 _atom_site_pbe_cm5_charge
 _atom_site_pbe_ddec_charge
 _atom_site_pbe_ddec_spin_density
 _atom_site_pbe_ddec_sum_bond_order
 _atom_site_pbe_magmom
V  V0  1  0.06881184  0.76859707  0.00123896  1  2.096863  0.773253  1.420632  1.826935  0.817449  3.013463  0.785
V  V1  1  0.43118698  0.23141084  0.50124278  1  2.096743  -0.773204  1.420636  1.826809  -0.8174  3.013808  -0.785
V  V2  1  0.93115489  0.26859091  0.49876184  1  2.09692  0.773252  1.420364  1.82651  0.817454  3.013961  0.785
V  V3  1  0.56882241  0.73141329  0.99876807  1  2.096778  -0.773302  1.420518  1.826752  -0.817496  3.013723  -0.785
H  H4  1  0.44963622  0.94404518  0.82670553  1  0.120438  -1.3e-05  0.114635  0.126785  9.7e-05  0.987617  0.0
H  H5  1  0.05041528  0.05595332  0.32671468  1  0.120535  1.3e-05  0.114651  0.126824  -9.7e-05  0.987249  0.0
H  H6  1  0.55038018  0.44405346  0.67329206  1  0.120418  -1.4e-05  0.114577  0.126695  9.7e-05  0.987604  0.0
H  H7  1  0.94959627  0.55596734  0.17330294  1  0.120327  1.4e-05  0.114625  0.126734  -9.7e-05  0.987432  0.0
H  H8  1  0.42216392  0.05366619  0.70388592  1  0.08902  7.2e-05  0.110709  0.117991  0.000177  1.006933  0.0
H  H9  1  0.07785432  0.94633194  0.20388953  1  0.088999  -7.2e-05  0.110654  0.117917  -0.000177  1.007087  0.0
H  H10  1  0.57783689  0.55366734  0.79611334  1  0.089038  7.2e-05  0.110701  0.11803  0.000177  1.006928  0.0
H  H11  1  0.92216986  0.44633226  0.29612405  1  0.089025  -7.2e-05  0.11073  0.117983  -0.000177  1.006849  0.0
H  H12  1  0.06540007  0.03041442  0.84831024  1  0.106113  -5.5e-05  0.102383  0.102144  -0.000153  1.042721  0.0
H  H13  1  0.43462908  0.96958894  0.34832662  1  0.105873  5.5e-05  0.102437  0.102286  0.000153  1.042683  0.0
H  H14  1  0.93461166  0.53040343  0.65167891  1  0.105689  -5.5e-05  0.10238  0.102251  -0.000153  1.042624  0.0
H  H15  1  0.56536641  0.46958535  0.15167989  1  0.105847  5.5e-05  0.102394  0.102161  0.000153  1.042817  0.0
H  H16  1  0.03710957  0.14199244  0.72496396  1  0.124314  -7e-06  0.114487  0.123332  -0.000103  0.97676  0.0
H  H17  1  0.46289668  0.85801693  0.22497418  1  0.123813  7e-06  0.114461  0.123425  0.000103  0.976632  0.0
H  H18  1  0.96287551  0.64197338  0.77503072  1  0.123996  -7e-06  0.11444  0.123345  -0.000103  0.976774  0.0
H  H19  1  0.53708547  0.35800779  0.27502026  1  0.123284  7e-06  0.114489  0.123422  0.000103  0.976824  0.0
H  H20  1  0.98746664  0.78028073  0.61499126  1  0.0357  3.7e-05  0.085365  0.042902  3.4e-05  1.026203  0.0
H  H21  1  0.51255314  0.21968158  0.11499598  1  0.035477  -3.7e-05  0.085368  0.042992  -3.4e-05  1.02622  0.0
H  H22  1  0.01252841  0.28028800  0.88500604  1  0.035367  3.7e-05  0.085387  0.042965  3.4e-05  1.026124  0.0
H  H23  1  0.48748717  0.71971307  0.38503082  1  0.035266  -3.7e-05  0.085332  0.042921  -3.4e-05  1.026098  0.0
H  H24  1  0.91538171  0.89869338  0.66726382  1  0.059867  -1.2e-05  0.09893  0.072591  -1e-05  0.996414  0.0
H  H25  1  0.58459626  0.10126031  0.16724871  1  0.059571  1.2e-05  0.09894  0.072805  1e-05  0.996357  0.0
H  H26  1  0.08460918  0.39870455  0.83273844  1  0.059826  -1.2e-05  0.098886  0.072652  -1e-05  0.996381  0.0
H  H27  1  0.41538452  0.60130515  0.33275595  1  0.060591  1.2e-05  0.098885  0.07254  1e-05  0.996397  0.0
H  H28  1  0.07466828  0.01240457  0.56344232  1  0.084735  2e-05  0.099531  0.12847  9.9e-05  0.995369  0.0
H  H29  1  0.42532718  0.98756917  0.06341961  1  0.084814  -2e-05  0.099459  0.128328  -9.9e-05  0.995443  0.0
H  H30  1  0.92532348  0.51240951  0.93656517  1  0.084619  2e-05  0.099496  0.128436  9.9e-05  0.995432  0.0
H  H31  1  0.57469717  0.48760330  0.43657566  1  0.084753  -2e-05  0.099429  0.12835  -9.9e-05  0.995546  0.0
H  H32  1  0.90033647  0.92379355  0.51925162  1  0.077407  8.5e-05  0.098519  0.116696  3.9e-05  0.981919  0.0
H  H33  1  0.59964839  0.07618845  0.01923882  1  0.078175  -8.4e-05  0.098508  0.116737  -3.8e-05  0.981837  0.0
H  H34  1  0.09965098  0.42380055  0.98074535  1  0.077556  8.5e-05  0.098436  0.116635  3.8e-05  0.981889  0.0
H  H35  1  0.40036693  0.57621119  0.48076639  1  0.077656  -8.5e-05  0.098469  0.116752  -3.9e-05  0.981784  0.0
H  H36  1  0.49206269  0.81355880  0.67510749  1  0.053291  8e-06  0.100704  0.074156  2e-06  0.973727  0.0
H  H37  1  0.00793056  0.18642008  0.17511394  1  0.053326  -8e-06  0.10075  0.074328  -2e-06  0.973675  0.0
H  H38  1  0.50791444  0.31356702  0.82488928  1  0.053605  8e-06  0.100757  0.074304  2e-06  0.9737  0.0
H  H39  1  0.99207140  0.68645822  0.32489621  1  0.053384  -8e-06  0.100723  0.074163  -2e-06  0.973674  0.0
H  H40  1  0.32707252  0.73063572  0.61940350  1  0.016904  1e-05  0.086406  0.044387  1e-05  1.019842  0.0
H  H41  1  0.17295218  0.26933979  0.11941826  1  0.016747  -1e-05  0.086468  0.044374  -1e-05  1.019829  0.0
H  H42  1  0.67291166  0.23064289  0.88058719  1  0.016573  1e-05  0.086395  0.04436  1e-05  1.019767  0.0
H  H43  1  0.82709307  0.76937933  0.38060152  1  0.017045  -1e-05  0.086374  0.044392  -1e-05  1.0199  0.0
H  H44  1  0.55176852  0.82697179  0.52866668  1  0.094621  2e-06  0.085169  0.085181  -8e-06  1.065558  0.0
H  H45  1  0.94823701  0.17303180  0.02867153  1  0.094665  -2e-06  0.085121  0.08515  8e-06  1.06566  0.0
H  H46  1  0.44822099  0.32696856  0.97133130  1  0.094555  2e-06  0.085169  0.085163  -8e-06  1.06553  0.0
H  H47  1  0.05180736  0.67303517  0.47133266  1  0.09445  -2e-06  0.085161  0.085207  8e-06  1.06576  0.0
H  H48  1  0.47815547  0.95335401  0.56941398  1  0.065684  -5e-06  0.093444  0.110448  4.7e-05  0.999446  0.0
H  H49  1  0.02182662  0.04663972  0.06941068  1  0.065688  5e-06  0.093403  0.110413  -4.7e-05  0.99935  0.0
H  H50  1  0.52184945  0.45335314  0.93058659  1  0.065851  -5e-06  0.093437  0.110442  4.7e-05  0.99938  0.0
H  H51  1  0.97815939  0.54666364  0.43057906  1  0.065828  5e-06  0.09344  0.110492  -4.7e-05  0.999505  0.0
C  C52  1  0.77772582  0.90391733  0.91037158  1  1.504533  0.000857  0.23376  0.622754  0.000806  4.109002  0.0
C  C53  1  0.72226982  0.09607942  0.41038361  1  1.504845  -0.000846  0.233748  0.622677  -0.000795  4.109278  0.0
C  C54  1  0.22228009  0.40392702  0.58961468  1  1.504588  0.000835  0.233767  0.622548  0.000784  4.109049  0.0
C  C55  1  0.27772853  0.59608515  0.08961926  1  1.504614  -0.000852  0.233659  0.622543  -0.000801  4.108938  0.0
C  C56  1  0.75947069  0.98036313  0.84381402  1  -0.026666  -0.000589  -0.011811  -0.036629  -0.000512  3.964528  0.0
C  C57  1  0.74055797  0.01961505  0.34383360  1  -0.026737  0.000585  -0.011699  -0.036339  0.00051  3.964121  0.0
C  C58  1  0.24054420  0.48038522  0.65617179  1  -0.026804  -0.000581  -0.011813  -0.036485  -0.000506  3.964152  0.0
C  C59  1  0.25943732  0.51962475  0.15617091  1  -0.026476  0.000584  -0.011742  -0.036628  0.000509  3.964256  0.0
C  C60  1  0.57662822  0.98860234  0.80451569  1  -0.008246  0.000241  -0.07638  -0.092425  0.000175  3.958209  0.0
C  C61  1  0.92339477  0.01138770  0.30452442  1  -0.008585  -0.000237  -0.07654  -0.092757  -0.000172  3.957684  0.0
C  C62  1  0.42336330  0.48859958  0.69548317  1  -0.008366  0.000235  -0.076379  -0.092401  0.00017  3.958004  0.0
C  C63  1  0.07660761  0.51140332  0.19548659  1  -0.008234  -0.000239  -0.076418  -0.0923  -0.000173  3.957879  0.0
C  C64  1  0.56148499  0.05003371  0.73630278  1  -0.019836  -0.000858  -0.077408  -0.093389  -0.000785  3.959624  -0.001
C  C65  1  0.93853400  0.94995693  0.23631023  1  -0.01979  0.000856  -0.077196  -0.09304  0.000783  3.95933  0.001
C  C66  1  0.43851864  0.55003949  0.76369351  1  -0.019403  -0.000852  -0.077323  -0.093345  -0.000779  3.959472  -0.001
C  C67  1  0.06149033  0.44997081  0.26369624  1  -0.019578  0.000855  -0.077423  -0.093373  0.000782  3.959695  0.001
C  C68  1  0.92551134  0.03700734  0.81638020  1  -0.011851  0.000852  -0.076007  -0.085957  0.000812  3.947484  0.001
C  C69  1  0.57450269  0.96298753  0.31639273  1  -0.011904  -0.000848  -0.07611  -0.086185  -0.000808  3.948336  -0.001
C  C70  1  0.07449769  0.53701810  0.68360955  1  -0.011624  0.000846  -0.075934  -0.08598  0.000806  3.947835  0.001
C  C71  1  0.42549698  0.46299355  0.18361198  1  -0.011635  -0.000849  -0.076047  -0.085962  -0.00081  3.948235  -0.001
C  C72  1  0.90975276  0.09881586  0.74827964  1  -0.064989  -8.4e-05  -0.071773  -0.077272  -7.3e-05  3.933993  0.0
C  C73  1  0.59024542  0.90119318  0.24829797  1  -0.064339  8.1e-05  -0.071771  -0.077446  7e-05  3.934487  0.0
C  C74  1  0.09024837  0.59882063  0.75170193  1  -0.064486  -7.7e-05  -0.071767  -0.077375  -6.6e-05  3.934623  0.0
C  C75  1  0.40974734  0.40117605  0.25169893  1  -0.064075  7.9e-05  -0.071813  -0.077502  6.9e-05  3.934683  0.0
C  C76  1  0.72911682  0.10345526  0.70706724  1  -0.055697  0.000552  -0.008841  -0.033954  0.000476  3.957961  0.0
C  C77  1  0.77088311  0.89653928  0.20707770  1  -0.055326  -0.000547  -0.008918  -0.034097  -0.000472  3.957797  0.0
C  C78  1  0.27087858  0.60345992  0.79292204  1  -0.055872  0.000545  -0.008945  -0.034208  0.00047  3.958027  0.0
C  C79  1  0.22912427  0.39654727  0.29292274  1  -0.055903  -0.000549  -0.008778  -0.033933  -0.000474  3.958015  0.0
C  C80  1  0.71751068  0.15983412  0.63003774  1  1.51212  -0.000873  0.234781  0.625163  -0.000771  4.10885  0.0
C  C81  1  0.78247346  0.84017057  0.13004810  1  1.511906  0.000873  0.234977  0.625397  0.00077  4.10882  0.0
C  C82  1  0.28247215  0.65984554  0.86994867  1  1.511818  -0.000857  0.234902  0.625475  -0.000754  4.108921  0.0
C  C83  1  0.21752131  0.34015789  0.36994395  1  1.511783  0.000865  0.234878  0.625312  0.000762  4.108968  0.0
C  C84  1  0.02861341  0.86402130  0.62811099  1  0.428846  8e-06  -0.07891  0.030064  4e-06  3.954444  0.0
C  C85  1  0.47139496  0.13594865  0.12810745  1  0.429207  -8e-06  -0.078846  0.029729  -4e-06  3.954888  0.0
C  C86  1  0.97138499  0.36403042  0.87189180  1  0.429115  8e-06  -0.078918  0.029813  4e-06  3.954708  0.0
C  C87  1  0.52862424  0.63597900  0.37190556  1  0.428478  -8e-06  -0.078888  0.0302  -4e-06  3.954327  0.0
C  C88  1  0.04154936  0.92800808  0.55149465  1  -0.13497  0.000179  -0.158975  -0.220562  0.000145  3.91775  0.0
C  C89  1  0.45844914  0.07197921  0.05149220  1  -0.135811  -0.000179  -0.158917  -0.220372  -0.000145  3.9177  0.0
C  C90  1  0.95843530  0.42801089  0.94850707  1  -0.135275  0.000179  -0.15888  -0.220438  0.000145  3.917825  0.0
C  C91  1  0.54157490  0.57199476  0.44852070  1  -0.135431  -0.000179  -0.158737  -0.220442  -0.000145  3.917793  0.0
C  C92  1  0.36842758  0.81427684  0.63266328  1  0.475034  2.3e-05  -0.07828  0.032623  2.1e-05  3.95601  0.0
C  C93  1  0.13157483  0.18570510  0.13267377  1  0.475459  -2.3e-05  -0.078428  0.032373  -2.1e-05  3.956436  0.0
C  C94  1  0.63155846  0.31427949  0.86732934  1  0.474948  2.3e-05  -0.078301  0.032493  2.1e-05  3.956081  0.0
C  C95  1  0.86844191  0.68574189  0.36734171  1  0.474678  -2.3e-05  -0.078264  0.032733  -2.1e-05  3.956063  0.0
C  C96  1  0.42974530  0.87121444  0.55680152  1  -0.171074  4.5e-05  -0.164465  -0.227995  3.6e-05  3.955643  0.0
C  C97  1  0.07025316  0.12878325  0.05680484  1  -0.17106  -4.6e-05  -0.164365  -0.227867  -3.6e-05  3.95555  0.0
C  C98  1  0.57025190  0.37120859  0.94319417  1  -0.171135  4.6e-05  -0.164404  -0.227915  3.6e-05  3.95565  0.0
C  C99  1  0.92976871  0.62880263  0.44320223  1  -0.170908  -4.5e-05  -0.164491  -0.228184  -3.6e-05  3.955793  0.0
S  S100  1  0.22931683  0.87472190  0.48528128  1  -0.04046  0.000312  -0.031361  -0.024816  0.000304  2.615273  0.0
S  S101  1  0.27067144  0.12528267  0.98527853  1  -0.040424  -0.000312  -0.031391  -0.024889  -0.000304  2.614894  0.0
S  S102  1  0.77066895  0.37471556  0.01471616  1  -0.040001  0.000312  -0.031401  -0.024818  0.000304  2.6153  0.0
S  S103  1  0.72933815  0.62528719  0.51472620  1  -0.040287  -0.000312  -0.031382  -0.024822  -0.000304  2.615484  0.0
O  O104  1  0.29831351  0.81047998  0.01126446  1  -0.851833  -0.062335  -0.610523  -0.780535  -0.057808  1.856498  -0.058
O  O105  1  0.20170153  0.18952316  0.51125299  1  -0.851647  0.062336  -0.61047  -0.780386  0.057811  1.856404  0.058
O  O106  1  0.70166970  0.31048383  0.48873761  1  -0.851954  -0.062322  -0.610383  -0.780197  -0.057805  1.856683  -0.058
O  O107  1  0.79830766  0.68952034  0.98874771  1  -0.851807  0.062328  -0.610474  -0.780406  0.057805  1.856453  0.058
O  O108  1  0.54731679  0.16765888  0.59739920  1  -1.138019  0.001312  -0.350785  -0.603576  0.002903  2.394247  0.015
O  O109  1  0.95265867  0.83234332  0.09740524  1  -1.137707  -0.001311  -0.350865  -0.603668  -0.0029  2.394064  -0.015
O  O110  1  0.45265599  0.66767723  0.90259256  1  -1.13762  0.001319  -0.350776  -0.603569  0.002903  2.394063  0.015
O  O111  1  0.04732541  0.33234147  0.40258976  1  -1.137633  -0.001313  -0.350886  -0.603658  -0.002897  2.393695  -0.015
O  O112  1  0.95080580  0.88315735  0.93691879  1  -1.133093  -0.001027  -0.347506  -0.595177  -0.002881  2.387821  -0.015
O  O113  1  0.54919708  0.11684427  0.43692092  1  -1.133202  0.001041  -0.347461  -0.595064  0.00289  2.3881  0.015
O  O114  1  0.04919484  0.38316409  0.56307159  1  -1.13312  -0.001044  -0.347431  -0.595061  -0.002893  2.38798  -0.015
O  O115  1  0.45078729  0.61684480  0.06306598  1  -1.13312  0.001027  -0.347351  -0.594936  0.00288  2.388211  0.015
O  O116  1  0.87966861  0.19395144  0.60014183  1  -1.123923  -0.003218  -0.345515  -0.582532  -0.004313  2.380255  -0.017
O  O117  1  0.62029054  0.80605955  0.10015879  1  -1.124127  0.003201  -0.345625  -0.582713  0.0043  2.379961  0.017
O  O118  1  0.12032299  0.69396421  0.89984642  1  -1.123912  -0.00321  -0.345523  -0.582669  -0.004304  2.380063  -0.017
O  O119  1  0.37967472  0.30604729  0.39984090  1  -1.123858  0.003214  -0.345486  -0.582581  0.004305  2.380072  0.017
O  O120  1  0.61740408  0.86108600  0.93513408  1  -1.126098  5.4e-05  -0.34774  -0.584912  0.001492  2.409888  0.014
O  O121  1  0.88258548  0.13892360  0.43513893  1  -1.126256  -3.1e-05  -0.347735  -0.584924  -0.001481  2.410228  -0.014
O  O122  1  0.38258975  0.36108396  0.56484974  1  -1.126097  2.1e-05  -0.347764  -0.584804  0.001473  2.41019  0.014
O  O123  1  0.11739237  0.63892334  0.06485987  1  -1.126153  -4.4e-05  -0.347746  -0.584812  -0.001491  2.409599  -0.014
O  O124  1  0.20855789  0.86637306  0.67287528  1  -1.038714  1.1e-05  -0.24319  -0.242933  1e-06  2.4372  0.0
O  O125  1  0.29144130  0.13359542  0.17287546  1  -1.039006  -1.1e-05  -0.243202  -0.242833  -1e-06  2.437556  0.0
O  O126  1  0.79144800  0.36638309  0.82712336  1  -1.038766  1.1e-05  -0.243177  -0.242866  1e-06  2.437388  0.0
O  O127  1  0.70856743  0.63363497  0.32713755  1  -1.038672  -1.1e-05  -0.243179  -0.243049  -1e-06  2.437513  0.0
