# generated using pymatgen
data_CdH56C84(BrN6)2
_symmetry_space_group_name_H-M   'P 1'
_cell_length_a   9.31692426
_cell_length_b   14.50201331
_cell_length_c   16.04930755
_cell_angle_alpha   82.03230467
_cell_angle_beta   81.52208991
_cell_angle_gamma   74.42052255
_symmetry_Int_Tables_number   1
_chemical_formula_structural   CdH56C84(BrN6)2
_chemical_formula_sum   'Cd1 H56 C84 Br2 N12'
_cell_volume   2054.80240045
_cell_formula_units_Z   1
loop_
 _symmetry_equiv_pos_site_id
 _symmetry_equiv_pos_as_xyz
  1  'x, y, z'
loop_
 _atom_site_type_symbol
 _atom_site_label
 _atom_site_symmetry_multiplicity
 _atom_site_fract_x
 _atom_site_fract_y
 _atom_site_fract_z
 _atom_site_occupancy
 _atom_site_pbe_bader_charge
 _atom_site_pbe_bader_spin_density
 _atom_site_pbe_cm5_charge
 _atom_site_pbe_ddec_charge
 _atom_site_pbe_ddec_spin_density
 _atom_site_pbe_ddec_sum_bond_order
 _atom_site_pbe_magmom
Cd  Cd0  1  0.49999990  0.99999995  0.49999951  1  1.113689  0  0.629609  0.63662  0  2.403068  0
H  H1  1  0.04365240  0.53326946  0.13519107  1  0.531715  0  0.314542  0.269282  0  0.995342  0
H  H2  1  0.95634991  0.46673054  0.86480725  1  0.531658  0  0.314518  0.26924  0  0.995309  0
H  H3  1  0.05313262  0.37768692  0.15144389  1  0.496814  0  0.312984  0.265752  0  1.004453  0
H  H4  1  0.94686976  0.62231306  0.84855692  1  0.496814  0  0.312979  0.265758  0  1.004452  0
H  H5  1  0.19256686  0.78888990  0.07104115  1  0.121803  0  0.106961  0.125468  0  1.01919  0
H  H6  1  0.80743818  0.21110865  0.92895709  1  0.121851  0  0.106947  0.125451  0  1.019229  0
H  H7  1  0.00144873  0.80780793  0.21458195  1  0.102029  0  0.10939  0.129876  0  1.002464  0
H  H8  1  0.99855526  0.19219062  0.78541764  1  0.101986  0  0.109384  0.129847  0  1.00246  0
H  H9  1  0.66854339  0.58834060  0.40258100  1  0.050844  0  0.101288  0.119229  0  1.01983  0
H  H10  1  0.33145435  0.41166012  0.59741953  1  0.050831  0  0.101282  0.119205  0  1.019861  0
H  H11  1  0.67694625  0.40066104  0.41685515  1  0.079452  0  0.101676  0.119703  0  1.021572  0
H  H12  1  0.32305862  0.59933820  0.58314739  1  0.079425  0  0.101701  0.119728  0  1.021661  0
H  H13  1  0.02980331  0.09726368  0.26086268  1  0.098288  0  0.106667  0.127478  0  1.013701  0
H  H14  1  0.97019880  0.90273701  0.73913868  1  0.098297  0  0.10668  0.127517  0  1.013665  0
H  H15  1  0.21355623  0.08101079  0.11574455  1  0.050642  0  0.106626  0.124066  0  1.037659  0
H  H16  1  0.78644426  0.91898847  0.88425714  1  0.050421  0  0.106623  0.124061  0  1.037756  0
H  H17  1  0.34989821  0.33565517  0.85907657  1  0.073393  0  0.100754  0.11791  0  1.025814  0
H  H18  1  0.65010061  0.66434268  0.14092296  1  0.073427  0  0.10075  0.117926  0  1.025824  0
H  H19  1  0.34309023  0.52301200  0.84588934  1  0.096252  0  0.102914  0.124393  0  1.014629  0
H  H20  1  0.65690508  0.47698656  0.15411167  1  0.09608  0  0.102914  0.124362  0  1.014603  0
H  H21  1  0.90046974  0.65521650  0.43576098  1  0.090046  0  0.111283  0.121921  0  0.983818  0
H  H22  1  0.09952445  0.34478207  0.56423889  1  0.090061  0  0.111258  0.121888  0  0.98384  0
H  H23  1  0.76582095  0.79735062  0.51540275  1  0.118695  0  0.099799  0.076808  0  1.042615  0
H  H24  1  0.23417569  0.20264723  0.48459698  1  0.118676  0  0.099786  0.076762  0  1.042611  0
H  H25  1  0.56075826  0.94290676  0.30675189  1  0.105336  0  0.097372  0.076829  0  1.055265  0
H  H26  1  0.43924948  0.05709608  0.69324682  1  0.105313  0  0.097376  0.076836  0  1.055263  0
H  H27  1  0.69290412  0.81047200  0.21664818  1  0.095118  0  0.101424  0.110175  0  1.048549  0
H  H28  1  0.30710115  0.18953158  0.78335004  1  0.095136  0  0.101443  0.110194  0  1.048546  0
H  H29  1  0.00115045  0.13464506  0.40330705  1  0.121326  0  0.093452  0.113865  0  1.051387  0
H  H30  1  0.99885026  0.86535636  0.59669311  1  0.121328  0  0.093466  0.11388  0  1.051364  0
H  H31  1  0.84013967  0.03027737  0.48410093  1  0.100999  0  0.103376  0.07985  0  1.023095  0
H  H32  1  0.15986078  0.96972190  0.51589890  1  0.100986  0  0.103379  0.079802  0  1.02311  0
H  H33  1  0.45939525  0.20217254  0.38633828  1  0.076548  0  0.101224  0.076589  0  1.043033  0
H  H34  1  0.54060351  0.79782819  0.61365966  1  0.076562  0  0.101223  0.0766  0  1.043024  0
H  H35  1  0.60007194  0.31653318  0.30525296  1  0.096363  0  0.109023  0.119181  0  0.99834  0
H  H36  1  0.39993065  0.68346609  0.69474542  1  0.096389  0  0.109006  0.119149  0  0.998309  0
H  H37  1  0.52768366  0.22126554  0.96707515  1  0.063404  0  0.099012  0.101417  0  1.028163  0
H  H38  1  0.47231390  0.77872726  0.03292699  1  0.063296  0  0.099081  0.101574  0  1.028064  0
H  H39  1  0.66786004  0.08659353  0.88293691  1  0.046925  0  0.098441  0.09513  0  1.001196  0
H  H40  1  0.33213045  0.91340073  0.11706571  1  0.046831  0  0.098437  0.095119  0  1.001206  0
H  H41  1  0.53621140  0.97093081  0.84693719  1  0.061654  0  0.09804  0.093955  0  1.029186  0
H  H42  1  0.46377919  0.02906851  0.15306043  1  0.061955  0  0.098021  0.093945  0  1.029189  0
H  H43  1  0.26366459  0.99313520  0.89404261  1  0.075637  0  0.094036  0.087626  0  1.040125  0
H  H44  1  0.73632268  0.00686701  0.10595372  1  0.075605  0  0.094063  0.087634  0  1.040113  0
H  H45  1  0.12214775  0.13154477  0.97252918  1  0.029893  0  0.095012  0.094927  0  1.02728  0
H  H46  1  0.87784312  0.86845670  0.02746940  1  0.030014  0  0.095019  0.0949  0  1.027286  0
H  H47  1  0.51838164  0.56820731  0.93905025  1  0.105815  0  0.098482  0.099995  0  1.035831  0
H  H48  1  0.48161575  0.43179414  0.06094773  1  0.105774  0  0.098463  0.099974  0  1.035826  0
H  H49  1  0.64680431  0.67036465  0.83585695  1  0.0777  0  0.099112  0.101369  0  1.020638  0
H  H50  1  0.35319784  0.32963603  0.16414628  1  0.077723  0  0.099086  0.101345  0  1.020685  0
H  H51  1  0.50542296  0.83298999  0.77804063  1  0.078181  0  0.093785  0.094833  0  1.029355  0
H  H52  1  0.49458241  0.16701070  0.22196043  1  0.078207  0  0.09377  0.094806  0  1.029403  0
H  H53  1  0.23023600  0.88883590  0.82366732  1  0.037877  0  0.097413  0.093736  0  1.004753  0
H  H54  1  0.76976602  0.11116769  0.17633120  1  0.03791  0  0.097374  0.093678  0  1.004774  0
H  H55  1  0.10252411  0.78678360  0.92859105  1  0.095718  0  0.091727  0.08684  0  1.063596  0
H  H56  1  0.89747654  0.21322071  0.07140752  1  0.09568  0  0.091724  0.086862  0  1.063594  0
C  C57  1  0.14260414  0.64562219  0.07650374  1  0.436624  0  0.103603  0.188263  0  3.999046  0
C  C58  1  0.85740041  0.35437492  0.92349598  1  0.43643  0  0.103511  0.188039  0  3.999129  0
C  C59  1  0.13206684  0.73761939  0.10371153  1  -0.111769  0  -0.097203  -0.181058  0  3.975129  0
C  C60  1  0.86793958  0.26237844  0.89628730  1  -0.111382  0  -0.097105  -0.180932  0  3.975294  0
C  C61  1  0.03458831  0.74724753  0.17702275  1  -0.030435  0  -0.098036  -0.182367  0  3.979669  0
C  C62  1  0.96541704  0.25275029  0.82297680  1  -0.030435  0  -0.098049  -0.182354  0  3.979787  0
C  C63  1  0.98417045  0.66081716  0.19777325  1  0.402518  0  0.103551  0.189985  0  4.013513  0
C  C64  1  0.01583245  0.33918139  0.80222644  1  0.402137  0  0.103593  0.190033  0  4.013535  0
C  C65  1  0.88447438  0.63977940  0.26808051  1  -0.013782  0  0.000768  -0.085411  0  3.929484  0
C  C66  1  0.11552905  0.36022059  0.73191895  1  -0.013798  0  0.000742  -0.085449  0  3.929536  0
C  C67  1  0.85178608  0.54989555  0.29332301  1  0.532111  0  0.089762  0.194251  0  4.060242  0
C  C68  1  0.14821275  0.45010516  0.70667804  1  0.532108  0  0.089802  0.194271  0  4.060331  0
C  C69  1  0.73987685  0.53415827  0.36386576  1  -0.126894  0  -0.109371  -0.187628  0  3.988607  0
C  C70  1  0.26012334  0.46584172  0.63613463  1  -0.126932  0  -0.109361  -0.187546  0  3.988507  0
C  C71  1  0.74319874  0.43910644  0.37061563  1  -0.023699  0  -0.110727  -0.190544  0  3.991357  0
C  C72  1  0.25680332  0.56089713  0.62938476  1  -0.023597  0  -0.110789  -0.190675  0  3.991379  0
C  C73  1  0.85588381  0.39766466  0.30339517  1  0.469795  0  0.090039  0.190165  0  4.060858  0
C  C74  1  0.14411830  0.60233603  0.69660620  1  0.469779  0  0.09004  0.190135  0  4.060806  0
C  C75  1  0.89764373  0.29865365  0.29237522  1  -0.014874  0  0.004098  -0.075884  0  3.9063  0
C  C76  1  0.10235836  0.70134705  0.70762552  1  -0.014819  0  0.004111  -0.075768  0  3.906066  0
C  C77  1  0.00480182  0.25563006  0.22848918  1  0.39282  0  0.107215  0.194598  0  3.991081  0
C  C78  1  0.99519512  0.74436994  0.77151213  1  0.392858  0  0.107206  0.194507  0  3.991085  0
C  C79  1  0.05801682  0.15529691  0.21704929  1  0.005851  0  -0.093751  -0.163246  0  3.969201  0
C  C80  1  0.94198231  0.84470308  0.78295244  1  0.005882  0  -0.093737  -0.163238  0  3.96924  0
C  C81  1  0.15234997  0.14679965  0.14273785  1  -0.035894  0  -0.097667  -0.184244  0  3.967362  0
C  C82  1  0.84764886  0.85320106  0.85726319  1  -0.035802  0  -0.097703  -0.184318  0  3.967597  0
C  C83  1  0.15771251  0.24164424  0.10488436  1  0.38013  0  0.104731  0.18176  0  4.011427  0
C  C84  1  0.84228631  0.75835647  0.89511607  1  0.38017  0  0.104702  0.181695  0  4.011517  0
C  C85  1  0.23297349  0.26649198  0.02585960  1  0.046215  0  0.00718  -0.066994  0  3.9141  0
C  C86  1  0.76702834  0.73350657  0.97414081  1  0.046153  0  0.007218  -0.066904  0  3.914117  0
C  C87  1  0.24056335  0.36090082  0.99291339  1  0.45577  0  0.092754  0.19176  0  4.046441  0
C  C88  1  0.75943467  0.63909917  0.00708720  1  0.455779  0  0.092734  0.19168  0  4.046621  0
C  C89  1  0.30870814  0.38445077  0.90768264  1  -0.101504  0  -0.10682  -0.183931  0  3.979647  0
C  C90  1  0.69129178  0.61554707  0.09231741  1  -0.101527  0  -0.106841  -0.183949  0  3.979891  0
C  C91  1  0.30572222  0.47943053  0.90099819  1  -0.086483  0  -0.103601  -0.173635  0  3.964682  0
C  C92  1  0.69427550  0.52057019  0.09900171  1  -0.085975  0  -0.10357  -0.173569  0  3.964836  0
C  C93  1  0.23640250  0.51330330  0.98245770  1  0.45051  0  0.091575  0.187696  0  4.041754  0
C  C94  1  0.76359902  0.48669597  0.01754140  1  0.45022  0  0.09154  0.187644  0  4.0418  0
C  C95  1  0.22356863  0.60735468  0.00252638  1  0.037826  0  0.007561  -0.061342  0  3.910842  0
C  C96  1  0.77643205  0.39264389  0.99747165  1  0.037868  0  0.007623  -0.061197  0  3.910761  0
C  C97  1  0.80730454  0.72082962  0.31910409  1  -0.031032  0  0.013253  0.126339  0  3.999856  0
C  C98  1  0.19269724  0.27917181  0.68089534  1  -0.030866  0  0.013318  0.126405  0  3.99979  0
C  C99  1  0.82650257  0.71780547  0.40461487  1  -0.025943  0  -0.084227  -0.179889  0  3.946288  0
C  C100  1  0.17349570  0.28219381  0.59538515  1  -0.025934  0  -0.084209  -0.179839  0  3.946264  0
C  C101  1  0.75151096  0.79599162  0.44922091  1  0.466473  0  0.037862  0.088492  0  3.968592  0
C  C102  1  0.24848595  0.20400838  0.55077916  1  0.466461  0  0.037881  0.088547  0  3.968607  0
C  C103  1  0.63954786  0.87843116  0.33219912  1  0.497893  0  0.037996  0.094845  0  3.948552  0
C  C104  1  0.36045690  0.12157097  0.66779995  1  0.497917  0  0.038065  0.094989  0  3.94862  0
C  C105  1  0.71203425  0.80402365  0.28279037  1  -0.051929  0  -0.085736  -0.179515  0  3.935556  0
C  C106  1  0.28797129  0.19597921  0.71720730  1  -0.052167  0  -0.085867  -0.179726  0  3.935792  0
C  C107  1  0.81297271  0.23530472  0.34736457  1  -0.032033  0  0.015226  0.131036  0  3.978932  0
C  C108  1  0.18702853  0.76469814  0.65263536  1  -0.031996  0  0.015308  0.131127  0  3.978753  0
C  C109  1  0.88069963  0.15328708  0.39870791  1  -0.028606  0  -0.088537  -0.182452  0  3.93014  0
C  C110  1  0.11929946  0.84671579  0.60129285  1  -0.028613  0  -0.088616  -0.182557  0  3.930167  0
C  C111  1  0.79258080  0.09449329  0.44296997  1  0.451546  0  0.039125  0.094045  0  3.958931  0
C  C112  1  0.20741857  0.90550885  0.55703086  1  0.451517  0  0.039156  0.094197  0  3.958921  0
C  C113  1  0.57861050  0.19186054  0.39069412  1  0.536673  0  0.036267  0.087207  0  3.976672  0
C  C114  1  0.42139044  0.80814018  0.60930423  1  0.536654  0  0.036288  0.087211  0  3.97669  0
C  C115  1  0.65760624  0.25483637  0.34530219  1  -0.046288  0  -0.083418  -0.174474  0  3.959392  0
C  C116  1  0.34239527  0.74516578  0.65469718  1  -0.046401  0  -0.083425  -0.17445  0  3.959349  0
C  C117  1  0.31532469  0.18577977  0.97552351  1  -0.065207  0  -0.006922  0.079688  0  3.989933  0
C  C118  1  0.68467709  0.81421878  0.02447504  1  -0.064971  0  -0.006893  0.079704  0  3.989745  0
C  C119  1  0.46974992  0.17208144  0.94934164  1  0.011215  0  -0.087481  -0.128091  0  3.958241  0
C  C120  1  0.53024657  0.82791423  0.05066212  1  0.011259  0  -0.087576  -0.128281  0  3.958118  0
C  C121  1  0.54816126  0.09573928  0.90294720  1  -0.064802  0  -0.093576  -0.085592  0  4.027889  0
C  C122  1  0.45183379  0.90425713  0.09705348  1  -0.06436  0  -0.093675  -0.085697  0  4.027907  0
C  C123  1  0.47490036  0.03082970  0.88287243  1  -0.061994  0  -0.089669  -0.077349  0  3.994805  0
C  C124  1  0.52509357  0.96916959  0.11712801  1  -0.062726  0  -0.089608  -0.077272  0  3.994697  0
C  C125  1  0.32175863  0.04349108  0.90917021  1  -0.047794  0  -0.09589  -0.081985  0  4.030971  0
C  C126  1  0.67823709  0.95650895  0.09082623  1  -0.047631  0  -0.095858  -0.081918  0  4.0311  0
C  C127  1  0.24252570  0.12044673  0.95439600  1  -0.006485  0  -0.094746  -0.143195  0  3.992497  0
C  C128  1  0.75746714  0.87955257  0.04560453  1  -0.006779  0  -0.094759  -0.143185  0  3.992601  0
C  C129  1  0.30111866  0.67034622  0.94190050  1  -0.041549  0  -0.009613  0.071808  0  4.004805  0
C  C130  1  0.69888067  0.32965307  0.05809818  1  -0.041542  0  -0.009617  0.071782  0  4.004859  0
C  C131  1  0.45477449  0.63862926  0.91402541  1  -0.032434  0  -0.088407  -0.126216  0  3.961315  0
C  C132  1  0.54522459  0.36137074  0.08597445  1  -0.032515  0  -0.088412  -0.126227  0  3.961338  0
C  C133  1  0.52746741  0.69688597  0.85587925  1  -0.070078  0  -0.093853  -0.080667  0  4.005676  0
C  C134  1  0.47253547  0.30311545  0.14412070  1  -0.070078  0  -0.093802  -0.080583  0  4.005703  0
C  C135  1  0.44840987  0.78809179  0.82430672  1  -0.034095  0  -0.092202  -0.080513  0  3.99709  0
C  C136  1  0.55159303  0.21190963  0.17569386  1  -0.033993  0  -0.092237  -0.080614  0  3.997204  0
C  C137  1  0.29517658  0.81983121  0.85084725  1  -0.108912  0  -0.09741  -0.087874  0  4.036326  0
C  C138  1  0.70482629  0.18017021  0.14915209  1  -0.108948  0  -0.097319  -0.087632  0  4.036176  0
C  C139  1  0.22256875  0.76217162  0.90955876  1  -0.067187  0  -0.097201  -0.140278  0  3.993795  0
C  C140  1  0.77743252  0.23782837  0.09044153  1  -0.067183  0  -0.097213  -0.140388  0  3.993858  0
Br  Br141  1  0.68761009  0.93480306  0.62671175  1  -0.665811  0  -0.331031  -0.554953  0  1.088953  0
Br  Br142  1  0.31239325  0.06519408  0.37328370  1  -0.665869  0  -0.331044  -0.554972  0  1.088932  0
N  N143  1  0.05404321  0.60136722  0.13627043  1  -1.276567  0  -0.373548  -0.260366  0  3.604869  0
N  N144  1  0.94596134  0.39862989  0.86372928  1  -1.276368  0  -0.373537  -0.260266  0  3.604775  0
N  N145  1  0.91903796  0.46645169  0.25690191  1  -1.162312  0  -0.35127  -0.415798  0  3.195599  0
N  N146  1  0.08096553  0.53354828  0.74310004  1  -1.162357  0  -0.351288  -0.415795  0  3.19571  0
N  N147  1  0.07048815  0.30459715  0.16033481  1  -1.204328  0  -0.377815  -0.272865  0  3.60666  0
N  N148  1  0.92951182  0.69540354  0.83966800  1  -1.204319  0  -0.377799  -0.272788  0  3.606658  0
N  N149  1  0.19283328  0.44087869  0.03630770  1  -1.163876  0  -0.348356  -0.415835  0  3.187674  0
N  N150  1  0.80716880  0.55912201  0.96369242  1  -1.163876  0  -0.348358  -0.415826  0  3.187752  0
N  N151  1  0.65847108  0.87488520  0.41415501  1  -1.235453  0  -0.325102  -0.227576  0  3.477546  0
N  N152  1  0.34153097  0.12511551  0.58584386  1  -1.235427  0  -0.325124  -0.227643  0  3.477589  0
N  N153  1  0.64452731  0.11235701  0.43829782  1  -1.239205  0  -0.329996  -0.226673  0  3.508579  0
N  N154  1  0.35547123  0.88764442  0.56170254  1  -1.239123  0  -0.330006  -0.226766  0  3.508659  0
