# generated using pymatgen
data_FeH16Pt(C11N4)2
_symmetry_space_group_name_H-M   'P 1'
_cell_length_a   8.96097393
_cell_length_b   9.72340004
_cell_length_c   11.95037106
_cell_angle_alpha   90.00036437
_cell_angle_beta   90.00056441
_cell_angle_gamma   101.09728538
_symmetry_Int_Tables_number   1
_chemical_formula_structural   FeH16Pt(C11N4)2
_chemical_formula_sum   'Fe2 H32 Pt2 C44 N16'
_cell_volume   1021.77987957
_cell_formula_units_Z   2
loop_
 _symmetry_equiv_pos_site_id
 _symmetry_equiv_pos_as_xyz
  1  'x, y, z'
loop_
 _atom_site_type_symbol
 _atom_site_label
 _atom_site_symmetry_multiplicity
 _atom_site_fract_x
 _atom_site_fract_y
 _atom_site_fract_z
 _atom_site_occupancy
 _atom_site_pbe_bader_spin_density
 _atom_site_pbe_cm5_charge
 _atom_site_pbe_ddec_charge
 _atom_site_pbe_ddec_spin_density
 _atom_site_pbe_ddec_sum_bond_order
 _atom_site_pbe_magmom
Fe  Fe0  1  0.00000079  0.50000165  0.00000130  1  0  0.827986  0.502257  0  3.765682  0
Fe  Fe1  1  0.99999624  0.00000004  0.49999987  1  0  0.828021  0.502306  0  3.765675  0
H  H2  1  0.47383173  0.49349239  0.70781201  1  0  0.106618  0.114241  0  1.022171  0
H  H3  1  0.52616025  0.00650938  0.20781140  1  0  0.106598  0.114206  0  1.022111  0
H  H4  1  0.52616998  0.50650309  0.29218833  1  0  0.106596  0.114205  0  1.022223  0
H  H5  1  0.47383362  0.99349134  0.79218559  1  0  0.106615  0.114227  0  1.022137  0
H  H6  1  0.94986906  0.64524203  0.77472673  1  0  0.118638  0.086097  0  1.016656  0
H  H7  1  0.05012669  0.85474802  0.27472861  1  0  0.118603  0.086065  0  1.016698  0
H  H8  1  0.05013128  0.35475764  0.22527361  1  0  0.118625  0.086093  0  1.016658  0
H  H9  1  0.94986831  0.14524746  0.72527257  1  0  0.118619  0.086069  0  1.01667  0
H  H10  1  0.72544397  0.64311402  0.65481665  1  0  0.103429  0.110014  0  1.026967  0
H  H11  1  0.27454680  0.85688107  0.15481852  1  0  0.103379  0.109942  0  1.027043  0
H  H12  1  0.27455572  0.35688251  0.34518285  1  0  0.103409  0.109981  0  1.026968  0
H  H13  1  0.72544664  0.14311756  0.84518266  1  0  0.103412  0.110004  0  1.026919  0
H  H14  1  0.32763996  0.18492011  0.02512559  1  0  0.092577  0.084013  0  1.047981  0
H  H15  1  0.67235207  0.31508813  0.52513009  1  0  0.09259  0.083977  0  1.047927  0
H  H16  1  0.67236150  0.81507956  0.97487809  1  0  0.092569  0.084001  0  1.047944  0
H  H17  1  0.32763957  0.68491259  0.47486942  1  0  0.092621  0.084041  0  1.047964  0
H  H18  1  0.55749802  0.22742192  0.14824658  1  0  0.10386  0.112173  0  1.037534  0
H  H19  1  0.44249549  0.27258028  0.64824999  1  0  0.103848  0.112181  0  1.037469  0
H  H20  1  0.44250478  0.77257880  0.85175544  1  0  0.103862  0.11214  0  1.037578  0
H  H21  1  0.55749593  0.72741940  0.35174784  1  0  0.103821  0.112118  0  1.037528  0
H  H22  1  0.32885596  0.31285442  0.84513896  1  0  0.101399  0.112757  0  1.035251  0
H  H23  1  0.67113544  0.18715194  0.34514287  1  0  0.101457  0.112861  0  1.03516  0
H  H24  1  0.67114640  0.68714421  0.15486389  1  0  0.101402  0.112726  0  1.035339  0
H  H25  1  0.32885620  0.81284878  0.65485663  1  0  0.101419  0.112776  0  1.035198  0
H  H26  1  0.85044458  0.31077648  0.13464829  1  0  0.300295  0.28246  0  0.951088  0
H  H27  1  0.14955364  0.18922243  0.63465079  1  0  0.300304  0.282466  0  0.951045  0
H  H28  1  0.14955955  0.68922528  0.86535288  1  0  0.300262  0.282399  0  0.95119  0
H  H29  1  0.85043979  0.81077620  0.36534871  1  0  0.300254  0.282394  0  0.951136  0
H  H30  1  0.81268181  0.46757824  0.16323931  1  0  0.295327  0.291614  0  0.978347  0
H  H31  1  0.18731686  0.03242097  0.66323876  1  0  0.295336  0.291611  0  0.97832  0
H  H32  1  0.18732099  0.53242248  0.83676271  1  0  0.295332  0.291643  0  0.978327  0
H  H33  1  0.81267546  0.96757766  0.33676074  1  0  0.295333  0.291624  0  0.978336  0
Pt  Pt34  1  0.00000958  0.00000314  0.00000000  1  0  0.526809  0.098709  0  4.732191  0
Pt  Pt35  1  0.00000621  0.50000113  0.49999833  1  0  0.526843  0.098773  0  4.732101  0
C  C36  1  0.87677298  0.04313488  0.12770398  1  0  -0.012038  0.032732  0  3.990696  0
C  C37  1  0.12323339  0.45686605  0.62770684  1  0  -0.012091  0.032677  0  3.990737  0
C  C38  1  0.12324297  0.95687003  0.87229385  1  0  -0.012014  0.032768  0  3.990576  0
C  C39  1  0.87677788  0.54313781  0.37229099  1  0  -0.012048  0.032735  0  3.990546  0
C  C40  1  0.69835733  0.43016471  0.92608791  1  0  0.109557  0.101395  0  3.948661  0
C  C41  1  0.30163669  0.06983306  0.42608932  1  0  0.109566  0.101536  0  3.948549  0
C  C42  1  0.30164391  0.56983391  0.07391411  1  0  0.10951  0.101355  0  3.948619  0
C  C43  1  0.69835473  0.93016661  0.57391019  1  0  0.109548  0.101338  0  3.948627  0
C  C44  1  0.56514049  0.41569683  0.85862755  1  0  -0.003642  0.046506  0  4.018513  0
C  C45  1  0.43485293  0.08430233  0.35862918  1  0  -0.003576  0.046701  0  4.018508  0
C  C46  1  0.43486165  0.58430074  0.14137363  1  0  -0.003657  0.046466  0  4.018428  0
C  C47  1  0.56513961  0.91569734  0.64136865  1  0  -0.003617  0.046638  0  4.018465  0
C  C48  1  0.57512999  0.49640855  0.75896143  1  0  -0.070746  -0.086586  0  3.929932  0
C  C49  1  0.42486167  0.00358852  0.25896257  1  0  -0.070805  -0.086732  0  3.930074  0
C  C50  1  0.42487282  0.50358693  0.24103974  1  0  -0.070681  -0.086537  0  3.929881  0
C  C51  1  0.57513310  0.99641115  0.74103610  1  0  -0.070782  -0.086635  0  3.92994  0
C  C52  1  0.84109268  0.58186702  0.79909612  1  0  0.055235  0.091763  0  3.907359  0
C  C53  1  0.15890277  0.91812538  0.29909746  1  0  0.05525  0.091798  0  3.9073  0
C  C54  1  0.15890946  0.41813055  0.20090422  1  0  0.055234  0.091729  0  3.907333  0
C  C55  1  0.84109156  0.08187219  0.70090372  1  0  0.055268  0.09176  0  3.907254  0
C  C56  1  0.71264876  0.57938795  0.73042831  1  0  -0.08854  -0.135396  0  4.003086  0
C  C57  1  0.28734518  0.92060688  0.23043061  1  0  -0.088413  -0.135166  0  4.003085  0
C  C58  1  0.28735294  0.42060753  0.26957119  1  0  -0.088533  -0.135346  0  4.002959  0
C  C59  1  0.71264803  0.07939070  0.76956889  1  0  -0.088504  -0.135346  0  4.002989  0
C  C60  1  0.69241545  0.36504658  0.03166779  1  0  0.085997  0.182442  0  3.964295  0
C  C61  1  0.30758163  0.13495334  0.53167033  1  0  0.085957  0.182313  0  3.96438  0
C  C62  1  0.30758735  0.63495414  0.96833422  1  0  0.08604  0.18249  0  3.964312  0
C  C63  1  0.69241068  0.86504528  0.46832833  1  0  0.085924  0.182329  0  3.964336  0
C  C64  1  0.43091719  0.25477127  0.99697213  1  0  -0.088183  -0.05652  0  4.001865  0
C  C65  1  0.56907387  0.24523458  0.49697559  1  0  -0.088272  -0.056541  0  4.001952  0
C  C66  1  0.56908517  0.74522735  0.00303072  1  0  -0.088239  -0.056538  0  4.001644  0
C  C67  1  0.43091643  0.75476509  0.50302475  1  0  -0.088233  -0.05662  0  4.001816  0
C  C68  1  0.56097694  0.27702990  0.06643420  1  0  -0.085971  -0.159068  0  3.956955  0
C  C69  1  0.43901866  0.22297143  0.56643482  1  0  -0.085889  -0.158942  0  3.95706  0
C  C70  1  0.43902564  0.72296977  0.93356865  1  0  -0.085988  -0.15914  0  3.957008  0
C  C71  1  0.56097499  0.77702824  0.43356217  1  0  -0.085908  -0.158902  0  3.956675  0
C  C72  1  0.43129796  0.32454294  0.89621226  1  0  -0.08849  -0.13122  0  3.943485  0
C  C73  1  0.56869357  0.17546081  0.39621535  1  0  -0.088574  -0.1315  0  3.943533  0
C  C74  1  0.56870440  0.67545568  0.10379059  1  0  -0.088407  -0.131048  0  3.943377  0
C  C75  1  0.43129807  0.82453991  0.60378415  1  0  -0.088525  -0.131277  0  3.943523  0
C  C76  1  0.98244033  0.80115665  0.04108894  1  0  -0.00906  0.021031  0  3.925542  0
C  C77  1  0.01756873  0.69884772  0.54108801  1  0  -0.009014  0.021018  0  3.9255  0
C  C78  1  0.01757137  0.19884931  0.95891307  1  0  -0.008971  0.021077  0  3.925426  0
C  C79  1  0.98243630  0.30115300  0.45891065  1  0  -0.009015  0.021047  0  3.925594  0
N  N80  1  0.80597959  0.07542026  0.20278013  1  0  -0.360437  -0.39294  0  3.063482  0
N  N81  1  0.19401970  0.42457412  0.70278669  1  0  -0.360424  -0.392948  0  3.06355  0
N  N82  1  0.19402813  0.92457731  0.79721519  1  0  -0.360472  -0.392978  0  3.063442  0
N  N83  1  0.80598978  0.57543184  0.29721448  1  0  -0.360442  -0.392939  0  3.063398  0
N  N84  1  0.83625720  0.50904581  0.89396660  1  0  -0.334579  -0.178326  0  3.600871  0
N  N85  1  0.16373813  0.99095073  0.39396752  1  0  -0.33458  -0.178487  0  3.600918  0
N  N86  1  0.16374559  0.49095490  0.10603457  1  0  -0.334549  -0.178285  0  3.600826  0
N  N87  1  0.83625530  0.00904790  0.60603282  1  0  -0.334556  -0.178254  0  3.600804  0
N  N88  1  0.82912624  0.40092109  0.09826297  1  0  -0.602443  -0.520325  0  3.450924  0
N  N89  1  0.17087052  0.09907848  0.59826432  1  0  -0.602436  -0.520294  0  3.450894  0
N  N90  1  0.17087656  0.59907962  0.90173821  1  0  -0.602437  -0.520305  0  3.451095  0
N  N91  1  0.82912090  0.90092119  0.40173518  1  0  -0.602395  -0.52027  0  3.451052  0
N  N92  1  0.98266864  0.68070660  0.04632278  1  0  -0.406199  -0.309342  0  3.606931  0
N  N93  1  0.01733247  0.81929678  0.54632247  1  0  -0.406245  -0.309333  0  3.606884  0
N  N94  1  0.01733726  0.31929831  0.95367756  1  0  -0.406298  -0.309394  0  3.60677  0
N  N95  1  0.98266363  0.18070394  0.45367787  1  0  -0.406238  -0.30933  0  3.60696  0
