# generated using pymatgen
data_AgBH7(C2N3)3
_symmetry_space_group_name_H-M   'P 1'
_cell_length_a   6.57138555
_cell_length_b   12.71988360
_cell_length_c   12.96860189
_cell_angle_alpha   90.00002044
_cell_angle_beta   89.99994426
_cell_angle_gamma   89.99971816
_symmetry_Int_Tables_number   1
_chemical_formula_structural   AgBH7(C2N3)3
_chemical_formula_sum   'Ag4 B4 H28 C24 N36'
_cell_volume   1084.00988826
_cell_formula_units_Z   4
loop_
 _symmetry_equiv_pos_site_id
 _symmetry_equiv_pos_as_xyz
  1  'x, y, z'
loop_
 _atom_site_type_symbol
 _atom_site_label
 _atom_site_symmetry_multiplicity
 _atom_site_fract_x
 _atom_site_fract_y
 _atom_site_fract_z
 _atom_site_occupancy
 _atom_site_hle17_bader_spin_density
 _atom_site_hle17_ddec_charge
 _atom_site_hle17_ddec_spin_density
 _atom_site_hle17_ddec_sum_bond_order
 _atom_site_hle17_magmom
 _atom_site_hse06_10hf_bader_spin_density
 _atom_site_hse06_10hf_ddec_charge
 _atom_site_hse06_10hf_ddec_spin_density
 _atom_site_hse06_10hf_ddec_sum_bond_order
 _atom_site_hse06_10hf_magmom
 _atom_site_hse06_bader_spin_density
 _atom_site_hse06_ddec_charge
 _atom_site_hse06_ddec_spin_density
 _atom_site_hse06_ddec_sum_bond_order
 _atom_site_hse06_magmom
 _atom_site_pbe_bader_spin_density
 _atom_site_pbe_cm5_charge
 _atom_site_pbe_ddec_charge
 _atom_site_pbe_ddec_spin_density
 _atom_site_pbe_ddec_sum_bond_order
 _atom_site_pbe_magmom
Ag  Ag0  1  0.96605541  0.21592766  0.10833839  1  0  0.458833  0  1.505029  0  0  0.29744  0  1.956588  0  0  0.326232  0  1.913885  0  0  0.456315  0.277534  0  1.986111  0
Ag  Ag1  1  0.46605845  0.78407357  0.89166206  1  0  0.458795  0  1.505063  0  0  0.297393  0  1.956621  0  0  0.326187  0  1.913917  0  0  0.456304  0.277489  0  1.986149  0
Ag  Ag2  1  0.46604709  0.71592741  0.39166058  1  0  0.458788  0  1.505136  0  0  0.297413  0  1.956693  0  0  0.326204  0  1.913989  0  0  0.45631  0.277506  0  1.986218  0
Ag  Ag3  1  0.96605612  0.28407145  0.60834141  1  0  0.458785  0  1.505064  0  0  0.297388  0  1.956618  0  0  0.326178  0  1.913916  0  0  0.4563  0.277479  0  1.986143  0
B  B4  1  0.69146414  0.02719281  0.26234809  1  0  0.506792  0  3.202345  0  0  0.320475  0  3.529824  0  0  0.340279  0  3.531872  0  0  -0.049625  0.306472  0  3.529943  0
B  B5  1  0.19146416  0.97280675  0.73765250  1  0  0.506706  0  3.202581  0  0  0.320432  0  3.530024  0  0  0.340208  0  3.532126  0  0  -0.049648  0.306438  0  3.530089  0
B  B6  1  0.19146221  0.52719173  0.23765095  1  0  0.506644  0  3.202651  0  0  0.320376  0  3.530073  0  0  0.340159  0  3.532173  0  0  -0.049655  0.306383  0  3.530138  0
B  B7  1  0.69146458  0.47280705  0.76234732  1  0  0.506747  0  3.202468  0  0  0.320461  0  3.529933  0  0  0.340229  0  3.532048  0  0  -0.049617  0.306485  0  3.529955  0
H  H8  1  0.57886849  0.53859789  0.79857717  1  0  -0.207821  0  0.908295  0  0  -0.168116  0  1.003899  0  0  -0.172702  0  1.002212  0  0  0.060327  -0.164944  0  1.00523  0
H  H9  1  0.07886834  0.46140117  0.20142116  1  0  -0.207796  0  0.908365  0  0  -0.168086  0  1.003951  0  0  -0.172677  0  1.002266  0  0  0.060361  -0.164916  0  1.005286  0
H  H10  1  0.07886682  0.03859708  0.70142332  1  0  -0.207792  0  0.908322  0  0  -0.168082  0  1.003913  0  0  -0.17267  0  1.002226  0  0  0.060347  -0.164909  0  1.005246  0
H  H11  1  0.57887153  0.96140198  0.29857732  1  0  -0.207839  0  0.908346  0  0  -0.168117  0  1.003945  0  0  -0.17271  0  1.002254  0  0  0.06034  -0.164942  0  1.005284  0
H  H12  1  0.20538689  0.43327257  0.00142732  1  0  0.088688  0  0.94323  0  0  0.099042  0  1.003521  0  0  0.100478  0  1.002737  0  0  0.131053  0.097979  0  1.004106  0
H  H13  1  0.70538486  0.56672460  0.99857172  1  0  0.088748  0  0.943242  0  0  0.09913  0  1.003498  0  0  0.100568  0  1.002711  0  0  0.131084  0.098067  0  1.004084  0
H  H14  1  0.70538360  0.93327424  0.49857108  1  0  0.088687  0  0.943249  0  0  0.099049  0  1.003521  0  0  0.100488  0  1.002734  0  0  0.131054  0.097986  0  1.004105  0
H  H15  1  0.20538358  0.06672371  0.50142872  1  0  0.088735  0  0.943261  0  0  0.099119  0  1.003521  0  0  0.100556  0  1.002735  0  0  0.131082  0.098057  0  1.004106  0
H  H16  1  0.67642591  0.28295944  0.89509329  1  0  0.099367  0  0.975148  0  0  0.100107  0  1.052145  0  0  0.103838  0  1.047897  0  0  0.131288  0.097354  0  1.055162  0
H  H17  1  0.17642503  0.71704095  0.10490730  1  0  0.099399  0  0.975162  0  0  0.100136  0  1.052154  0  0  0.103868  0  1.047905  0  0  0.131318  0.097384  0  1.055172  0
H  H18  1  0.17642423  0.78295831  0.60490647  1  0  0.099377  0  0.975064  0  0  0.100117  0  1.052068  0  0  0.103845  0  1.047822  0  0  0.131309  0.097366  0  1.055087  0
H  H19  1  0.67642366  0.21704051  0.39509566  1  0  0.099423  0  0.975206  0  0  0.100206  0  1.052153  0  0  0.103901  0  1.04794  0  0  0.131314  0.097453  0  1.055171  0
H  H20  1  0.15892080  0.96254792  0.00440384  1  0  0.082598  0  0.966751  0  0  0.086633  0  1.038264  0  0  0.088711  0  1.036516  0  0  0.124901  0.085106  0  1.039536  0
H  H21  1  0.65891925  0.03745566  0.99559367  1  0  0.082677  0  0.966667  0  0  0.08671  0  1.038188  0  0  0.088785  0  1.036444  0  0  0.124946  0.085185  0  1.039459  0
H  H22  1  0.65891772  0.46255223  0.49559691  1  0  0.08264  0  0.96672  0  0  0.086691  0  1.038212  0  0  0.088756  0  1.036479  0  0  0.124927  0.085165  0  1.039482  0
H  H23  1  0.15891777  0.53745371  0.50440370  1  0  0.082659  0  0.966687  0  0  0.086691  0  1.038205  0  0  0.088768  0  1.03646  0  0  0.124928  0.085164  0  1.039476  0
H  H24  1  0.70948711  0.81542876  0.18254856  1  0  0.08969  0  0.957569  0  0  0.096425  0  1.025678  0  0  0.099074  0  1.022495  0  0  0.132458  0.094425  0  1.028041  0
H  H25  1  0.20947926  0.18457233  0.81745047  1  0  0.089632  0  0.957616  0  0  0.096357  0  1.025726  0  0  0.099008  0  1.022539  0  0  0.132444  0.094356  0  1.028091  0
H  H26  1  0.20948826  0.31542721  0.31745365  1  0  0.089703  0  0.957582  0  0  0.096434  0  1.02569  0  0  0.099083  0  1.022509  0  0  0.132471  0.094434  0  1.028055  0
H  H27  1  0.70948420  0.68457388  0.68254847  1  0  0.089646  0  0.957602  0  0  0.096393  0  1.025683  0  0  0.099043  0  1.022499  0  0  0.132443  0.094393  0  1.02805  0
H  H28  1  0.48041752  0.33627922  0.10903251  1  0  0.08644  0  0.961122  0  0  0.090814  0  1.034722  0  0  0.093601  0  1.031061  0  0  0.12787  0.088737  0  1.037431  0
H  H29  1  0.98042239  0.66372040  0.89096870  1  0  0.086444  0  0.961041  0  0  0.090874  0  1.034602  0  0  0.093669  0  1.030927  0  0  0.127891  0.088799  0  1.037312  0
H  H30  1  0.98040684  0.83627771  0.39096572  1  0  0.086494  0  0.961086  0  0  0.090869  0  1.034674  0  0  0.093654  0  1.031017  0  0  0.127913  0.088794  0  1.037384  0
H  H31  1  0.48041938  0.16371877  0.60903472  1  0  0.086435  0  0.961062  0  0  0.090801  0  1.034682  0  0  0.093589  0  1.031021  0  0  0.127883  0.088724  0  1.037393  0
H  H32  1  0.25837117  0.05893736  0.24539032  1  0  0.099048  0  0.961336  0  0  0.101726  0  1.034518  0  0  0.104502  0  1.031304  0  0  0.136263  0.099701  0  1.036742  0
H  H33  1  0.75837062  0.94106125  0.75461101  1  0  0.099058  0  0.961327  0  0  0.101732  0  1.03452  0  0  0.10451  0  1.031302  0  0  0.136262  0.099707  0  1.036743  0
H  H34  1  0.75836532  0.55893580  0.25460870  1  0  0.09906  0  0.961363  0  0  0.101726  0  1.034555  0  0  0.104506  0  1.031334  0  0  0.136261  0.099701  0  1.036778  0
H  H35  1  0.25836887  0.44106281  0.74538954  1  0  0.09905  0  0.961332  0  0  0.101732  0  1.034509  0  0  0.104511  0  1.031292  0  0  0.136267  0.099707  0  1.036734  0
C  C36  1  0.06929754  0.41522952  0.95736848  1  0  0.183489  0  3.735232  0  0  0.137148  0  4.010657  0  0  0.147846  0  4.025244  0  0  0.135175  0.130192  0  4.000576  0
C  C37  1  0.56929568  0.58476879  0.04263139  1  0  0.183479  0  3.735295  0  0  0.137114  0  4.010705  0  0  0.14781  0  4.025294  0  0  0.135184  0.130155  0  4.000628  0
C  C38  1  0.56929514  0.91522945  0.54263060  1  0  0.183466  0  3.735201  0  0  0.137126  0  4.010634  0  0  0.147823  0  4.025222  0  0  0.135157  0.130171  0  4.000553  0
C  C39  1  0.06929656  0.08476807  0.45737081  1  0  0.183442  0  3.735235  0  0  0.137067  0  4.010648  0  0  0.147762  0  4.025239  0  0  0.13515  0.130111  0  4.000567  0
C  C40  1  0.80281603  0.33770192  0.90364392  1  0  0.190775  0  3.651044  0  0  0.129924  0  3.911849  0  0  0.144198  0  3.923009  0  0  0.155898  0.120713  0  3.904092  0
C  C41  1  0.30281569  0.66229893  0.09635584  1  0  0.190762  0  3.651041  0  0  0.129924  0  3.911833  0  0  0.144198  0  3.922992  0  0  0.155866  0.120712  0  3.904077  0
C  C42  1  0.30281589  0.83770157  0.59635580  1  0  0.190799  0  3.650907  0  0  0.129949  0  3.911716  0  0  0.144226  0  3.922876  0  0  0.155887  0.120737  0  3.903962  0
C  C43  1  0.80281279  0.16229771  0.40364627  1  0  0.190734  0  3.651073  0  0  0.129846  0  3.911832  0  0  0.14415  0  3.923018  0  0  0.155879  0.120648  0  3.904079  0
C  C44  1  0.03738328  0.94810534  0.05938281  1  0  0.184921  0  3.730234  0  0  0.141625  0  4.007632  0  0  0.152656  0  4.020786  0  0  0.133486  0.13449  0  3.99853  0
C  C45  1  0.53737866  0.05189776  0.94061477  1  0  0.184803  0  3.730189  0  0  0.141496  0  4.00759  0  0  0.152528  0  4.020745  0  0  0.133435  0.13436  0  3.998487  0
C  C46  1  0.53737422  0.44810806  0.44061568  1  0  0.184847  0  3.730303  0  0  0.141538  0  4.007693  0  0  0.152579  0  4.020853  0  0  0.133486  0.134402  0  3.998592  0
C  C47  1  0.03737859  0.55189661  0.55938267  1  0  0.184894  0  3.7302  0  0  0.141597  0  4.007588  0  0  0.152628  0  4.020742  0  0  0.133508  0.134462  0  3.998486  0
C  C48  1  0.81250776  0.87193701  0.14808145  1  0  0.198886  0  3.692703  0  0  0.141861  0  3.961829  0  0  0.155398  0  3.973617  0  0  0.158839  0.133228  0  3.953502  0
C  C49  1  0.31250039  0.12806382  0.85191830  1  0  0.199126  0  3.692612  0  0  0.142127  0  3.961733  0  0  0.155666  0  3.973519  0  0  0.158965  0.133492  0  3.953406  0
C  C50  1  0.31250580  0.37193625  0.35191919  1  0  0.198953  0  3.692699  0  0  0.141938  0  3.961826  0  0  0.155478  0  3.973607  0  0  0.158884  0.133304  0  3.953501  0
C  C51  1  0.81250387  0.62806380  0.64808134  1  0  0.199043  0  3.692691  0  0  0.142025  0  3.961819  0  0  0.155562  0  3.973605  0  0  0.158954  0.13339  0  3.953498  0
C  C52  1  0.47090084  0.25928718  0.14486983  1  0  0.215701  0  3.706517  0  0  0.158171  0  3.990777  0  0  0.171223  0  4.003217  0  0  0.146073  0.149503  0  3.982193  0
C  C53  1  0.97090504  0.74071246  0.85513217  1  0  0.215784  0  3.70633  0  0  0.158203  0  3.990553  0  0  0.17125  0  4.002994  0  0  0.146081  0.149536  0  3.981973  0
C  C54  1  0.97089174  0.75928565  0.35512916  1  0  0.215607  0  3.706645  0  0  0.158088  0  3.990916  0  0  0.171141  0  4.003354  0  0  0.146013  0.149417  0  3.982337  0
C  C55  1  0.47090044  0.24071399  0.64486975  1  0  0.215725  0  3.706518  0  0  0.158196  0  3.990783  0  0  0.171247  0  4.003227  0  0  0.146077  0.149528  0  3.982202  0
C  C56  1  0.35619807  0.12007380  0.21457665  1  0  0.206757  0  3.665458  0  0  0.145353  0  3.923794  0  0  0.160165  0  3.936511  0  0  0.165383  0.135882  0  3.914751  0
C  C57  1  0.85620109  0.87992456  0.78542386  1  0  0.206748  0  3.665458  0  0  0.145333  0  3.923815  0  0  0.160148  0  3.936522  0  0  0.16536  0.135863  0  3.914774  0
C  C58  1  0.85619520  0.62007146  0.28542157  1  0  0.206606  0  3.665584  0  0  0.145244  0  3.923891  0  0  0.160058  0  3.936603  0  0  0.165368  0.135774  0  3.914847  0
C  C59  1  0.35619787  0.37992532  0.71457662  1  0  0.206772  0  3.665467  0  0  0.14536  0  3.923813  0  0  0.160175  0  3.936524  0  0  0.165392  0.135887  0  3.914774  0
N  N60  1  0.95053219  0.32905230  0.97455592  1  0  -0.387275  0  3.253638  0  0  -0.308431  0  3.558645  0  0  -0.328732  0  3.568302  0  0  -0.363255  -0.294673  0  3.551502  0
N  N61  1  0.45053190  0.67094740  0.02544454  1  0  -0.387273  0  3.253745  0  0  -0.308429  0  3.558747  0  0  -0.32873  0  3.568406  0  0  -0.363234  -0.294671  0  3.551608  0
N  N62  1  0.45052914  0.82905114  0.52544295  1  0  -0.387239  0  3.253548  0  0  -0.308408  0  3.558571  0  0  -0.328709  0  3.568226  0  0  -0.363246  -0.294649  0  3.551434  0
N  N63  1  0.95053038  0.17094620  0.47455828  1  0  -0.387265  0  3.253627  0  0  -0.30842  0  3.558648  0  0  -0.328719  0  3.568297  0  0  -0.363231  -0.294659  0  3.551504  0
N  N64  1  0.81636945  0.97387976  0.17679852  1  0  -0.171735  0  3.498634  0  0  -0.072514  0  3.729925  0  0  -0.087925  0  3.753432  0  0  -0.128431  -0.062205  0  3.713944  0
N  N65  1  0.31636462  0.02612184  0.82320123  1  0  -0.171806  0  3.498719  0  0  -0.072619  0  3.730053  0  0  -0.088027  0  3.753559  0  0  -0.128446  -0.062315  0  3.714072  0
N  N66  1  0.31636450  0.47387899  0.32320138  1  0  -0.17181  0  3.498801  0  0  -0.072612  0  3.730098  0  0  -0.08802  0  3.753606  0  0  -0.128443  -0.062305  0  3.714113  0
N  N67  1  0.81636653  0.52612183  0.67679760  1  0  -0.171816  0  3.49881  0  0  -0.072614  0  3.730139  0  0  -0.08802  0  3.753646  0  0  -0.128478  -0.06231  0  3.714154  0
N  N68  1  0.96084432  0.02414132  0.11876354  1  0  -0.269233  0  3.069  0  0  -0.224812  0  3.359011  0  0  -0.236621  0  3.37075  0  0  -0.23777  -0.216781  0  3.350966  0
N  N69  1  0.46084251  0.97586071  0.88123615  1  0  -0.269208  0  3.068851  0  0  -0.224775  0  3.358857  0  0  -0.236582  0  3.370592  0  0  -0.237809  -0.216745  0  3.350813  0
N  N70  1  0.46083754  0.52414265  0.38123691  1  0  -0.269135  0  3.068981  0  0  -0.224708  0  3.358982  0  0  -0.236516  0  3.370716  0  0  -0.237812  -0.216677  0  3.350937  0
N  N71  1  0.96084168  0.47585938  0.61876200  1  0  -0.269228  0  3.068967  0  0  -0.224805  0  3.358972  0  0  -0.236612  0  3.370707  0  0  -0.237771  -0.216774  0  3.350929  0
N  N72  1  0.95066753  0.85215912  0.07501571  1  0  -0.398374  0  3.003654  0  0  -0.358546  0  3.282005  0  0  -0.374305  0  3.294239  0  0  -0.342756  -0.347919  0  3.273377  0
N  N73  1  0.45066135  0.14784293  0.92498320  1  0  -0.398437  0  3.003583  0  0  -0.358602  0  3.281921  0  0  -0.374361  0  3.294155  0  0  -0.342799  -0.347975  0  3.273289  0
N  N74  1  0.45066695  0.35216232  0.42498717  1  0  -0.398411  0  3.003675  0  0  -0.358596  0  3.282047  0  0  -0.374349  0  3.294268  0  0  -0.342789  -0.347969  0  3.27342  0
N  N75  1  0.95066193  0.64784130  0.57501561  1  0  -0.39843  0  3.003676  0  0  -0.358606  0  3.282037  0  0  -0.374363  0  3.294269  0  0  -0.34285  -0.347979  0  3.27341  0
N  N76  1  0.55980507  0.11652712  0.21877597  1  0  -0.167091  0  3.505699  0  0  -0.065684  0  3.730589  0  0  -0.081731  0  3.755737  0  0  -0.127087  -0.055016  0  3.713578  0
N  N77  1  0.05980586  0.88347277  0.78122622  1  0  -0.167076  0  3.505761  0  0  -0.065679  0  3.730661  0  0  -0.081721  0  3.755808  0  0  -0.127057  -0.055014  0  3.713648  0
N  N78  1  0.05979696  0.61652527  0.28122393  1  0  -0.166749  0  3.505659  0  0  -0.06537  0  3.730519  0  0  -0.081412  0  3.755668  0  0  -0.126977  -0.054707  0  3.713505  0
N  N79  1  0.55980636  0.38347384  0.71877440  1  0  -0.167063  0  3.505604  0  0  -0.065667  0  3.730508  0  0  -0.081709  0  3.755658  0  0  -0.127058  -0.055005  0  3.713493  0
N  N80  1  0.63566692  0.20635331  0.17412274  1  0  -0.258199  0  3.082056  0  0  -0.208055  0  3.379385  0  0  -0.221324  0  3.391398  0  0  -0.240006  -0.199042  0  3.371333  0
N  N81  1  0.13567152  0.79364639  0.82587942  1  0  -0.258256  0  3.082001  0  0  -0.208124  0  3.37936  0  0  -0.221393  0  3.391375  0  0  -0.240057  -0.199111  0  3.371313  0
N  N82  1  0.13566329  0.70635226  0.32587716  1  0  -0.258356  0  3.082129  0  0  -0.208226  0  3.379507  0  0  -0.221495  0  3.391515  0  0  -0.240076  -0.199213  0  3.37146  0
N  N83  1  0.63566906  0.29364508  0.67412114  1  0  -0.258208  0  3.081931  0  0  -0.208065  0  3.379268  0  0  -0.221332  0  3.391281  0  0  -0.240044  -0.199053  0  3.371221  0
N  N84  1  0.29407838  0.20869418  0.16867967  1  0  -0.39633  0  3.236585  0  0  -0.321642  0  3.545313  0  0  -0.342411  0  3.554734  0  0  -0.361021  -0.307463  0  3.538427  0
N  N85  1  0.79408214  0.79130513  0.83132163  1  0  -0.396346  0  3.236478  0  0  -0.32163  0  3.545197  0  0  -0.342405  0  3.554631  0  0  -0.361002  -0.307451  0  3.538314  0
N  N86  1  0.79407237  0.70869264  0.33132015  1  0  -0.396245  0  3.236713  0  0  -0.321574  0  3.545418  0  0  -0.342348  0  3.554846  0  0  -0.361009  -0.307395  0  3.538531  0
N  N87  1  0.29408206  0.29130666  0.66867962  1  0  -0.396317  0  3.236702  0  0  -0.321612  0  3.545416  0  0  -0.342381  0  3.554837  0  0  -0.361016  -0.307432  0  3.538528  0
N  N88  1  0.83225301  0.07530158  0.34628618  1  0  -0.16392  0  3.487049  0  0  -0.064148  0  3.728394  0  0  -0.079102  0  3.750169  0  0  -0.121425  -0.054309  0  3.713922  0
N  N89  1  0.33225366  0.92469762  0.65371588  1  0  -0.163989  0  3.487153  0  0  -0.064236  0  3.728518  0  0  -0.079187  0  3.750301  0  0  -0.121438  -0.054366  0  3.714006  0
N  N90  1  0.33225276  0.57530125  0.15371512  1  0  -0.163972  0  3.487153  0  0  -0.064229  0  3.728511  0  0  -0.079181  0  3.750298  0  0  -0.121458  -0.05436  0  3.713996  0
N  N91  1  0.83225695  0.42469795  0.84628385  1  0  -0.163971  0  3.487121  0  0  -0.064218  0  3.728485  0  0  -0.079166  0  3.75027  0  0  -0.121459  -0.054353  0  3.713969  0
N  N92  1  0.00292320  0.47575451  0.88072802  1  0  -0.27196  0  2.902206  0  0  -0.254762  0  3.17264  0  0  -0.263303  0  3.186767  0  0  -0.223959  -0.248965  0  3.163154  0
N  N93  1  0.50291872  0.52424317  0.11927034  1  0  -0.271982  0  2.902172  0  0  -0.25478  0  3.172602  0  0  -0.263319  0  3.186732  0  0  -0.223979  -0.248979  0  3.163112  0
N  N94  1  0.50292065  0.97575447  0.61927112  1  0  -0.271954  0  2.902213  0  0  -0.254749  0  3.172633  0  0  -0.263288  0  3.186763  0  0  -0.223952  -0.248948  0  3.163143  0
N  N95  1  0.00291975  0.02424321  0.38072956  1  0  -0.272004  0  2.902139  0  0  -0.254801  0  3.17255  0  0  -0.26334  0  3.186683  0  0  -0.223988  -0.248989  0  3.163068  0
