# generated using pymatgen
data_Zn2H5C7O8
_symmetry_space_group_name_H-M   'P 1'
_cell_length_a   10.91842627
_cell_length_b   11.01811583
_cell_length_c   11.02341675
_cell_angle_alpha   79.47446808
_cell_angle_beta   83.16412836
_cell_angle_gamma   90.23127963
_symmetry_Int_Tables_number   1
_chemical_formula_structural   Zn2H5C7O8
_chemical_formula_sum   'Zn4 H10 C14 O16'
_cell_volume   1294.08850177
_cell_formula_units_Z   2
loop_
 _symmetry_equiv_pos_site_id
 _symmetry_equiv_pos_as_xyz
  1  'x, y, z'
loop_
 _atom_site_type_symbol
 _atom_site_label
 _atom_site_symmetry_multiplicity
 _atom_site_fract_x
 _atom_site_fract_y
 _atom_site_fract_z
 _atom_site_occupancy
 _atom_site_pbe_bader_charge
 _atom_site_pbe_bader_spin_density
 _atom_site_pbe_cm5_charge
 _atom_site_pbe_ddec_charge
 _atom_site_pbe_ddec_spin_density
 _atom_site_pbe_ddec_sum_bond_order
 _atom_site_pbe_magmom
Zn  Zn0  1  0.39673153  0.60644498  0.39376958  1  1.311893  0  0.671943  0.967286  0  2.3617  0
Zn  Zn1  1  0.61312642  0.41141815  0.39234417  1  1.31131  0  0.675919  0.965622  0  2.353085  0
Zn  Zn2  1  0.39917697  0.37554812  0.62584482  1  1.316137  0  0.67236  0.973183  0  2.331548  0
Zn  Zn3  1  0.59306796  0.60175689  0.58343868  1  1.312058  0  0.674301  0.955495  0  2.414001  0
H  H4  1  0.58111530  0.97963049  0.60323640  1  0.133871  0  0.120871  0.160342  0  0.99159  0
H  H5  1  0.74270030  0.79679670  0.80871860  1  0.075196  0  0.097291  0.135944  0  0.985545  0
H  H6  1  0.99183763  0.39155438  0.61531064  1  0.078471  0  0.11692  0.13926  0  0.970671  0
H  H7  1  0.01531981  0.60369499  0.38673073  1  0.117808  0  0.125091  0.145599  0  0.961959  0
H  H8  1  0.36416807  0.95624578  0.34303852  1  0.604183  0  0.327858  0.36414  0  0.898664  0
H  H9  1  0.38985785  0.31368488  0.98090441  1  0.618968  0  0.324821  0.365146  0  0.900039  0
H  H10  1  0.74283946  0.65067801  0.01151254  1  0.061013  0  0.103455  0.064687  0  0.961888  0
H  H11  1  0.64166564  0.74903144  0.08742741  1  0.049878  0  0.097823  0.059652  0  0.974858  0
H  H12  1  0.63911432  0.89378851  0.88174762  1  0.05673  0  0.095794  0.130197  0  0.989817  0
H  H13  1  0.79206766  0.87622907  0.92231538  1  0.039167  0  0.096921  0.127319  0  0.994362  0
C  C14  1  0.83099519  0.52560375  0.47027362  1  1.590471  0  0.234168  0.657405  0  4.161259  0
C  C15  1  0.46869952  0.96859155  0.46418291  1  0.482976  0  0.067811  0.17104  0  4.112601  0
C  C16  1  0.52626640  0.03107429  0.53595618  1  0.027592  0  -0.104258  -0.330644  0  3.86272  0
C  C17  1  0.03438511  0.46248001  0.53971808  1  0.071985  0  -0.091181  -0.214793  0  3.918509  0
C  C18  1  0.67037678  0.71946213  0.99815879  1  0.37486  0  -0.063115  0.078824  0  3.905022  0
C  C19  1  0.71360620  0.82804935  0.89649711  1  -0.091051  0  -0.238986  -0.39279  0  3.974634  0
C  C20  1  0.96827880  0.53417095  0.46153838  1  -0.070393  0  -0.061075  -0.135493  0  3.864062  0
C  C21  1  0.47738254  0.46365663  0.96901293  1  0.555781  0  0.046248  0.034466  0  4.072482  0
C  C22  1  0.52346630  0.55156781  0.02482312  1  0.587109  0  0.077734  0.034698  0  3.975906  0
C  C23  1  0.17069001  0.47520598  0.52772908  1  1.518433  0  0.225198  0.654312  0  4.166616  0
C  C24  1  0.51622567  0.53389946  0.16463497  1  1.584412  0  0.230577  0.591717  0  4.178344  0
C  C25  1  0.48455871  0.47207670  0.83313090  1  1.547147  0  0.214158  0.559957  0  4.226265  0
C  C26  1  0.51926841  0.16718001  0.52762763  1  1.601323  0  0.237246  0.702177  0  4.121962  0
C  C27  1  0.48132173  0.83233445  0.47387775  1  1.556551  0  0.22392  0.551091  0  4.21332  0
O  O28  1  0.49985333  0.49785615  0.49861573  1  -1.232469  0  -0.570502  -1.032333  0  2.526045  0
O  O29  1  0.59408012  0.23226963  0.44294541  1  -1.151971  0  -0.309679  -0.53936  0  2.284627  0
O  O30  1  0.55506258  0.77757651  0.54503529  1  -1.167757  0  -0.305612  -0.518257  0  2.363998  0
O  O31  1  0.44185334  0.20586719  0.60683429  1  -1.164052  0  -0.3123  -0.548436  0  2.276076  0
O  O32  1  0.41501500  0.78363130  0.40581811  1  -1.16277  0  -0.313416  -0.553355  0  2.337676  0
O  O33  1  0.39558222  0.02328056  0.37962849  1  -1.107518  0  -0.353219  -0.413215  0  2.253819  0
O  O34  1  0.41668943  0.36134572  0.04051730  1  -1.114825  0  -0.366284  -0.421517  0  2.275456  0
O  O35  1  0.56535731  0.66291878  0.95873302  1  -1.031257  0  -0.173731  -0.158805  0  2.56935  0
O  O36  1  0.44465817  0.60582932  0.21595177  1  -1.16033  0  -0.308006  -0.534228  0  2.321991  0
O  O37  1  0.55025944  0.55779759  0.76192405  1  -1.164419  0  -0.312632  -0.528074  0  2.42162  0
O  O38  1  0.78647810  0.45861408  0.40291954  1  -1.157187  0  -0.308135  -0.539865  0  2.286774  0
O  O39  1  0.22361038  0.40033214  0.60672478  1  -1.150067  0  -0.316206  -0.549551  0  2.285475  0
O  O40  1  0.77224610  0.58838773  0.54319918  1  -1.166221  0  -0.309186  -0.538099  0  2.295955  0
O  O41  1  0.22296395  0.55908511  0.44104842  1  -1.175083  0  -0.319062  -0.557192  0  2.32318  0
O  O42  1  0.58515233  0.45294070  0.21676049  1  -1.148241  0  -0.301266  -0.521329  0  2.323887  0
O  O43  1  0.42358429  0.38616202  0.79879642  1  -1.169708  0  -0.320574  -0.562224  0  2.319832  0
