# generated using pymatgen
data_CoH26C32(N5O3)2
_symmetry_space_group_name_H-M   'P 1'
_cell_length_a   8.88179226
_cell_length_b   8.06224130
_cell_length_c   11.14330755
_cell_angle_alpha   68.26189823
_cell_angle_beta   83.23124931
_cell_angle_gamma   80.25511304
_symmetry_Int_Tables_number   1
_chemical_formula_structural   CoH26C32(N5O3)2
_chemical_formula_sum   'Co1 H26 C32 N10 O6'
_cell_volume   729.17371052
_cell_formula_units_Z   1
loop_
 _symmetry_equiv_pos_site_id
 _symmetry_equiv_pos_as_xyz
  1  'x, y, z'
loop_
 _atom_site_type_symbol
 _atom_site_label
 _atom_site_symmetry_multiplicity
 _atom_site_fract_x
 _atom_site_fract_y
 _atom_site_fract_z
 _atom_site_occupancy
 _atom_site_hle17_ddec_charge
 _atom_site_hle17_ddec_spin_density
 _atom_site_hle17_ddec_sum_bond_order
 _atom_site_hle17_magmom
 _atom_site_hse06_10hf_ddec_charge
 _atom_site_hse06_10hf_ddec_spin_density
 _atom_site_hse06_10hf_ddec_sum_bond_order
 _atom_site_hse06_10hf_magmom
 _atom_site_hse06_ddec_charge
 _atom_site_hse06_ddec_spin_density
 _atom_site_hse06_ddec_sum_bond_order
 _atom_site_hse06_magmom
 _atom_site_pbe_cm5_charge
 _atom_site_pbe_ddec_charge
 _atom_site_pbe_ddec_spin_density
 _atom_site_pbe_ddec_sum_bond_order
 _atom_site_pbe_magmom
Co  Co0  1  0.00001280  0.49999440  0.49999160  1  0.791445  1.153063  2.346884  1.053  0.781305  1.04846  2.771168  0.987  0.843938  1.032537  2.69805  0.98  0.646175  0.745923  1.054461  2.816404  0.986
H  H1  1  0.19017556  0.44749029  0.16128501  1  0.100885  -6.5e-05  0.966422  0.0  0.105535  -2.8e-05  1.039057  0.0  0.108952  -2e-05  1.036304  0.0  0.102839  0.103071  -2.6e-05  1.041311  0.0
H  H2  1  0.80975408  0.55254837  0.83870799  1  0.101056  -6.4e-05  0.966988  0.0  0.105738  -2.8e-05  1.039589  0.0  0.109157  -2e-05  1.036836  0.0  0.102992  0.103277  -2.6e-05  1.041845  0.0
H  H3  1  0.95772637  0.17422999  0.71850685  1  0.076332  -9.5e-05  0.997405  0.001  0.08015  -0.000286  1.07096  0.0  0.082982  -0.000208  1.067172  0.0  0.116248  0.077984  -0.000341  1.073681  0.0
H  H4  1  0.04227040  0.82576347  0.28145614  1  0.076502  -9.6e-05  0.997165  0.001  0.080384  -0.000286  1.070644  0.0  0.083234  -0.000208  1.066825  0.0  0.11634  0.078211  -0.000341  1.073373  0.0
H  H5  1  0.06161745  0.84614786  0.78084316  1  0.096547  -0.000469  0.969869  -0.001  0.106812  -5.3e-05  1.030034  0.0  0.108892  -5.1e-05  1.031391  0.0  0.101227  0.105019  -4.5e-05  1.029915  0.0
H  H6  1  0.93839035  0.15384623  0.21914026  1  0.096554  -0.000468  0.969889  -0.001  0.106938  -5.4e-05  1.029939  0.0  0.108949  -5.1e-05  1.03137  0.0  0.101251  0.105145  -4.5e-05  1.029822  0.0
H  H7  1  0.23298370  0.30540561  0.37967082  1  0.106204  -2.2e-05  0.953302  0.0  0.110122  -0.00025  1.022947  0.0  0.113846  -0.000182  1.017135  0.0  0.124101  0.107194  -0.000282  1.027376  0.0
H  H8  1  0.76704242  0.69458040  0.62030216  1  0.106084  -2.2e-05  0.953493  0.0  0.110004  -0.00025  1.023133  0.0  0.113727  -0.000182  1.017312  0.0  0.124008  0.107126  -0.000282  1.02751  0.0
H  H9  1  0.72461675  0.57005379  0.05680269  1  0.088163  5e-06  0.989715  0.0  0.094882  -8e-06  1.059588  0.0  0.097786  -2e-06  1.058316  0.0  0.09761  0.092563  -1.3e-05  1.061125  0.0
H  H10  1  0.27531092  0.43002106  0.94318710  1  0.088221  6e-06  0.98996  0.0  0.094968  -8e-06  1.059765  0.0  0.097849  -2e-06  1.058545  0.0  0.097708  0.09267  -1.3e-05  1.061239  0.0
H  H11  1  0.26385990  0.74827831  0.63428646  1  0.114445  3.8e-05  0.956877  0.001  0.12324  -0.000217  1.019105  0.0  0.127088  -0.000115  1.014734  0.0  0.1109  0.12007  -0.00032  1.022918  0.0
H  H12  1  0.73618951  0.25172468  0.36570998  1  0.114229  3.7e-05  0.956906  0.001  0.123147  -0.000218  1.019029  0.0  0.126925  -0.000115  1.014748  0.0  0.110814  0.119972  -0.00032  1.022855  0.0
H  H13  1  0.45738531  0.32738362  0.06064190  1  0.108307  6e-06  0.969151  0.0  0.117525  1e-06  1.03338  0.0  0.120633  0.0  1.032018  0.0  0.109187  0.115127  1e-06  1.034869  0.0
H  H14  1  0.54258771  0.67260678  0.93935986  1  0.108251  6e-06  0.969278  0.0  0.117536  1e-06  1.033443  0.0  0.120628  -0.0  1.032101  0.0  0.109207  0.115141  1e-06  1.034932  0.0
H  H15  1  0.63159002  0.72002647  0.31433116  1  0.320889  -5.2e-05  0.911208  0.0  0.297567  -2e-06  0.977146  0.0  0.306863  -2e-06  0.969401  0.0  0.321835  0.290869  -2.3e-05  0.982876  0.0
H  H16  1  0.36842681  0.27995883  0.68567245  1  0.320874  -5.2e-05  0.911211  0.0  0.29766  -2e-06  0.976969  0.0  0.306869  -2e-06  0.96937  0.0  0.321884  0.290963  -2.3e-05  0.982693  0.0
H  H17  1  0.24816937  0.65557100  0.32811353  1  0.373234  -2.2e-05  0.937805  0.0  0.335737  0.000243  1.029575  0.001  0.346283  0.000116  1.014347  0.0  0.277945  0.328662  0.000356  1.039708  0.001
H  H18  1  0.75185639  0.34440913  0.67186899  1  0.373513  -2.2e-05  0.937449  0.0  0.335991  0.000243  1.029218  0.001  0.346534  0.000116  1.013995  0.0  0.278049  0.328918  0.000356  1.03935  0.001
H  H19  1  0.86512901  0.96984339  0.88903906  1  0.068067  8e-06  0.951264  0.0  0.079106  -1e-06  1.013504  0.0  0.080938  5e-06  1.01263  0.0  0.111492  0.0781  -5e-06  1.013374  0.0
H  H20  1  0.13491937  0.03015579  0.11100150  1  0.068184  7e-06  0.95116  0.0  0.079194  -0.0  1.013423  0.0  0.081035  5e-06  1.012531  0.0  0.111553  0.078187  -5e-06  1.013294  0.0
H  H21  1  0.76684216  0.83623303  0.11621480  1  0.106183  -5.5e-05  0.998583  0.0  0.114491  -5.1e-05  1.063135  0.0  0.117487  -2.5e-05  1.062489  0.0  0.106119  0.112272  -8e-05  1.063747  0.0
H  H22  1  0.23317587  0.16377991  0.88382152  1  0.106308  -5.3e-05  0.99837  0.0  0.114574  -5.1e-05  1.06299  0.0  0.117577  -2.5e-05  1.06233  0.0  0.106191  0.112354  -8e-05  1.063604  0.0
H  H23  1  0.56384086  0.44169626  0.82959015  1  0.084777  3.1e-05  0.917049  0.0  0.095937  5.1e-05  0.974831  0.0  0.099147  3.5e-05  0.971668  0.0  0.119573  0.093648  5.9e-05  0.977334  0.0
H  H24  1  0.43614501  0.55828377  0.17041478  1  0.084796  2.8e-05  0.916988  0.0  0.095945  5.2e-05  0.974771  0.0  0.099154  3.5e-05  0.971611  0.0  0.119582  0.093658  5.9e-05  0.977273  0.0
H  H25  1  0.31122081  0.61377941  0.46348132  1  0.400342  0.000373  0.87963  0.001  0.370791  0.000588  0.961111  0.001  0.380493  0.000386  0.946609  0.001  0.292133  0.364521  0.000722  0.970391  0.001
H  H26  1  0.68878421  0.38623322  0.53650324  1  0.400266  0.000374  0.879654  0.001  0.370692  0.000588  0.961236  0.001  0.380402  0.000386  0.94672  0.001  0.292076  0.364422  0.000722  0.970517  0.001
C  C27  1  0.89480130  0.52825828  0.25101575  1  0.626754  -0.004372  3.889751  -0.002  0.580674  -0.002626  4.194197  -0.002  0.616905  -0.001668  4.186698  -0.001  0.212733  0.555893  -0.003519  4.198188  -0.002
C  C28  1  0.10517290  0.47174636  0.74899502  1  0.6271  -0.004367  3.88928  -0.002  0.580812  -0.002624  4.193883  -0.002  0.617053  -0.001667  4.186386  -0.001  0.21269  0.556007  -0.003515  4.197896  -0.002
C  C29  1  0.95115476  0.51219766  0.12175432  1  -0.062598  -0.001531  3.747727  -0.001  -0.040459  -0.000771  3.976463  0.0  -0.047176  -0.000581  3.998418  0.0  -0.019528  -0.035876  -0.000778  3.961225  0.0
C  C30  1  0.04877353  0.48784194  0.87824485  1  -0.062861  -0.001537  3.747967  -0.001  -0.040277  -0.000773  3.976279  0.0  -0.047025  -0.000582  3.998285  0.0  -0.019479  -0.035685  -0.000781  3.961041  0.0
C  C31  1  0.84515702  0.53988347  0.03030113  1  -0.088922  -0.000509  3.760968  0.0  -0.110087  -0.000265  4.008099  0.0  -0.112195  -0.000142  4.030182  0.0  -0.09123  -0.108389  -0.000379  3.993455  0.0
C  C32  1  0.15476890  0.46017233  0.96969343  1  -0.089129  -0.000508  3.761323  0.0  -0.1105  -0.000264  4.008569  0.0  -0.112607  -0.000142  4.030656  0.0  -0.091389  -0.108793  -0.000377  3.993926  0.0
C  C33  1  0.10712784  0.47126052  0.09042364  1  -0.073298  -0.000779  3.732076  0.0  -0.097017  -0.000413  3.983921  0.0  -0.096999  -0.000239  4.003886  0.0  -0.088206  -0.096929  -0.000545  3.970694  0.0
C  C34  1  0.89279834  0.52878587  0.90957228  1  -0.07352  -0.000781  3.733147  0.0  -0.097425  -0.000413  3.984788  0.0  -0.09741  -0.000238  4.004782  0.0  -0.088273  -0.09733  -0.000544  3.971547  0.0
C  C35  1  0.04343753  0.12494199  0.65724869  1  0.102812  -0.021282  3.686947  -0.014  0.067985  -0.007579  3.947001  -0.005  0.079833  -0.005181  3.960503  -0.003  0.035362  0.059915  -0.009281  3.939334  -0.006
C  C36  1  0.95657653  0.87504901  0.34272235  1  0.102886  -0.021283  3.686289  -0.014  0.06806  -0.007581  3.946237  -0.005  0.079894  -0.00518  3.959858  -0.003  0.035472  0.05999  -0.009284  3.938569  -0.006
C  C37  1  0.10269590  0.94395871  0.69086337  1  -0.121916  0.005943  3.762089  0.009  -0.131828  0.000693  4.016656  0.002  -0.140796  0.000703  4.03745  0.001  -0.091158  -0.126822  0.000443  4.004495  0.002
C  C38  1  0.89731375  0.05603802  0.30912194  1  -0.122241  0.005942  3.762205  0.009  -0.132301  0.000693  4.016923  0.002  -0.141191  0.000703  4.037702  0.001  -0.091311  -0.127296  0.000443  4.00476  0.002
C  C39  1  0.21409261  0.88904214  0.60927019  1  -0.029325  -0.023715  3.656161  -0.015  -0.060693  -0.008745  3.906024  -0.005  -0.052091  -0.005121  3.918459  -0.003  -0.06903  -0.066982  -0.011847  3.899385  -0.007
C  C40  1  0.78594055  0.11094820  0.39072627  1  -0.028883  -0.023708  3.656048  -0.015  -0.060361  -0.008744  3.906033  -0.005  -0.051706  -0.005119  3.918467  -0.003  -0.068947  -0.06665  -0.011845  3.899398  -0.007
C  C41  1  0.26166035  0.02015930  0.49407381  1  -0.036623  0.005053  3.773949  0.008  -0.01629  0.000551  4.009724  0.001  -0.023411  0.000609  4.030758  0.001  0.00023  -0.012611  0.000295  3.996507  0.001
C  C42  1  0.73836731  0.97983742  0.50592428  1  -0.036679  0.005056  3.773681  0.008  -0.016369  0.000552  4.009503  0.001  -0.023478  0.000609  4.030496  0.001  0.000294  -0.012692  0.000295  3.996297  0.001
C  C43  1  0.19639985  0.19972347  0.46635497  1  0.115743  -0.020266  3.603385  -0.014  0.075193  -0.007604  3.855165  -0.005  0.087272  -0.005269  3.867839  -0.003  0.054656  0.067236  -0.008775  3.848058  -0.005
C  C44  1  0.80362227  0.80026588  0.53362744  1  0.115843  -0.020278  3.603716  -0.014  0.075325  -0.007604  3.855423  -0.005  0.087462  -0.005267  3.868106  -0.003  0.05478  0.067331  -0.008774  3.848291  -0.005
C  C45  1  0.37887925  0.97577843  0.40310071  1  0.290613  -0.002261  3.813713  -0.002  0.267327  -0.000169  4.09211  0.0  0.277221  -0.000236  4.111027  0.0  0.214731  0.261222  -4.9e-05  4.078435  0.0
C  C46  1  0.62114414  0.02420827  0.59690647  1  0.290474  -0.002266  3.813785  -0.002  0.267194  -0.000169  4.092181  0.0  0.277081  -0.000236  4.11111  0.0  0.214612  0.261091  -4.9e-05  4.078505  0.0
C  C47  1  0.52895974  0.00158368  0.23618709  1  0.297538  -0.000839  3.783569  -0.001  0.263641  -7.8e-05  4.055716  0.0  0.276104  -0.000123  4.071354  0.0  0.221059  0.255667  -5.3e-05  4.044849  0.0
C  C48  1  0.47105159  0.99840790  0.76381998  1  0.297609  -0.000837  3.783296  -0.001  0.263722  -7.8e-05  4.055389  0.0  0.276186  -0.000124  4.071017  0.0  0.221057  0.255749  -5.3e-05  4.044524  0.0
C  C49  1  0.60197553  0.07196579  0.10673615  1  0.052404  0.000114  3.796648  0.0  0.069434  3.7e-05  4.025759  0.0  0.071516  3.4e-05  4.046851  0.0  0.014718  0.068148  1.8e-05  4.011141  0.0
C  C50  1  0.39802333  0.92803322  0.89327291  1  0.052239  0.000114  3.796656  0.0  0.069389  3.7e-05  4.025562  0.0  0.071471  3.4e-05  4.046651  0.0  0.014746  0.068105  1.8e-05  4.010945  0.0
C  C51  1  0.54781768  0.24616029  0.02414477  1  -0.143227  -0.000225  3.700044  0.0  -0.162717  -3.9e-05  3.943763  0.0  -0.168815  -5.3e-05  3.964802  0.0  -0.079803  -0.158771  -1.7e-05  3.930492  0.0
C  C52  1  0.45217204  0.75383189  0.97586047  1  -0.143225  -0.000221  3.699924  0.0  -0.162791  -3.9e-05  3.943576  0.0  -0.16888  -5.3e-05  3.964623  0.0  -0.079875  -0.158848  -1.7e-05  3.930309  0.0
C  C53  1  0.60788020  0.30894749  0.89703512  1  0.117716  6e-05  3.723641  0.0  0.090387  4.4e-05  3.982838  0.0  0.095894  4.7e-05  3.999174  0.0  0.044286  0.085928  1.1e-05  3.973229  0.0
C  C54  1  0.39210991  0.69104180  0.10297438  1  0.117856  6.2e-05  3.723392  0.0  0.090542  4.4e-05  3.982599  0.0  0.09605  4.6e-05  3.998931  0.0  0.044449  0.086083  1.1e-05  3.972992  0.0
C  C55  1  0.77449020  0.04757006  0.92902458  1  0.122299  8.9e-05  3.732313  0.0  0.09638  3.2e-05  3.987674  0.0  0.101858  3.7e-05  4.005208  0.0  0.043167  0.093377  3.5e-05  3.973935  0.0
C  C56  1  0.22553209  0.95243043  0.07099821  1  0.122158  8.7e-05  3.732361  0.0  0.096242  3.2e-05  3.98774  0.0  0.101721  3.6e-05  4.005271  0.0  0.043095  0.093239  3.5e-05  3.973999  0.0
C  C57  1  0.72021276  0.97209471  0.05719870  1  -0.153558  -0.000179  3.718326  0.0  -0.176129  -2.2e-05  3.966096  0.0  -0.182335  -2.7e-05  3.987564  0.0  -0.086546  -0.171407  -7.4e-05  3.950261  0.0
C  C58  1  0.27980166  0.02790579  0.94281851  1  -0.15353  -0.000185  3.718181  0.0  -0.176126  -2.2e-05  3.96592  0.0  -0.182339  -2.7e-05  3.987399  0.0  -0.086647  -0.171404  -7.4e-05  3.950085  0.0
N  N59  1  0.08908632  0.25173616  0.54602250  1  -0.250137  -0.013032  3.381112  -0.006  -0.201853  -0.01025  3.667238  -0.007  -0.227105  -0.008813  3.68279  -0.006  -0.341508  -0.187576  -0.01075  3.657984  -0.008
N  N60  1  0.91093428  0.74825598  0.45395667  1  -0.250204  -0.013028  3.381265  -0.006  -0.201924  -0.010249  3.667477  -0.007  -0.227305  -0.008813  3.683138  -0.006  -0.341572  -0.187646  -0.010748  3.658239  -0.008
N  N61  1  0.41855020  0.09724373  0.28585805  1  -0.455851  0.000654  2.925067  0.001  -0.428178  0.000101  3.197176  0.0  -0.443523  0.000118  3.209936  0.0  -0.329201  -0.417811  3e-05  3.18803  0.0
N  N62  1  0.58146338  0.90274795  0.71414880  1  -0.455881  0.000654  2.925033  0.001  -0.428266  0.000101  3.197228  0.0  -0.443605  0.000118  3.20998  0.0  -0.329288  -0.417896  3e-05  3.188081  0.0
N  N63  1  0.45866007  0.80982401  0.42824103  1  -0.260041  0.001716  2.867955  0.003  -0.242961  0.000625  3.133708  0.001  -0.251318  0.000502  3.147163  0.001  -0.211181  -0.237572  0.00056  3.124505  0.001
N  N64  1  0.54135882  0.19016274  0.57176205  1  -0.259697  0.001718  2.867816  0.003  -0.242604  0.000625  3.133548  0.001  -0.250959  0.000502  3.146982  0.001  -0.21104  -0.237215  0.00056  3.124343  0.001
N  N65  1  0.55351021  0.82939411  0.32167455  1  -0.204752  0.000411  3.41336  0.001  -0.142835  0.00021  3.650627  0.0  -0.157505  0.000167  3.668348  0.0  -0.250609  -0.133233  0.000236  3.639148  0.0
N  N66  1  0.44650450  0.17059783  0.67832853  1  -0.204832  0.00041  3.413344  0.001  -0.143041  0.00021  3.650635  0.0  -0.157659  0.000167  3.668426  0.0  -0.250606  -0.133435  0.000236  3.63916  0.0
N  N67  1  0.71962272  0.21211216  0.84842384  1  -0.311396  4e-06  3.136834  0.0  -0.258531  0.000142  3.394091  0.0  -0.270166  7.4e-05  3.409168  0.0  -0.310235  -0.250831  0.000215  3.384515  0.0
N  N68  1  0.28038892  0.78788435  0.15159098  1  -0.311365  4e-06  3.137162  0.0  -0.258505  0.000142  3.394416  0.0  -0.27014  7.4e-05  3.40949  0.0  -0.31029  -0.250805  0.000215  3.384839  0.0
O  O69  1  0.00146840  0.50841046  0.32508205  1  -0.562569  -0.017008  2.22985  -0.013  -0.528963  -0.005607  2.519544  -0.005  -0.568572  -0.00542  2.512459  -0.005  -0.295551  -0.501385  -0.004188  2.52277  -0.003
O  O70  1  0.99853486  0.49156015  0.67491195  1  -0.562639  -0.017006  2.229913  -0.013  -0.52909  -0.005606  2.5198  -0.005  -0.568701  -0.005419  2.512708  -0.005  -0.295604  -0.501554  -0.004188  2.523168  -0.003
O  O71  1  0.75235094  0.55948898  0.27525227  1  -0.616496  -0.001946  1.967559  -0.002  -0.572952  -0.00102  2.198189  -0.001  -0.595553  -0.000701  2.186845  0.0  -0.319185  -0.556906  -0.001314  2.205472  -0.001
O  O72  1  0.24763034  0.44051151  0.72479031  1  -0.616633  -0.001945  1.967043  -0.002  -0.573025  -0.001018  2.197704  -0.001  -0.595592  -0.0007  2.186367  0.0  -0.319135  -0.556988  -0.001312  2.205028  -0.001
O  O73  1  0.24224888  0.57396279  0.42041750  1  -0.795261  0.017692  1.966898  0.03  -0.76206  0.018536  2.192642  0.03  -0.782332  0.015076  2.158015  0.025  -0.572378  -0.746324  0.022489  2.214811  0.036
O  O74  1  0.75778463  0.42601086  0.57956681  1  -0.795412  0.017688  1.966646  0.03  -0.762118  0.018535  2.19243  0.03  -0.782396  0.015075  2.157797  0.025  -0.572373  -0.746387  0.022486  2.214608  0.036
