# generated using pymatgen
data_KH5(C4O)2
_symmetry_space_group_name_H-M   'P 1'
_cell_length_a   3.86337009
_cell_length_b   11.32082551
_cell_length_c   16.21987366
_cell_angle_alpha   93.43133801
_cell_angle_beta   90.00046100
_cell_angle_gamma   89.99960303
_symmetry_Int_Tables_number   1
_chemical_formula_structural   KH5(C4O)2
_chemical_formula_sum   'K4 H20 C32 O8'
_cell_volume   708.12934582
_cell_formula_units_Z   4
loop_
 _symmetry_equiv_pos_site_id
 _symmetry_equiv_pos_as_xyz
  1  'x, y, z'
loop_
 _atom_site_type_symbol
 _atom_site_label
 _atom_site_symmetry_multiplicity
 _atom_site_fract_x
 _atom_site_fract_y
 _atom_site_fract_z
 _atom_site_occupancy
 _atom_site_hle17_bader_spin_density
 _atom_site_hle17_ddec_charge
 _atom_site_hle17_ddec_spin_density
 _atom_site_hle17_ddec_sum_bond_order
 _atom_site_hle17_magmom
 _atom_site_hse06_10hf_bader_spin_density
 _atom_site_hse06_10hf_ddec_charge
 _atom_site_hse06_10hf_ddec_spin_density
 _atom_site_hse06_10hf_ddec_sum_bond_order
 _atom_site_hse06_10hf_magmom
 _atom_site_hse06_bader_spin_density
 _atom_site_hse06_ddec_charge
 _atom_site_hse06_ddec_spin_density
 _atom_site_hse06_ddec_sum_bond_order
 _atom_site_hse06_magmom
 _atom_site_pbe_bader_spin_density
 _atom_site_pbe_cm5_charge
 _atom_site_pbe_ddec_charge
 _atom_site_pbe_ddec_spin_density
 _atom_site_pbe_ddec_sum_bond_order
 _atom_site_pbe_magmom
K  K0  1  0.31473281  0.37725317  0.06353856  1  0  0.930099  0  0.527418  0  0  0.882153  0  0.723441  0  0  0.89858  0  0.698926  0  0  0.830992  0.869774  0  0.741041  0
K  K1  1  0.81474104  0.12274674  0.93645942  1  0  0.930097  0  0.527406  0  0  0.882128  0  0.72347  0  0  0.89856  0  0.698948  0  0  0.830987  0.869751  0  0.741069  0
K  K2  1  0.68525057  0.62274648  0.93646208  1  0  0.93006  0  0.52744  0  0  0.882113  0  0.723477  0  0  0.898547  0  0.698953  0  0  0.83096  0.869736  0  0.741076  0
K  K3  1  0.18526823  0.87725912  0.06353902  1  0  0.930105  0  0.527402  0  0  0.882163  0  0.723423  0  0  0.898587  0  0.698909  0  0  0.830981  0.869788  0  0.74102  0
H  H4  1  0.37633362  0.77594890  0.25308634  1  0  0.091046  0  0.958415  0  0  0.102608  0  1.0206  0  0  0.105493  0  1.018983  0  0  0.106863  0.100482  0  1.021902  0
H  H5  1  0.87633599  0.72405184  0.74691614  1  0  0.091082  0  0.958385  0  0  0.102644  0  1.020573  0  0  0.10553  0  1.018958  0  0  0.106886  0.100524  0  1.021864  0
H  H6  1  0.62366789  0.22405073  0.74691614  1  0  0.091077  0  0.958364  0  0  0.10263  0  1.020564  0  0  0.105516  0  1.018945  0  0  0.106868  0.100504  0  1.021867  0
H  H7  1  0.12366293  0.27594779  0.25308696  1  0  0.091065  0  0.958434  0  0  0.102627  0  1.020621  0  0  0.105512  0  1.019005  0  0  0.106877  0.100506  0  1.021913  0
H  H8  1  0.26031343  0.73666719  0.39936165  1  0  0.084284  0  0.955798  0  0  0.095565  0  1.019187  0  0  0.098281  0  1.018486  0  0  0.095802  0.093582  0  1.019812  0
H  H9  1  0.76032042  0.76333205  0.60063931  1  0  0.084337  0  0.955829  0  0  0.095613  0  1.019204  0  0  0.098329  0  1.018502  0  0  0.095822  0.093621  0  1.019839  0
H  H10  1  0.73968290  0.26332803  0.60063940  1  0  0.084331  0  0.955787  0  0  0.095648  0  1.01911  0  0  0.098361  0  1.018414  0  0  0.095829  0.093648  0  1.019753  0
H  H11  1  0.23968367  0.23666582  0.39936248  1  0  0.084271  0  0.955838  0  0  0.095551  0  1.019217  0  0  0.098264  0  1.018521  0  0  0.095799  0.09357  0  1.019841  0
H  H12  1  0.72088048  0.39045473  0.35925800  1  0  0.0831  0  0.976141  0  0  0.09436  0  1.040045  0  0  0.096616  0  1.040084  0  0  0.096566  0.09271  0  1.040189  0
H  H13  1  0.22088679  0.10954450  0.64073916  1  0  0.083087  0  0.976182  0  0  0.094352  0  1.040067  0  0  0.096608  0  1.040114  0  0  0.09658  0.092702  0  1.040209  0
H  H14  1  0.27911326  0.60954317  0.64073886  1  0  0.083092  0  0.976198  0  0  0.09435  0  1.040096  0  0  0.096608  0  1.040139  0  0  0.096567  0.092701  0  1.040239  0
H  H15  1  0.77911989  0.89045427  0.35925959  1  0  0.083065  0  0.976161  0  0  0.094319  0  1.040073  0  0  0.096574  0  1.040117  0  0  0.09656  0.09267  0  1.040213  0
H  H16  1  0.82750992  0.43031498  0.21413054  1  0  0.0823  0  0.991721  0  0  0.086542  0  1.068097  0  0  0.091068  0  1.063731  0  0  0.103568  0.08329  0  1.071211  0
H  H17  1  0.32751676  0.06968843  0.78586886  1  0  0.082191  0  0.991772  0  0  0.086481  0  1.068096  0  0  0.091005  0  1.06373  0  0  0.103558  0.083229  0  1.071211  0
H  H18  1  0.17248382  0.56968733  0.78586837  1  0  0.082262  0  0.991753  0  0  0.086516  0  1.068099  0  0  0.091041  0  1.063737  0  0  0.103548  0.083263  0  1.071216  0
H  H19  1  0.67249251  0.93031300  0.21413063  1  0  0.082258  0  0.991768  0  0  0.086522  0  1.068116  0  0  0.091047  0  1.063751  0  0  0.103561  0.08327  0  1.071231  0
H  H20  1  0.26966335  0.61095379  0.51090631  1  0  0.082872  0  0.960556  0  0  0.095655  0  1.023049  0  0  0.098312  0  1.02187  0  0  0.096754  0.093734  0  1.023995  0
H  H21  1  0.76966661  0.88904455  0.48909340  1  0  0.082858  0  0.960555  0  0  0.09564  0  1.02305  0  0  0.098296  0  1.021873  0  0  0.096733  0.093718  0  1.023994  0
H  H22  1  0.73033298  0.38904321  0.48909298  1  0  0.082895  0  0.960557  0  0  0.095652  0  1.02308  0  0  0.098317  0  1.021878  0  0  0.096744  0.093732  0  1.024023  0
H  H23  1  0.23033489  0.11095510  0.51090785  1  0  0.082899  0  0.960522  0  0  0.095633  0  1.023076  0  0  0.098303  0  1.021861  0  0  0.096727  0.093709  0  1.024027  0
C  C24  1  0.70651376  0.63042235  0.13590180  1  0  0.6741  0  3.955825  0  0  0.631128  0  4.249535  0  0  0.664573  0  4.240399  0  0  0.186634  0.60847  0  4.254874  0
C  C25  1  0.20650938  0.86957967  0.86409672  1  0  0.674127  0  3.955729  0  0  0.631109  0  4.24949  0  0  0.664556  0  4.24035  0  0  0.186666  0.608448  0  4.254836  0
C  C26  1  0.29348516  0.36957731  0.86409575  1  0  0.674072  0  3.955832  0  0  0.631035  0  4.249637  0  0  0.664481  0  4.2405  0  0  0.186626  0.608375  0  4.254979  0
C  C27  1  0.79348695  0.13042263  0.13590342  1  0  0.674209  0  3.955744  0  0  0.631186  0  4.249505  0  0  0.664634  0  4.240366  0  0  0.186689  0.608527  0  4.254847  0
C  C28  1  0.62148091  0.60748128  0.22425179  1  0  -0.07089  0  3.730127  0  0  -0.046976  0  3.958846  0  0  -0.05503  0  3.982524  0  0  -0.015093  -0.041771  0  3.94284  0
C  C29  1  0.12148086  0.89252004  0.77574776  1  0  -0.070913  0  3.73014  0  0  -0.046966  0  3.958847  0  0  -0.055019  0  3.982523  0  0  -0.015076  -0.041762  0  3.942847  0
C  C30  1  0.37852059  0.39251926  0.77574765  1  0  -0.070885  0  3.73016  0  0  -0.046971  0  3.958923  0  0  -0.055024  0  3.9826  0  0  -0.015101  -0.041765  0  3.94292  0
C  C31  1  0.87852065  0.10747872  0.22425283  1  0  -0.070946  0  3.730207  0  0  -0.046989  0  3.958907  0  0  -0.055042  0  3.982584  0  0  -0.015092  -0.041786  0  3.942906  0
C  C32  1  0.45639709  0.69236193  0.27703999  1  0  -0.057918  0  3.740659  0  0  -0.081519  0  3.988444  0  0  -0.08087  0  4.009265  0  0  -0.079079  -0.08171  0  3.974234  0
C  C33  1  0.95640472  0.80763953  0.72296083  1  0  -0.057911  0  3.740733  0  0  -0.081523  0  3.98851  0  0  -0.080876  0  4.009332  0  0  -0.079109  -0.081713  0  3.9743  0
C  C34  1  0.54359665  0.30763683  0.72296060  1  0  -0.057888  0  3.740585  0  0  -0.081491  0  3.988391  0  0  -0.080844  0  4.009214  0  0  -0.07908  -0.08168  0  3.97417  0
C  C35  1  0.04360196  0.19236100  0.27703985  1  0  -0.057921  0  3.740691  0  0  -0.08154  0  3.988474  0  0  -0.080893  0  4.009296  0  0  -0.079093  -0.08173  0  3.974266  0
C  C36  1  0.39207921  0.67012057  0.35909925  1  0  -0.123959  0  3.728707  0  0  -0.140661  0  3.976769  0  0  -0.145272  0  3.998547  0  0  -0.090505  -0.137535  0  3.961882  0
C  C37  1  0.89208103  0.82987662  0.64090064  1  0  -0.124091  0  3.728685  0  0  -0.14078  0  3.976743  0  0  -0.145391  0  3.99852  0  0  -0.090536  -0.137645  0  3.961861  0
C  C38  1  0.60792229  0.32987643  0.64090003  1  0  -0.124059  0  3.728661  0  0  -0.140784  0  3.976694  0  0  -0.145398  0  3.998477  0  0  -0.090533  -0.137642  0  3.961814  0
C  C39  1  0.10792565  0.17012215  0.35909934  1  0  -0.123914  0  3.728674  0  0  -0.140621  0  3.976709  0  0  -0.145236  0  3.998494  0  0  -0.090496  -0.137495  0  3.961824  0
C  C40  1  0.49319982  0.56256377  0.39166172  1  0  0.095798  0  3.822324  0  0  0.114786  0  4.049837  0  0  0.116559  0  4.074336  0  0  -0.010201  0.113731  0  4.03303  0
C  C41  1  0.99320354  0.93743762  0.60833794  1  0  0.095787  0  3.82217  0  0  0.114756  0  4.049711  0  0  0.116532  0  4.074206  0  0  -0.010242  0.113699  0  4.032903  0
C  C42  1  0.50679651  0.43743412  0.60833760  1  0  0.09576  0  3.822361  0  0  0.114784  0  4.049831  0  0  0.116558  0  4.074328  0  0  -0.010236  0.113727  0  4.033021  0
C  C43  1  0.00680314  0.06256380  0.39166216  1  0  0.095678  0  3.82239  0  0  0.114727  0  4.049814  0  0  0.116502  0  4.074312  0  0  -0.010229  0.113672  0  4.033009  0
C  C44  1  0.64804387  0.47614663  0.33730690  1  0  -0.108371  0  3.719215  0  0  -0.123366  0  3.958928  0  0  -0.127983  0  3.981718  0  0  -0.087327  -0.1203  0  3.943448  0
C  C45  1  0.14805784  0.02385364  0.66269263  1  0  -0.108349  0  3.71919  0  0  -0.123332  0  3.958907  0  0  -0.127954  0  3.981699  0  0  -0.08732  -0.120265  0  3.943425  0
C  C46  1  0.35194211  0.52385215  0.66269185  1  0  -0.108307  0  3.71921  0  0  -0.123308  0  3.958896  0  0  -0.127929  0  3.981684  0  0  -0.087318  -0.120243  0  3.943419  0
C  C47  1  0.85195661  0.97614601  0.33730739  1  0  -0.108266  0  3.719102  0  0  -0.123273  0  3.9588  0  0  -0.127891  0  3.981589  0  0  -0.087314  -0.120206  0  3.943316  0
C  C48  1  0.70891916  0.49819822  0.25546545  1  0  -0.077861  0  3.768143  0  0  -0.100588  0  4.017764  0  0  -0.100769  0  4.038943  0  0  -0.082668  -0.10014  0  4.003235  0
C  C49  1  0.20893634  0.00180456  0.74453492  1  0  -0.077765  0  3.768099  0  0  -0.100534  0  4.017709  0  0  -0.100715  0  4.038891  0  0  -0.082669  -0.100083  0  4.003175  0
C  C50  1  0.29106681  0.50180232  0.74453399  1  0  -0.077869  0  3.768179  0  0  -0.100594  0  4.017793  0  0  -0.100777  0  4.038974  0  0  -0.08264  -0.100148  0  4.003266  0
C  C51  1  0.79107810  0.99819686  0.25546518  1  0  -0.077852  0  3.768177  0  0  -0.100611  0  4.017792  0  0  -0.100792  0  4.038971  0  0  -0.082678  -0.100164  0  4.003267  0
C  C52  1  0.43467485  0.54461979  0.47867326  1  0  -0.115101  0  3.753456  0  0  -0.134986  0  4.004157  0  0  -0.137152  0  4.024737  0  0  -0.091422  -0.133379  0  3.989978  0
C  C53  1  0.93468044  0.95537818  0.52132675  1  0  -0.115051  0  3.753488  0  0  -0.134927  0  4.004178  0  0  -0.137097  0  4.024763  0  0  -0.091357  -0.13332  0  3.989995  0
C  C54  1  0.56532148  0.45537543  0.52132656  1  0  -0.115165  0  3.753501  0  0  -0.135045  0  4.004195  0  0  -0.137211  0  4.024786  0  0  -0.091393  -0.133441  0  3.990022  0
C  C55  1  0.06532624  0.04462147  0.47867389  1  0  -0.115145  0  3.753555  0  0  -0.135021  0  4.004246  0  0  -0.137182  0  4.024831  0  0  -0.091397  -0.133416  0  3.990063  0
O  O56  1  0.81782082  0.54350181  0.08958321  1  0  -0.784281  0  1.97824  0  0  -0.736755  0  2.223625  0  0  -0.760678  0  2.212192  0  0  -0.536601  -0.719822  0  2.230949  0
O  O57  1  0.31782919  0.95649908  0.91041671  1  0  -0.784293  0  1.978137  0  0  -0.73675  0  2.223553  0  0  -0.760676  0  2.212118  0  0  -0.536618  -0.719817  0  2.230881  0
O  O58  1  0.18217033  0.45649873  0.91041562  1  0  -0.78427  0  1.978137  0  0  -0.736724  0  2.22356  0  0  -0.76065  0  2.212127  0  0  -0.536584  -0.719792  0  2.230889  0
O  O59  1  0.68218008  0.04350500  0.08958289  1  0  -0.784373  0  1.978279  0  0  -0.736834  0  2.223692  0  0  -0.760756  0  2.212258  0  0  -0.53664  -0.719901  0  2.23102  0
O  O60  1  0.66377240  0.73444957  0.11149488  1  0  -0.785185  0  1.969503  0  0  -0.737913  0  2.217081  0  0  -0.761696  0  2.20418  0  0  -0.524278  -0.721084  0  2.225484  0
O  O61  1  0.16376320  0.76555431  0.88850549  1  0  -0.785158  0  1.969512  0  0  -0.73788  0  2.217133  0  0  -0.761665  0  2.204224  0  0  -0.52427  -0.721053  0  2.22554  0
O  O62  1  0.33622651  0.26555273  0.88850526  1  0  -0.785141  0  1.969583  0  0  -0.737833  0  2.217197  0  0  -0.761617  0  2.204293  0  0  -0.524265  -0.721005  0  2.225601  0
O  O63  1  0.83622537  0.23445064  0.11149723  1  0  -0.785168  0  1.969482  0  0  -0.737877  0  2.217086  0  0  -0.761662  0  2.204184  0  0  -0.524283  -0.721048  0  2.22549  0
