# generated using pymatgen
data_CdH15C20N11O6
_symmetry_space_group_name_H-M   'P 1'
_cell_length_a   12.38345109
_cell_length_b   14.74914784
_cell_length_c   17.22000162
_cell_angle_alpha   106.85266033
_cell_angle_beta   104.98698687
_cell_angle_gamma   90.72762665
_symmetry_Int_Tables_number   1
_chemical_formula_structural   CdH15C20N11O6
_chemical_formula_sum   'Cd4 H60 C80 N44 O24'
_cell_volume   2894.58708611
_cell_formula_units_Z   4
loop_
 _symmetry_equiv_pos_site_id
 _symmetry_equiv_pos_as_xyz
  1  'x, y, z'
loop_
 _atom_site_type_symbol
 _atom_site_label
 _atom_site_symmetry_multiplicity
 _atom_site_fract_x
 _atom_site_fract_y
 _atom_site_fract_z
 _atom_site_occupancy
 _atom_site_pbe_bader_charge
 _atom_site_pbe_bader_spin_density
 _atom_site_pbe_cm5_charge
 _atom_site_pbe_ddec_charge
 _atom_site_pbe_ddec_spin_density
 _atom_site_pbe_ddec_sum_bond_order
 _atom_site_pbe_magmom
Cd  Cd0  1  0.89667210  0.26351998  0.26026723  1  1.262465  0  0.848796  0.859372  0  2.237664  0
Cd  Cd1  1  0.10332482  0.73648937  0.73973918  1  1.262671  0  0.848795  0.859311  0  2.237767  0
Cd  Cd2  1  0.58440797  0.79199212  0.66337357  1  1.276485  0  0.83457  0.881977  0  2.190803  0
Cd  Cd3  1  0.41558707  0.20800868  0.33662872  1  1.276433  0  0.834589  0.881967  0  2.190868  0
H  H4  1  0.72154766  0.97338539  0.74911301  1  0.614751  0  0.330538  0.412607  0  0.857869  0
H  H5  1  0.27843881  0.02662592  0.25087560  1  0.61447  0  0.330542  0.412627  0  0.857917  0
H  H6  1  0.61906662  0.97847507  0.67567299  1  0.660094  0  0.300019  0.397204  0  0.930199  0
H  H7  1  0.38091550  0.02152852  0.32431820  1  0.660241  0  0.299982  0.39714  0  0.930291  0
H  H8  1  0.71592939  0.10529886  0.60438936  1  0.145818  0  0.115136  0.120498  0  1.008738  0
H  H9  1  0.28407011  0.89471032  0.39560822  1  0.145374  0  0.11515  0.120563  0  1.008659  0
H  H10  1  0.87285615  0.19496751  0.58386818  1  0.107786  0  0.121233  0.126825  0  0.975533  0
H  H11  1  0.12714052  0.80503879  0.41612527  1  0.107824  0  0.121247  0.126793  0  0.975474  0
H  H12  1  0.85827916  0.05862210  0.15532097  1  0.624921  0  0.314604  0.401751  0  0.890288  0
H  H13  1  0.14169083  0.94138349  0.84465326  1  0.624905  0  0.314468  0.401478  0  0.890652  0
H  H14  1  0.75646641  0.11330249  0.12229371  1  0.62816  0  0.298597  0.394311  0  0.923291  0
H  H15  1  0.24350751  0.88671617  0.87770180  1  0.628425  0  0.298504  0.394245  0  0.923408  0
H  H16  1  0.74442837  0.73141509  0.27510658  1  0.183874  0  0.115211  0.123449  0  1.042548  0
H  H17  1  0.25560390  0.26856441  0.72492102  1  0.183008  0  0.115127  0.123262  0  1.042727  0
H  H18  1  0.88467732  0.82940983  0.24354666  1  0.1163  0  0.1204  0.127001  0  0.969533  0
H  H19  1  0.11535722  0.17056745  0.75647737  1  0.116294  0  0.120382  0.126911  0  0.969716  0
H  H20  1  0.46334835  0.44485160  0.70461518  1  0.141403  0  0.120075  0.133834  0  1.008163  0
H  H21  1  0.53665901  0.55515950  0.29537564  1  0.141368  0  0.120123  0.133939  0  1.008265  0
H  H22  1  0.91780655  0.64136958  0.37778863  1  0.108068  0  0.102976  0.127375  0  1.014926  0
H  H23  1  0.08220705  0.35864599  0.62221896  1  0.108443  0  0.103021  0.127431  0  1.014904  0
H  H24  1  0.93250445  0.52270401  0.31783048  1  0.090759  0  0.105958  0.125751  0  1.024105  0
H  H25  1  0.06751867  0.47731348  0.68217183  1  0.090792  0  0.105986  0.125783  0  1.024206  0
H  H26  1  0.79772717  0.56706469  0.30440549  1  0.08314  0  0.100464  0.124407  0  1.000432  0
H  H27  1  0.20228986  0.43295069  0.69559341  1  0.083066  0  0.100495  0.124468  0  1.000325  0
H  H28  1  0.63362177  0.74809984  0.13462005  1  0.110841  0  0.115727  0.117234  0  0.997043  0
H  H29  1  0.36636341  0.25188894  0.86537809  1  0.110933  0  0.115827  0.117445  0  0.996922  0
H  H30  1  0.57276553  0.35746813  0.79851897  1  0.149064  0  0.120784  0.128514  0  0.97778  0
H  H31  1  0.42724397  0.64253292  0.20146640  1  0.149488  0  0.120821  0.128565  0  0.977877  0
H  H32  1  0.51365726  0.83282071  0.04116844  1  0.145255  0  0.124191  0.1316  0  0.962023  0
H  H33  1  0.48630866  0.16716202  0.95883562  1  0.144907  0  0.124136  0.131421  0  0.962024  0
H  H34  1  0.76489225  0.72263494  0.89178241  1  0.074493  0  0.100495  0.160932  0  0.973598  0
H  H35  1  0.23509880  0.27736730  0.10821887  1  0.074536  0  0.100508  0.160949  0  0.973583  0
H  H36  1  0.77108427  0.59689222  0.87017253  1  0.054187  0  0.099886  0.151698  0  0.991551  0
H  H37  1  0.22890732  0.40310794  0.12983127  1  0.054464  0  0.099887  0.151695  0  0.991603  0
H  H38  1  0.87037281  0.66361144  0.84658249  1  0.141192  0  0.102471  0.15023  0  1.052199  0
H  H39  1  0.12962554  0.33638938  0.15342334  1  0.141377  0  0.102438  0.150163  0  1.052227  0
H  H40  1  0.80940357  0.66311964  0.47200104  1  0.06511  0  0.102999  0.122684  0  1.016928  0
H  H41  1  0.19060169  0.33688244  0.52800061  1  0.065138  0  0.103012  0.122745  0  1.016903  0
H  H42  1  0.70810390  0.56442245  0.44796543  1  0.05601  0  0.101112  0.121196  0  1.001179  0
H  H43  1  0.29190175  0.43557608  0.55203661  1  0.055913  0  0.101123  0.121231  0  1.001232  0
H  H44  1  0.83107665  0.58688371  0.53623271  1  0.067902  0  0.102035  0.115966  0  1.027662  0
H  H45  1  0.16893348  0.41311685  0.46376602  1  0.06829  0  0.102024  0.115956  0  1.027719  0
H  H46  1  0.89550176  0.34091798  0.48402497  1  0.089129  0  0.096562  0.160624  0  1.008207  0
H  H47  1  0.10450135  0.65907888  0.51595993  1  0.089046  0  0.096503  0.160495  0  1.008259  0
H  H48  1  0.88403774  0.45717963  0.54813699  1  0.059881  0  0.099552  0.150523  0  1.024991  0
H  H49  1  0.11596673  0.54281518  0.45185349  1  0.059696  0  0.099496  0.150434  0  1.025147  0
H  H50  1  0.76491550  0.39264763  0.46732181  1  0.075666  0  0.099502  0.155245  0  1.034092  0
H  H51  1  0.23508712  0.60735210  0.53266425  1  0.075611  0  0.099543  0.155261  0  1.034057  0
H  H52  1  0.62539709  0.48042878  0.57689833  1  0.096919  0  0.110954  0.136168  0  1.002522  0
H  H53  1  0.37460895  0.51957252  0.42309921  1  0.096703  0  0.110914  0.13618  0  1.00247  0
H  H54  1  0.54325121  0.56940403  0.62105963  1  0.096548  0  0.104313  0.125163  0  1.028509  0
H  H55  1  0.45675225  0.43059656  0.37893609  1  0.096429  0  0.104342  0.12519  0  1.028585  0
H  H56  1  0.65394374  0.60073415  0.58159180  1  0.036675  0  0.097126  0.101643  0  1.034954  0
H  H57  1  0.34606477  0.39926719  0.41841029  1  0.036658  0  0.097114  0.101616  0  1.034899  0
H  H58  1  0.76503749  0.43465867  0.66223777  1  0.143977  0  0.102875  0.114665  0  1.059598  0
H  H59  1  0.23496595  0.56534195  0.33776027  1  0.143933  0  0.102847  0.114651  0  1.059534  0
H  H60  1  0.86608895  0.53348262  0.68321428  1  0.050516  0  0.100282  0.112531  0  1.013514  0
H  H61  1  0.13391195  0.46651810  0.31678795  1  0.050556  0  0.100264  0.112454  0  1.01359  0
H  H62  1  0.83189486  0.50568109  0.76794975  1  0.113985  0  0.1123  0.134737  0  0.992449  0
H  H63  1  0.16810561  0.49431605  0.23204981  1  0.114033  0  0.112228  0.13462  0  0.992457  0
C  C64  1  0.97758695  0.13963845  0.46198868  1  1.320189  0  0.254406  0.455512  0  4.09421  0
C  C65  1  0.02242180  0.86035788  0.53801111  1  1.320229  0  0.254496  0.455808  0  4.094467  0
C  C66  1  0.51517792  0.62119356  0.89300315  1  -0.063338  0  0.009444  0.039092  0  3.977807  0
C  C67  1  0.48480273  0.37879964  0.10700156  1  -0.063443  0  0.009385  0.039009  0  3.977777  0
C  C68  1  0.57952991  0.57200042  0.94632826  1  -0.056797  0  0.002014  0.020614  0  4.005946  0
C  C69  1  0.42045349  0.42799405  0.05366914  1  -0.056704  0  0.002118  0.020711  0  4.005624  0
C  C70  1  0.76219007  0.93869335  0.43432007  1  -0.013212  0  0.009204  0.040347  0  3.977213  0
C  C71  1  0.23782788  0.06130376  0.56568979  1  -0.010149  0  0.009183  0.04024  0  3.976989  0
C  C72  1  0.84840021  0.99141290  0.42034968  1  0.024719  0  0.007461  0.03396  0  3.993461  0
C  C73  1  0.15161577  0.00858214  0.57966280  1  0.022176  0  0.007417  0.033845  0  3.993517  0
C  C74  1  0.35894925  0.77568858  0.73221588  1  1.466243  0  0.327949  0.388177  0  4.099829  0
C  C75  1  0.64104397  0.22431794  0.26778858  1  1.466276  0  0.327798  0.387758  0  4.099909  0
C  C76  1  0.71442939  0.98101673  0.50114851  1  0.030441  0  0.000608  -0.059081  0  3.975688  0
C  C77  1  0.28558248  0.01898456  0.49885305  1  0.029511  0  0.000733  -0.05862  0  3.975241  0
C  C78  1  0.88907430  0.08372426  0.47633160  1  -0.083293  0  -0.002909  -0.071523  0  4.012352  0
C  C79  1  0.11093896  0.91626858  0.52367404  1  -0.082497  0  -0.002884  -0.071693  0  4.012665  0
C  C80  1  0.72608299  0.84479288  0.38092495  1  -0.023312  0  0.001412  -0.052599  0  3.969167  0
C  C81  1  0.27394129  0.15520218  0.61909435  1  -0.02431  0  0.001397  -0.052448  0  3.969124  0
C  C82  1  0.62034779  0.92879965  0.51277193  1  1.317196  0  0.258669  0.472931  0  4.077366  0
C  C83  1  0.37965217  0.07120672  0.48722797  1  1.316843  0  0.258492  0.472377  0  4.077532  0
C  C84  1  0.88850365  0.95143344  0.34898363  1  -0.008559  0  -0.004818  -0.069451  0  3.994967  0
C  C85  1  0.11152117  0.04855232  0.65103184  1  -0.009512  0  -0.004729  -0.069176  0  3.994827  0
C  C86  1  0.79453218  0.43342271  0.09941557  1  1.380454  0  0.30428  0.360857  0  4.107931  0
C  C87  1  0.20546258  0.56657509  0.90057725  1  1.380225  0  0.304324  0.361849  0  4.106541  0
C  C88  1  0.41488698  0.62520987  0.74818382  1  1.320929  0  0.256532  0.468559  0  4.079973  0
C  C89  1  0.58510763  0.37479369  0.25181382  1  1.322144  0  0.256404  0.468465  0  4.080263  0
C  C90  1  0.49157128  0.78458508  0.46174277  1  1.402421  0  0.307969  0.370985  0  4.102723  0
C  C91  1  0.50843049  0.21542910  0.53825816  1  1.402677  0  0.307849  0.370835  0  4.102724  0
C  C92  1  0.66665803  0.42408905  0.96492023  1  1.357912  0  0.249812  0.453574  0  4.079854  0
C  C93  1  0.33332509  0.57590243  0.03506828  1  1.357126  0  0.249783  0.453681  0  4.080074  0
C  C94  1  0.08635133  0.15326776  0.36641023  1  1.45534  0  0.324008  0.381775  0  4.083495  0
C  C95  1  0.91364912  0.84672853  0.63358158  1  1.455395  0  0.324075  0.381807  0  4.083559  0
C  C96  1  0.49263121  0.71587830  0.92877273  1  0.029128  0  0.005476  -0.051538  0  3.962465  0
C  C97  1  0.50733207  0.28411016  0.07123335  1  0.029148  0  0.005364  -0.051752  0  3.96261  0
C  C98  1  0.42633758  0.76756644  0.87403191  1  1.352954  0  0.260422  0.477593  0  4.063955  0
C  C99  1  0.57362778  0.23242472  0.12596766  1  1.353421  0  0.260414  0.477779  0  4.06342  0
C  C100  1  0.75479856  0.07205998  0.55449211  1  0.037716  0  -0.056155  -0.045916  0  3.874525  0
C  C101  1  0.24520861  0.92794426  0.44551274  1  0.038572  0  -0.056177  -0.046108  0  3.874601  0
C  C102  1  0.63897845  0.78818490  0.39558450  1  1.354609  0  0.258372  0.464968  0  4.050938  0
C  C103  1  0.36103586  0.21181648  0.60442394  1  1.355548  0  0.258329  0.464845  0  4.051078  0
C  C104  1  0.69666639  0.57199157  0.08914492  1  1.36638  0  0.25263  0.453689  0  4.084016  0
C  C105  1  0.30333397  0.42800402  0.91084670  1  1.366282  0  0.252805  0.453667  0  4.083762  0
C  C106  1  0.84294188  0.12292070  0.54271986  1  0.062261  0  -0.053829  -0.051758  0  3.884842  0
C  C107  1  0.15706727  0.87708559  0.45728120  1  0.062146  0  -0.053999  -0.051792  0  3.885233  0
C  C108  1  0.59915941  0.47620739  0.91074302  1  -0.022924  0  -0.00576  -0.075213  0  3.996477  0
C  C109  1  0.40083056  0.52379268  0.08925523  1  -0.021843  0  -0.005858  -0.07535  0  3.996401  0
C  C110  1  0.96542874  0.00993377  0.32635804  1  1.323143  0  0.248747  0.458226  0  4.097316  0
C  C111  1  0.03458936  0.99005126  0.67365074  1  1.322842  0  0.248872  0.458188  0  4.096947  0
C  C112  1  0.47481014  0.57382653  0.80536264  1  0.035908  0  0.000808  -0.059015  0  3.979382  0
C  C113  1  0.52517616  0.42617068  0.19463132  1  0.036099  0  0.000906  -0.058638  0  3.979334  0
C  C114  1  0.62319702  0.61995738  0.03373048  1  -0.022931  0  -0.002316  -0.064703  0  3.985398  0
C  C115  1  0.37678903  0.38002501  0.96626806  1  -0.023187  0  -0.002276  -0.064524  0  3.985086  0
C  C116  1  0.77205842  0.80448442  0.31462010  1  0.012409  0  -0.058391  -0.061869  0  3.902059  0
C  C117  1  0.22798475  0.19550212  0.68541242  1  0.014641  0  -0.058346  -0.061827  0  3.902034  0
C  C118  1  0.85142247  0.85884618  0.29743769  1  -0.024187  0  -0.056996  -0.056443  0  3.900798  0
C  C119  1  0.14861605  0.14112967  0.70258851  1  -0.024831  0  -0.056938  -0.056367  0  3.900926  0
C  C120  1  0.49542456  0.48029142  0.77197015  1  -0.012172  0  -0.054299  -0.05033  0  3.880261  0
C  C121  1  0.50458029  0.51971338  0.22802393  1  -0.012508  0  -0.05434  -0.050549  0  3.880602  0
C  C122  1  0.87847757  0.56802370  0.35025555  1  0.206356  0  -0.141429  -0.275709  0  3.868966  0
C  C123  1  0.12153254  0.43199043  0.64974871  1  0.205435  0  -0.141558  -0.275847  0  3.869041  0
C  C124  1  0.59974489  0.71288221  0.06719109  1  -0.028676  0  -0.060036  -0.062229  0  3.919044  0
C  C125  1  0.40023156  0.28710385  0.93280764  1  -0.028294  0  -0.060303  -0.062734  0  3.919169  0
C  C126  1  0.55678863  0.43104445  0.82472398  1  0.053327  0  -0.053103  -0.049292  0  3.88446  0
C  C127  1  0.44321640  0.56895544  0.17527362  1  0.052772  0  -0.053164  -0.049374  0  3.884829  0
C  C128  1  0.53346072  0.76045138  0.01504252  1  0.018605  0  -0.052814  -0.050213  0  3.8944  0
C  C129  1  0.46650040  0.23953994  0.98496324  1  0.018762  0  -0.052574  -0.049731  0  3.894234  0
C  C130  1  0.89069744  0.44632737  0.42164782  1  1.347916  0  0.239696  0.520314  0  4.041814  0
C  C131  1  0.10930947  0.55368019  0.57834324  1  1.347685  0  0.239507  0.520005  0  4.042072  0
C  C132  1  0.78217538  0.65814209  0.84780277  1  -0.098347  0  -0.241181  -0.506772  0  3.91314  0
C  C133  1  0.21781725  0.34185941  0.15219748  1  -0.09915  0  -0.241121  -0.506658  0  3.913206  0
C  C134  1  0.79799417  0.58929828  0.47152674  1  0.282686  0  -0.140975  -0.273228  0  3.888014  0
C  C135  1  0.20201494  0.41070087  0.52847204  1  0.282347  0  -0.141021  -0.273319  0  3.88796  0
C  C136  1  0.85674058  0.40712249  0.48411970  1  -0.075446  0  -0.247608  -0.51938  0  3.888115  0
C  C137  1  0.14326361  0.59287654  0.51586824  1  -0.074953  0  -0.247478  -0.519031  0  3.888281  0
C  C138  1  0.62757192  0.55459374  0.61473182  1  0.228988  0  -0.14097  -0.276025  0  3.873021  0
C  C139  1  0.37243329  0.44540758  0.38526614  1  0.229304  0  -0.140948  -0.276032  0  3.873039  0
C  C140  1  0.70311783  0.64525765  0.76213741  1  1.337002  0  0.239671  0.5084  0  4.066444  0
C  C141  1  0.29687688  0.35474025  0.23786123  1  1.33719  0  0.239551  0.508305  0  4.066599  0
C  C142  1  0.79745377  0.50702530  0.70314793  1  0.172584  0  -0.136442  -0.272015  0  3.87112  0
C  C143  1  0.20255513  0.49297249  0.29685398  1  0.172727  0  -0.136358  -0.271846  0  3.871107  0
N  N144  1  0.86695063  0.34956795  0.17384677  1  -0.251913  0  -0.144316  -0.079426  0  3.59812  0
N  N145  1  0.13304487  0.65043636  0.82615412  1  -0.252163  0  -0.144441  -0.079694  0  3.598383  0
N  N146  1  0.00988062  0.09854802  0.38707614  1  -1.172312  0  -0.22736  -0.274213  0  3.612234  0
N  N147  1  0.99012581  0.90144974  0.61292238  1  -1.172425  0  -0.227514  -0.274419  0  3.612534  0
N  N148  1  0.15117228  0.24434563  0.30841200  1  -0.082816  0  -0.082238  -0.040384  0  3.19061  0
N  N149  1  0.84882153  0.75565152  0.69158397  1  -0.082642  0  -0.08224  -0.040424  0  3.190435  0
N  N150  1  0.24550833  0.84922177  0.66064348  1  -0.127046  0  -0.08958  -0.067434  0  3.275811  0
N  N151  1  0.75449141  0.15078326  0.33936071  1  -0.127073  0  -0.089567  -0.067396  0  3.27573  0
N  N152  1  0.25128829  0.79100002  0.70904796  1  -0.744813  0  -0.247725  -0.295573  0  3.5022  0
N  N153  1  0.74870688  0.20900862  0.29095679  1  -0.744567  0  -0.247792  -0.295562  0  3.501922  0
N  N154  1  0.40272688  0.72180256  0.78656831  1  -1.186893  0  -0.229586  -0.275059  0  3.634846  0
N  N155  1  0.59725577  0.27820617  0.21343349  1  -1.187204  0  -0.229441  -0.275039  0  3.634804  0
N  N156  1  0.19717291  0.15111529  0.38895874  1  -0.648443  0  -0.212369  -0.2929  0  3.228274  0
N  N157  1  0.80282645  0.84888607  0.61103812  1  -0.648466  0  -0.212399  -0.292964  0  3.228399  0
N  N158  1  0.58434412  0.83729002  0.45623725  1  -1.173176  0  -0.217991  -0.248502  0  3.587065  0
N  N159  1  0.41566017  0.16271779  0.54376672  1  -1.173201  0  -0.217798  -0.248231  0  3.586773  0
N  N160  1  0.05609733  0.20979565  0.31697821  1  -0.706011  0  -0.230649  -0.262855  0  3.457193  0
N  N161  1  0.94389774  0.79019789  0.68301424  1  -0.706074  0  -0.230658  -0.262714  0  3.457022  0
N  N162  1  0.94961924  0.38851478  0.15376308  1  -0.115352  0  -0.091929  -0.063922  0  3.267292  0
N  N163  1  0.05037581  0.61147878  0.84623053  1  -0.115969  0  -0.091954  -0.063977  0  3.267618  0
N  N164  1  0.71565728  0.47802003  0.05038522  1  -1.174547  0  -0.220735  -0.248582  0  3.583947  0
N  N165  1  0.28433545  0.52197495  0.94960771  1  -1.174316  0  -0.220725  -0.248979  0  3.583819  0
N  N166  1  0.34608261  0.86726688  0.65425030  1  -0.079643  0  -0.087684  -0.045623  0  3.189249  0
N  N167  1  0.65391661  0.13273388  0.34575278  1  -0.079757  0  -0.08762  -0.045614  0  3.189245  0
N  N168  1  0.41968244  0.82171531  0.69907096  1  -0.71448  0  -0.233399  -0.280005  0  3.399526  0
N  N169  1  0.58031844  0.17828543  0.30093243  1  -0.714547  0  -0.233436  -0.279878  0  3.399626  0
N  N170  1  0.49103041  0.74897591  0.52525508  1  -0.738408  0  -0.256711  -0.332514  0  3.49969  0
N  N171  1  0.50896663  0.25103408  0.47474687  1  -0.738585  0  -0.256803  -0.332523  0  3.500014  0
N  N172  1  0.23457536  0.20879783  0.35181554  1  -0.21419  0  -0.117118  -0.080681  0  3.518208  0
N  N173  1  0.76541923  0.79120574  0.64818268  1  -0.214366  0  -0.117134  -0.080728  0  3.51817  0
N  N174  1  0.90497157  0.44232407  0.10597147  1  -0.606143  0  -0.228187  -0.295727  0  3.152974  0
N  N175  1  0.09502116  0.55766371  0.89401453  1  -0.605513  0  -0.227994  -0.295774  0  3.152731  0
N  N176  1  0.76715954  0.37667188  0.14069543  1  -0.661469  0  -0.225003  -0.305837  0  3.221175  0
N  N177  1  0.23283924  0.62333164  0.85930300  1  -0.661298  0  -0.225008  -0.306039  0  3.220732  0
N  N178  1  0.39611847  0.75853850  0.40011112  1  -0.677418  0  -0.231496  -0.314314  0  3.182086  0
N  N179  1  0.60388743  0.24146852  0.59988949  1  -0.67779  0  -0.23143  -0.31429  0  3.181914  0
N  N180  1  0.33363859  0.70517041  0.42743668  1  -0.121035  0  -0.094189  -0.065194  0  3.273053  0
N  N181  1  0.66636065  0.29483664  0.57256034  1  -0.120665  0  -0.09421  -0.065124  0  3.273133  0
N  N182  1  0.38933384  0.69926271  0.50190507  1  -0.135916  0  -0.105102  -0.084263  0  3.260162  0
N  N183  1  0.61066220  0.30074585  0.49809518  1  -0.136146  0  -0.105011  -0.084243  0  3.260316  0
N  N184  1  0.86078629  0.53227463  0.41713506  1  -1.188858  0  -0.274115  -0.008211  0  3.628953  0
N  N185  1  0.13921831  0.46773522  0.58286423  1  -1.18807  0  -0.274092  -0.008221  0  3.628693  0
N  N186  1  0.70636733  0.56914100  0.69779734  1  -1.18262  0  -0.274756  -0.021822  0  3.653489  0
N  N187  1  0.29363630  0.43085468  0.30220248  1  -1.182727  0  -0.274671  -0.021769  0  3.653675  0
O  O188  1  0.94729018  0.39937584  0.37429840  1  -1.192228  0  -0.343164  -0.578428  0  2.311104  0
O  O189  1  0.05271848  0.60063243  0.62569375  1  -1.192341  0  -0.34302  -0.578234  0  2.311048  0
O  O190  1  0.63162760  0.70556508  0.75332156  1  -1.189565  0  -0.337536  -0.561698  0  2.328053  0
O  O191  1  0.36836861  0.29443137  0.24667645  1  -1.189561  0  -0.337499  -0.561697  0  2.327977  0
O  O192  1  0.74044227  0.61075364  0.16482809  1  -1.122137  0  -0.257789  -0.428204  0  2.149537  0
O  O193  1  0.25956935  0.38924459  0.83515992  1  -1.12217  0  -0.257943  -0.428223  0  2.149483  0
O  O194  1  0.02243030  0.21775614  0.50950815  1  -1.118701  0  -0.250026  -0.424046  0  2.178149  0
O  O195  1  0.97758306  0.78224369  0.49049219  1  -1.118851  0  -0.250032  -0.424075  0  2.178325  0
O  O196  1  0.37816099  0.59042989  0.67140361  1  -1.095233  0  -0.249616  -0.425121  0  2.168518  0
O  O197  1  0.62184343  0.40957854  0.32859531  1  -1.096158  0  -0.249532  -0.425073  0  2.168466  0
O  O198  1  0.57252127  0.96189503  0.56827879  1  -1.134828  0  -0.26791  -0.467585  0  2.221247  0
O  O199  1  0.42747309  0.03811989  0.43171916  1  -1.134036  0  -0.267855  -0.467381  0  2.221304  0
O  O200  1  0.61270372  0.70321473  0.35826954  1  -1.11402  0  -0.245034  -0.41589  0  2.171721  0
O  O201  1  0.38729986  0.29678828  0.64174362  1  -1.114304  0  -0.245067  -0.415876  0  2.171762  0
O  O202  1  0.64050024  0.95827987  0.72738456  1  -1.216987  0  -0.572766  -0.727922  0  1.975761  0
O  O203  1  0.35948649  0.04172724  0.27260777  1  -1.216815  0  -0.572705  -0.727865  0  1.975945  0
O  O204  1  0.39508636  0.84695113  0.90049582  1  -1.124815  0  -0.264584  -0.445296  0  2.11139  0
O  O205  1  0.60488121  0.15303796  0.09950832  1  -1.125632  0  -0.26459  -0.445374  0  2.111124  0
O  O206  1  0.68197032  0.33999487  0.93950999  1  -1.094195  0  -0.261249  -0.411336  0  2.068658  0
O  O207  1  0.31801016  0.65999602  0.06048369  1  -1.093965  0  -0.261149  -0.411334  0  2.068771  0
O  O208  1  0.99067586  0.98646541  0.25906809  1  -1.11639  0  -0.280491  -0.448993  0  2.067071  0
O  O209  1  0.00934491  0.01352103  0.74094211  1  -1.116372  0  -0.280494  -0.448942  0  2.066888  0
O  O210  1  0.83905285  0.11586707  0.13941553  1  -1.213248  0  -0.578935  -0.745441  0  1.974359  0
O  O211  1  0.16092601  0.88414361  0.86057265  1  -1.213542  0  -0.578709  -0.745055  0  1.974876  0
