# generated using pymatgen
data_CuH12C11N3(OF)3
_symmetry_space_group_name_H-M   'P 1'
_cell_length_a   6.24382434
_cell_length_b   7.67811853
_cell_length_c   14.46668553
_cell_angle_alpha   101.99015275
_cell_angle_beta   94.26425709
_cell_angle_gamma   92.00250639
_symmetry_Int_Tables_number   1
_chemical_formula_structural   CuH12C11N3(OF)3
_chemical_formula_sum   'Cu2 H24 C22 N6 O6 F6'
_cell_volume   675.63266685
_cell_formula_units_Z   2
loop_
 _symmetry_equiv_pos_site_id
 _symmetry_equiv_pos_as_xyz
  1  'x, y, z'
loop_
 _atom_site_type_symbol
 _atom_site_label
 _atom_site_symmetry_multiplicity
 _atom_site_fract_x
 _atom_site_fract_y
 _atom_site_fract_z
 _atom_site_occupancy
 _atom_site_hle17_ddec_charge
 _atom_site_hle17_ddec_spin_density
 _atom_site_hle17_ddec_sum_bond_order
 _atom_site_hle17_magmom
 _atom_site_hse06_10hf_ddec_charge
 _atom_site_hse06_10hf_ddec_spin_density
 _atom_site_hse06_10hf_ddec_sum_bond_order
 _atom_site_hse06_10hf_magmom
 _atom_site_hse06_ddec_charge
 _atom_site_hse06_ddec_spin_density
 _atom_site_hse06_ddec_sum_bond_order
 _atom_site_hse06_magmom
 _atom_site_pbe_cm5_charge
 _atom_site_pbe_ddec_charge
 _atom_site_pbe_ddec_spin_density
 _atom_site_pbe_ddec_sum_bond_order
 _atom_site_pbe_magmom
Cu  Cu0  1  0.49999459  0.00000861  0.50000598  1  0.933424  -0.644793  1.812648  -0.459  0.946368  -0.758461  2.208537  -0.6  1.036206  -0.851696  2.139568  -0.699  0.755501  0.88896  -0.680875  2.262202  -0.525
Cu  Cu1  1  0.99999092  0.99999281  0.50000058  1  0.915284  0.649458  1.844507  0.464  0.93088  0.763404  2.237103  0.607  1.021842  0.856167  2.168198  0.705  0.750907  0.874526  0.686188  2.287779  0.532
H  H2  1  0.26648243  0.33666714  0.56279483  1  0.36468  2.3e-05  0.911916  0.0  0.347384  7e-06  0.981187  0.0  0.356962  4e-06  0.969903  0.0  0.301232  0.341051  1.3e-05  0.98866  0.0
H  H3  1  0.73353193  0.66333662  0.43718772  1  0.36484  2.3e-05  0.911717  0.0  0.347483  7e-06  0.981027  0.0  0.357056  4e-06  0.969763  0.0  0.301301  0.341149  1.3e-05  0.988502  0.0
H  H4  1  0.22050286  0.16408103  0.71680060  1  0.058184  -2.9e-05  0.918529  0.0  0.074356  -1.8e-05  0.980194  0.0  0.075209  -1.9e-05  0.979276  0.0  0.096998  0.073622  -1.7e-05  0.981075  0.0
H  H5  1  0.77950494  0.83589203  0.28317781  1  0.058095  -2.9e-05  0.918707  0.0  0.074298  -1.8e-05  0.980316  0.0  0.075141  -1.9e-05  0.979421  0.0  0.097055  0.073562  -1.7e-05  0.981198  0.0
H  H6  1  0.06481842  0.34015421  0.69168749  1  0.036648  -6e-06  0.935566  0.0  0.052378  1.7e-05  1.000401  0.0  0.053092  1.8e-05  1.000009  0.0  0.090499  0.051968  2e-05  1.000619  0.0
H  H7  1  0.93518656  0.65982547  0.30828945  1  0.036656  -6e-06  0.935766  0.0  0.05245  1.7e-05  1.000533  0.0  0.053166  1.8e-05  1.000137  0.0  0.090519  0.05204  2e-05  1.000752  0.0
H  H8  1  0.33335181  0.47657214  0.81467337  1  0.058251  8e-06  0.957424  0.0  0.074317  -5e-06  1.023522  0.0  0.075206  -6e-06  1.023584  0.0  0.079387  0.073722  -5e-06  1.023461  0.0
H  H9  1  0.66662335  0.52339445  0.18532054  1  0.058139  8e-06  0.957524  0.0  0.074259  -5e-06  1.023605  0.0  0.075149  -5e-06  1.023665  0.0  0.079374  0.073664  -5e-06  1.023548  0.0
H  H10  1  0.40762033  0.53569684  0.70960562  1  0.056098  -0.000174  0.954763  0.0  0.07453  -0.000141  1.017927  0.0  0.074809  -0.000112  1.019358  0.0  0.0823  0.074474  -0.000168  1.016782  0.0
H  H11  1  0.59236214  0.46431384  0.29039732  1  0.056092  -0.000174  0.954712  0.0  0.07451  -0.000141  1.017968  0.0  0.074789  -0.000112  1.019397  0.0  0.082306  0.074455  -0.000168  1.016823  0.0
H  H12  1  0.73176994  0.45309852  0.79923724  1  0.083417  6e-06  0.99056  0.0  0.102491  0.0  1.05896  0.0  0.102975  -2e-06  1.060877  0.0  0.072265  0.102081  2e-06  1.057735  0.0
H  H13  1  0.26821492  0.54692544  0.20076442  1  0.083454  7e-06  0.990567  0.0  0.102543  0.0  1.058944  0.0  0.103036  -2e-06  1.060853  0.0  0.072299  0.102121  2e-06  1.057732  0.0
H  H14  1  0.67664113  0.28896222  0.69291145  1  0.094507  0.000116  0.984964  0.0  0.113768  4.8e-05  1.050517  0.0  0.115286  2.9e-05  1.050909  0.0  0.077703  0.1127  6.5e-05  1.050249  0.0
H  H15  1  0.32336741  0.71105374  0.30708463  1  0.094634  0.000117  0.984948  0.0  0.113876  4.8e-05  1.050502  0.0  0.115391  2.8e-05  1.050898  0.0  0.077722  0.112811  6.5e-05  1.050228  0.0
H  H16  1  0.60562244  0.24509516  0.80271592  1  0.087817  -2e-06  0.968939  0.0  0.105584  3e-06  1.038192  0.0  0.106898  3e-06  1.038195  0.0  0.074061  0.104581  1e-06  1.038289  0.0
H  H17  1  0.39439540  0.75491554  0.19728270  1  0.087778  -2e-06  0.968978  0.0  0.105552  3e-06  1.038216  0.0  0.106861  3e-06  1.038232  0.0  0.074028  0.10455  0.0  1.038309  0.0
H  H18  1  0.53072360  0.07111045  0.22453723  1  0.108354  -0.00017  0.94585  0.0  0.115313  -0.000137  1.011091  0.0  0.118729  -8.5e-05  1.008649  0.0  0.109512  0.112863  -0.000181  1.012903  0.0
H  H19  1  0.46927916  0.92889111  0.77547373  1  0.108304  -0.00017  0.945939  0.0  0.115338  -0.000137  1.011103  0.0  0.118716  -8.5e-05  1.0087  0.0  0.109513  0.112887  -0.000181  1.012917  0.0
H  H20  1  0.50209301  0.12933161  0.06082657  1  0.097343  9.5e-05  0.95783  0.0  0.103676  8.5e-05  1.026502  0.0  0.106767  5.5e-05  1.024795  0.0  0.101517  0.101464  0.000108  1.027847  0.0
H  H21  1  0.49791468  0.87067273  0.93918969  1  0.097443  9.5e-05  0.95814  0.0  0.103886  8.5e-05  1.026604  0.0  0.106977  5.5e-05  1.024897  0.0  0.101597  0.101672  0.000108  1.027949  0.0
H  H22  1  0.85979909  0.30322737  0.09945829  1  0.100349  -0.000103  0.960536  0.0  0.104491  -7.8e-05  1.031921  0.0  0.107698  -5e-05  1.029969  0.0  0.101077  0.10214  -0.000101  1.033498  0.0
H  H23  1  0.14020117  0.69678611  0.90054970  1  0.100242  -0.000103  0.960575  0.0  0.104444  -7.8e-05  1.031918  0.0  0.10765  -5e-05  1.029965  0.0  0.101031  0.102089  -0.000101  1.0335  0.0
H  H24  1  0.88932183  0.24027087  0.26269371  1  0.108243  0.000211  0.945862  0.0  0.115752  0.000162  1.009827  0.0  0.118916  0.000114  1.008121  0.0  0.109847  0.113561  0.000201  1.011001  0.0
H  H25  1  0.11068174  0.75974390  0.73731176  1  0.108222  0.000211  0.945707  0.0  0.115665  0.000162  1.00976  0.0  0.118831  0.000114  1.008052  0.0  0.109835  0.113477  0.000202  1.010932  0.0
C  C26  1  0.22628380  0.28654419  0.68898462  1  0.152502  7e-05  3.604425  0.0  0.097793  4.3e-05  3.88107  0.0  0.105763  3.4e-05  3.885745  0.0  -0.081822  0.092416  5.2e-05  3.877387  0.0
C  C27  1  0.77371831  0.71344225  0.31099846  1  0.152393  7e-05  3.604771  0.0  0.097682  4.3e-05  3.881404  0.0  0.105651  3.4e-05  3.886076  0.0  -0.081892  0.092303  5.2e-05  3.877727  0.0
C  C28  1  0.39451385  0.42302893  0.74558476  1  -0.11277  -0.000171  3.73859  0.0  -0.145849  -0.000147  3.994554  0.0  -0.148012  -0.00011  4.010047  0.0  -0.180866  -0.144167  -0.000174  3.983476  0.0
C  C29  1  0.60547709  0.57696033  0.25440931  1  -0.11242  -0.000169  3.738523  0.0  -0.145656  -0.000146  3.994683  0.0  -0.147813  -0.000111  4.010164  0.0  -0.180845  -0.143974  -0.000174  3.983595  0.0
C  C30  1  0.61465457  0.34863113  0.76074798  1  -0.28086  0.000121  3.706377  0.0  -0.352255  4.6e-05  3.946624  0.0  -0.354478  2.1e-05  3.957339  0.0  -0.262041  -0.350499  7.1e-05  3.939297  0.0
C  C31  1  0.38535195  0.65137821  0.23925080  1  -0.28112  0.000119  3.706538  0.0  -0.352512  4.6e-05  3.946873  0.0  -0.354744  2.2e-05  3.957582  0.0  -0.26212  -0.350741  7.1e-05  3.939552  0.0
C  C32  1  0.22704256  0.10750344  0.34922856  1  0.658162  8.9e-05  3.848871  0.0  0.621666  1.6e-05  4.135759  0.0  0.663036  9e-06  4.128178  0.0  0.226388  0.593656  4e-06  4.139586  0.0
C  C33  1  0.77293921  0.89249527  0.65077448  1  0.657951  9.1e-05  3.849242  0.0  0.621356  1.8e-05  4.13618  0.0  0.662726  1.2e-05  4.1286  0.0  0.226104  0.593346  7e-06  4.140006  0.0
C  C34  1  0.21119670  0.15096500  0.25262020  1  -0.0401  0.000123  3.70983  0.0  -0.020134  0.000176  3.935693  0.0  -0.027776  0.000185  3.956097  0.0  -0.00428  -0.015109  0.000193  3.922286  0.0
C  C35  1  0.78880771  0.84903645  0.74738390  1  -0.040281  0.000128  3.709846  0.0  -0.020181  0.000177  3.935553  0.0  -0.027829  0.000183  3.955963  0.0  -0.004244  -0.015165  0.000194  3.922168  0.0
C  C36  1  0.38467211  0.12161640  0.19627145  1  -0.052143  0.000578  3.703237  0.001  -0.0769  0.000501  3.957315  0.001  -0.076322  0.000306  3.976318  0.001  -0.072369  -0.077316  0.000633  3.944645  0.001
C  C37  1  0.61532263  0.87838509  0.80373647  1  -0.051765  0.000574  3.702888  0.001  -0.076632  0.0005  3.95696  0.001  -0.07602  0.000308  3.975975  0.001  -0.072323  -0.077045  0.000633  3.944289  0.001
C  C38  1  0.36818938  0.15420971  0.10507038  1  -0.060834  0.000801  3.728187  0.001  -0.091235  0.000445  3.988072  0.001  -0.093047  0.000344  4.009052  0.0  -0.084628  -0.09003  0.00053  3.973913  0.001
C  C39  1  0.63180380  0.84579319  0.89494248  1  -0.06138  0.000804  3.728572  0.001  -0.091881  0.000447  3.988499  0.001  -0.093691  0.000344  4.009459  0.0  -0.08483  -0.090678  0.00053  3.974353  0.001
C  C40  1  0.17807389  0.21794649  0.07017863  1  -0.122841  -0.000391  3.806067  0.0  -0.108538  -0.000251  4.052901  0.0  -0.11437  -0.000231  4.075861  0.0  -0.027828  -0.104588  -0.000271  4.037696  0.0
C  C41  1  0.82193906  0.78206439  0.92983090  1  -0.122766  -0.000395  3.806153  0.0  -0.10842  -0.000255  4.053022  0.0  -0.114257  -0.000233  4.075981  0.0  -0.027783  -0.104466  -0.000272  4.037821  0.0
C  C42  1  0.00535291  0.25030745  0.12657088  1  -0.063366  -0.000312  3.734846  0.0  -0.0952  -0.00024  3.999061  0.0  -0.096764  -9.8e-05  4.019436  0.0  -0.08419  -0.094209  -0.000359  3.985478  0.0
C  C43  1  0.99463774  0.74970594  0.87343401  1  -0.063359  -0.000306  3.735317  0.0  -0.095262  -0.000238  3.999537  0.0  -0.096817  -9.8e-05  4.019904  0.0  -0.08421  -0.094263  -0.000359  3.985943  0.0
C  C44  1  0.02181977  0.21594810  0.21759084  1  -0.054683  -0.001206  3.692414  -0.001  -0.078298  -0.000877  3.943415  -0.001  -0.077813  -0.000689  3.962313  -0.001  -0.075017  -0.07866  -0.001003  3.93072  -0.001
C  C45  1  0.97817734  0.78406675  0.78241995  1  -0.054484  -0.001211  3.692502  -0.001  -0.078103  -0.000878  3.943495  -0.001  -0.07762  -0.000688  3.962397  -0.001  -0.074906  -0.078464  -0.001003  3.930799  -0.001
C  C46  1  0.16643693  0.26016845  0.97327097  1  0.782814  -4e-06  3.635973  0.0  0.700963  -9e-06  3.982992  0.0  0.732269  -5e-06  3.957487  0.0  0.305334  0.678804  -1.4e-05  4.001108  0.0
C  C47  1  0.83358363  0.73983589  0.02674296  1  0.783538  -4e-06  3.634769  0.0  0.701565  -9e-06  3.981973  0.0  0.732888  -6e-06  3.95645  0.0  0.30547  0.679378  -1.4e-05  4.000147  0.0
N  N48  1  0.23972038  0.83198400  0.47516612  1  -0.543437  -0.000432  2.910505  0.0  -0.597244  -0.00066  3.304331  -0.001  -0.652424  -0.000546  3.317578  -0.001  -0.356656  -0.563812  -0.000741  3.298652  -0.001
N  N49  1  0.76027504  0.16800002  0.52483169  1  -0.543435  -0.000417  2.909589  0.0  -0.597184  -0.000654  3.303356  -0.001  -0.652392  -0.000541  3.316624  -0.001  -0.356526  -0.563733  -0.000734  3.297663  -0.001
N  N50  1  0.24169683  0.69552883  0.50466358  1  0.431045  0.000566  4.119361  0.001  0.478547  0.000263  4.429286  0.001  0.501968  0.000448  4.460572  0.001  0.107874  0.463425  0.000107  4.408944  0.0
N  N51  1  0.75831103  0.30447510  0.49532984  1  0.431016  0.000551  4.118696  0.001  0.478505  0.000262  4.428592  0.001  0.501926  0.000448  4.459859  0.001  0.107739  0.463384  0.000106  4.40826  0.0
N  N52  1  0.24331003  0.56190018  0.52992296  1  -0.291765  -0.001794  2.407094  -0.002  -0.309761  -0.001487  2.640554  -0.002  -0.318833  -0.001475  2.648843  -0.002  -0.134219  -0.305551  -0.001659  2.636275  -0.002
N  N53  1  0.75669569  0.43806492  0.47005661  1  -0.29165  -0.001764  2.407475  -0.002  -0.309633  -0.001486  2.640924  -0.002  -0.318688  -0.001475  2.649209  -0.002  -0.134102  -0.305428  -0.001657  2.63664  -0.002
O  O54  1  0.41550793  0.09089051  0.38544522  1  -0.584937  -0.068939  2.101257  -0.09  -0.552787  -0.049004  2.373249  -0.071  -0.595087  -0.03919  2.365775  -0.06  -0.308996  -0.524249  -0.05417  2.378409  -0.075
O  O55  1  0.58447212  0.90910696  0.61456386  1  -0.584747  -0.068927  2.101325  -0.09  -0.552565  -0.048997  2.373337  -0.071  -0.594857  -0.039183  2.365848  -0.06  -0.308706  -0.524029  -0.054163  2.378499  -0.075
O  O56  1  0.04960573  0.09044991  0.38538743  1  -0.588908  0.068972  2.12327  0.09  -0.557866  0.048956  2.398759  0.071  -0.60081  0.038969  2.391686  0.059  -0.30862  -0.529119  0.054439  2.403465  0.076
O  O57  1  0.95036677  0.90952598  0.61460598  1  -0.588874  0.068962  2.12349  0.09  -0.557724  0.048948  2.39894  0.071  -0.600675  0.038962  2.391877  0.059  -0.308575  -0.528974  0.054432  2.403639  0.076
O  O58  1  0.27067420  0.23022817  0.59064268  1  -0.609594  -0.000381  2.176747  -0.001  -0.577655  -0.000167  2.44231  0.0  -0.598613  -0.000144  2.426441  0.0  -0.414198  -0.562298  -0.000213  2.453226  0.0
O  O59  1  0.72934635  0.76977163  0.40934105  1  -0.609674  -0.000383  2.1767  -0.001  -0.577676  -0.000167  2.442386  0.0  -0.598603  -0.000144  2.42645  0.0  -0.414247  -0.562323  -0.000212  2.453304  0.0
F  F60  1  0.27186612  0.14093215  0.91042546  1  -0.271502  6e-06  1.16418  0.0  -0.221414  7e-06  1.327394  0.0  -0.233079  4e-06  1.313754  0.0  -0.094525  -0.213017  1e-05  1.33678  0.0
F  F61  1  0.72819639  0.85910291  0.08958828  1  -0.271701  7e-06  1.163949  0.0  -0.221634  7e-06  1.327232  0.0  -0.233303  4e-06  1.313591  0.0  -0.094712  -0.213231  1e-05  1.336631  0.0
F  F62  1  0.26248343  0.42491077  0.97508906  1  -0.269657  -1.7e-05  1.138061  0.0  -0.224757  -1.9e-05  1.294599  0.0  -0.234785  -1.7e-05  1.278684  0.0  -0.104922  -0.217558  -2.3e-05  1.305669  0.0
F  F63  1  0.73748384  0.57511597  0.02492198  1  -0.269854  -1.7e-05  1.137879  0.0  -0.224837  -1.8e-05  1.294365  0.0  -0.23487  -1.6e-05  1.27845  0.0  -0.10486  -0.217629  -2.3e-05  1.305447  0.0
F  F64  1  0.96122658  0.26091692  0.93426963  1  -0.255396  -7e-06  1.160668  0.0  -0.211842  -7e-06  1.322132  0.0  -0.222497  -4e-06  1.30801  0.0  -0.094125  -0.204197  -1.1e-05  1.331915  0.0
F  F65  1  0.03879042  0.73905269  0.06573775  1  -0.255615  -6e-06  1.160393  0.0  -0.212034  -8e-06  1.321906  0.0  -0.222693  -4e-06  1.307778  0.0  -0.094112  -0.204382  -1.1e-05  1.331701  0.0
