# generated using pymatgen
data_YH2C4NCl3
_symmetry_space_group_name_H-M   'P 1'
_cell_length_a   6.66436363
_cell_length_b   6.87546000
_cell_length_c   9.10335160
_cell_angle_alpha   81.85642225
_cell_angle_beta   76.40656570
_cell_angle_gamma   71.83059560
_symmetry_Int_Tables_number   1
_chemical_formula_structural   YH2C4NCl3
_chemical_formula_sum   'Y2 H4 C8 N2 Cl6'
_cell_volume   384.16379043
_cell_formula_units_Z   2
loop_
 _symmetry_equiv_pos_site_id
 _symmetry_equiv_pos_as_xyz
  1  'x, y, z'
loop_
 _atom_site_type_symbol
 _atom_site_label
 _atom_site_symmetry_multiplicity
 _atom_site_fract_x
 _atom_site_fract_y
 _atom_site_fract_z
 _atom_site_occupancy
 _atom_site_hle17_bader_spin_density
 _atom_site_hle17_ddec_charge
 _atom_site_hle17_ddec_spin_density
 _atom_site_hle17_ddec_sum_bond_order
 _atom_site_hle17_magmom
 _atom_site_hse06_10hf_bader_spin_density
 _atom_site_hse06_10hf_ddec_charge
 _atom_site_hse06_10hf_ddec_spin_density
 _atom_site_hse06_10hf_ddec_sum_bond_order
 _atom_site_hse06_10hf_magmom
 _atom_site_hse06_bader_spin_density
 _atom_site_hse06_ddec_charge
 _atom_site_hse06_ddec_spin_density
 _atom_site_hse06_ddec_sum_bond_order
 _atom_site_hse06_magmom
 _atom_site_pbe_bader_spin_density
 _atom_site_pbe_cm5_charge
 _atom_site_pbe_ddec_charge
 _atom_site_pbe_ddec_spin_density
 _atom_site_pbe_ddec_sum_bond_order
 _atom_site_pbe_magmom
Y  Y0  1  0.17611195  0.18213460  0.53199721  1  0  1.715917  0  2.185018  0  0  1.579922  0  2.628217  0  0  1.64049  0  2.585364  0  0  0.842051  1.536783  0  2.656894  0
Y  Y1  1  0.82387436  0.81787469  0.46800259  1  0  1.715916  0  2.18505  0  0  1.579929  0  2.628227  0  0  1.640495  0  2.585376  0  0  0.842078  1.536791  0  2.656906  0
H  H2  1  0.19429915  0.66230731  0.86606446  1  0  0.118038  0  0.936554  0  0  0.12616  0  0.997408  0  0  0.129437  0  0.995491  0  0  0.109724  0.123777  0  0.998858  0
H  H3  1  0.80573801  0.33768594  0.13395040  1  0  0.118025  0  0.935934  0  0  0.126135  0  0.996893  0  0  0.129415  0  0.994975  0  0  0.109662  0.123746  0  0.998348  0
H  H4  1  0.67891326  0.12263339  0.99876197  1  0  0.110688  0  0.947813  0  0  0.121017  0  1.006245  0  0  0.123532  0  1.005594  0  0  0.108789  0.119215  0  1.006806  0
H  H5  1  0.32106979  0.87740799  0.00125261  1  0  0.110542  0  0.947235  0  0  0.120905  0  1.005724  0  0  0.123422  0  1.005074  0  0  0.108675  0.119099  0  1.006289  0
C  C6  1  0.32656424  0.59331437  0.92549552  1  0  -0.037363  0  3.644958  0  0  -0.061641  0  3.89346  0  0  -0.062022  0  3.911074  0  0  -0.056104  -0.061332  0  3.881624  0
C  C7  1  0.67342700  0.40666288  0.07446725  1  0  -0.037535  0  3.645187  0  0  -0.061927  0  3.893792  0  0  -0.062315  0  3.911416  0  0  -0.056162  -0.061611  0  3.881939  0
C  C8  1  0.42871331  0.38048992  0.92642928  1  0  0.025973  0  3.831637  0  0  0.047668  0  4.064345  0  0  0.045101  0  4.08385  0  0  0.017941  0.049293  0  4.051288  0
C  C9  1  0.57130048  0.61947323  0.07354434  1  0  0.025606  0  3.831206  0  0  0.047428  0  4.063803  0  0  0.044872  0  4.083313  0  0  0.017856  0.049049  0  4.050741  0
C  C10  1  0.60130905  0.28680800  0.00057058  1  0  -0.041461  0  3.661587  0  0  -0.069474  0  3.914472  0  0  -0.070329  0  3.933064  0  0  -0.059514  -0.068883  0  3.901979  0
C  C11  1  0.39869125  0.71314309  0.99940767  1  0  -0.041497  0  3.661162  0  0  -0.069637  0  3.914099  0  0  -0.070489  0  3.932679  0  0  -0.059556  -0.069044  0  3.901604  0
C  C12  1  0.35622233  0.26477678  0.84402229  1  0  0.377555  0  3.656103  0  0  0.35161  0  3.920133  0  0  0.36934  0  3.932536  0  0  0.245494  0.339439  0  3.911991  0
C  C13  1  0.64378286  0.73525206  0.15599425  1  0  0.378076  0  3.654677  0  0  0.352124  0  3.918664  0  0  0.369853  0  3.931066  0  0  0.245773  0.339952  0  3.910521  0
N  N14  1  0.28957680  0.18270754  0.77105744  1  0  -0.471589  0  2.814207  0  0  -0.427804  0  3.069303  0  0  -0.446038  0  3.078981  0  0  -0.35684  -0.415613  0  3.06298  0
N  N15  1  0.71043060  0.81730290  0.22896943  1  0  -0.471867  0  2.814428  0  0  -0.428068  0  3.0695  0  0  -0.446302  0  3.079176  0  0  -0.356995  -0.415877  0  3.063176  0
Cl  Cl16  1  0.56924144  0.21631288  0.43255279  1  0  -0.602229  0  1.036947  0  0  -0.561707  0  1.302718  0  0  -0.582847  0  1.288742  0  0  -0.275962  -0.546352  0  1.312052  0
Cl  Cl17  1  0.43074377  0.78369489  0.56744845  1  0  -0.602205  0  1.036863  0  0  -0.561718  0  1.302685  0  0  -0.582859  0  1.288709  0  0  -0.275963  -0.546364  0  1.312021  0
Cl  Cl18  1  0.88909095  0.99215086  0.69491916  1  0  -0.594702  0  0.996205  0  0  -0.549294  0  1.250988  0  0  -0.568379  0  1.235372  0  0  -0.285256  -0.535499  0  1.261547  0
Cl  Cl19  1  0.11089310  0.00786608  0.30508572  1  0  -0.5947  0  0.996239  0  0  -0.549271  0  1.250994  0  0  -0.568351  0  1.235367  0  0  -0.285254  -0.535478  0  1.261561  0
Cl  Cl20  1  0.90006813  0.50407395  0.68096835  1  0  -0.60059  0  1.034762  0  0  -0.556171  0  1.296133  0  0  -0.578001  0  1.2845  0  0  -0.290219  -0.540535  0  1.303996  0
Cl  Cl21  1  0.09993028  0.49594125  0.31904087  1  0  -0.600597  0  1.034813  0  0  -0.556188  0  1.296182  0  0  -0.578026  0  1.284551  0  0  -0.29022  -0.540554  0  1.304046  0
