# generated using pymatgen
data_PrH22(C3O)11
_symmetry_space_group_name_H-M   'P 1'
_cell_length_a   10.38533581
_cell_length_b   11.55461315
_cell_length_c   13.70209547
_cell_angle_alpha   101.81663632
_cell_angle_beta   110.64305302
_cell_angle_gamma   100.03880706
_symmetry_Int_Tables_number   1
_chemical_formula_structural   PrH22(C3O)11
_chemical_formula_sum   'Pr2 H44 C66 O22'
_cell_volume   1450.49008175
_cell_formula_units_Z   2
loop_
 _symmetry_equiv_pos_site_id
 _symmetry_equiv_pos_as_xyz
  1  'x, y, z'
loop_
 _atom_site_type_symbol
 _atom_site_label
 _atom_site_symmetry_multiplicity
 _atom_site_fract_x
 _atom_site_fract_y
 _atom_site_fract_z
 _atom_site_occupancy
 _atom_site_hle17_bader_spin_density
 _atom_site_hle17_ddec_charge
 _atom_site_hle17_ddec_spin_density
 _atom_site_hle17_ddec_sum_bond_order
 _atom_site_hle17_magmom
 _atom_site_hse06_10hf_bader_spin_density
 _atom_site_hse06_10hf_ddec_charge
 _atom_site_hse06_10hf_ddec_spin_density
 _atom_site_hse06_10hf_ddec_sum_bond_order
 _atom_site_hse06_10hf_magmom
 _atom_site_hse06_bader_spin_density
 _atom_site_hse06_ddec_charge
 _atom_site_hse06_ddec_spin_density
 _atom_site_hse06_ddec_sum_bond_order
 _atom_site_hse06_magmom
 _atom_site_pbe_bader_spin_density
 _atom_site_pbe_cm5_charge
 _atom_site_pbe_ddec_charge
 _atom_site_pbe_ddec_spin_density
 _atom_site_pbe_ddec_sum_bond_order
 _atom_site_pbe_magmom
Pr  Pr0  1  0.61806493  0.56323335  0.66574499  1  0  2.292714  0  1.622901  0  0  2.134116  0  2.081821  0  0  2.22288  0  1.947539  0  0  1.48993  2.102654  0  2.116676  0
Pr  Pr1  1  0.38193270  0.43676508  0.33425175  1  0  2.292699  0  1.622921  0  0  2.134166  0  2.081731  0  0  2.222859  0  1.947563  0  0  1.489914  2.102687  0  2.116614  0
H  H2  1  0.81422851  0.85862653  0.02575172  1  0  0.106101  0  0.948421  0  0  0.113265  0  1.015056  0  0  0.117148  0  1.01248  0  0  0.106257  0.110618  0  1.016603  0
H  H3  1  0.18576136  0.14137011  0.97425213  1  0  0.106119  0  0.948633  0  0  0.11333  0  1.015185  0  0  0.117214  0  1.012605  0  0  0.106258  0.110681  0  1.016735  0
H  H4  1  0.26463187  0.94332511  0.94188011  1  0  0.080151  0  0.992301  0  0  0.088666  0  1.061197  0  0  0.090572  0  1.06175  0  0  0.095959  0.087244  0  1.060882  0
H  H5  1  0.73537034  0.05667789  0.05813251  1  0  0.080107  0  0.992371  0  0  0.088622  0  1.06127  0  0  0.090531  0  1.061819  0  0  0.095947  0.087199  0  1.060957  0
H  H6  1  0.46548073  0.87801981  0.90763463  1  0  0.087162  0  0.948597  0  0  0.099614  0  1.005034  0  0  0.102734  0  1.003568  0  0  0.09907  0.097265  0  1.00632  0
H  H7  1  0.53452411  0.12198502  0.09237608  1  0  0.087118  0  0.948458  0  0  0.099612  0  1.004864  0  0  0.102737  0  1.00339  0  0  0.099055  0.09726  0  1.006151  0
H  H8  1  0.44724778  0.80821735  0.71844050  1  0  0.102608  0  0.963173  0  0  0.108323  0  1.030187  0  0  0.111555  0  1.028742  0  0  0.107147  0.105901  0  1.031548  0
H  H9  1  0.55275663  0.19178932  0.28156969  1  0  0.102642  0  0.963079  0  0  0.108357  0  1.030098  0  0  0.111587  0  1.028654  0  0  0.107172  0.105917  0  1.031476  0
H  H10  1  0.22764625  0.80384841  0.56190440  1  0  0.098034  0  0.982506  0  0  0.102156  0  1.051346  0  0  0.105708  0  1.049978  0  0  0.095433  0.099666  0  1.05225  0
H  H11  1  0.77235845  0.19615918  0.43810602  1  0  0.097997  0  0.982511  0  0  0.102177  0  1.051301  0  0  0.105728  0  1.049932  0  0  0.095453  0.099688  0  1.052205  0
H  H12  1  0.03175073  0.87591670  0.59827467  1  0  0.094124  0  0.954732  0  0  0.104283  0  1.015792  0  0  0.107899  0  1.012784  0  0  0.104383  0.101692  0  1.018028  0
H  H13  1  0.96825324  0.12409181  0.40173864  1  0  0.094193  0  0.954635  0  0  0.104329  0  1.015735  0  0  0.107962  0  1.012705  0  0  0.104438  0.101714  0  1.017995  0
H  H14  1  0.69350209  0.94271567  0.63283643  1  0  0.129397  0  0.955201  0  0  0.135509  0  1.019482  0  0  0.140089  0  1.015998  0  0  0.113518  0.132116  0  1.022043  0
H  H15  1  0.30649407  0.05727817  0.36716351  1  0  0.129351  0  0.95528  0  0  0.13547  0  1.019544  0  0  0.140048  0  1.016063  0  0  0.113498  0.132079  0  1.022101  0
H  H16  1  0.42143756  0.88651982  0.25031018  1  0  0.085398  0  0.983286  0  0  0.094495  0  1.049363  0  0  0.096408  0  1.049956  0  0  0.099271  0.093181  0  1.048946  0
H  H17  1  0.57856651  0.11347306  0.74968147  1  0  0.085418  0  0.983294  0  0  0.094496  0  1.049366  0  0  0.096408  0  1.049962  0  0  0.099315  0.093182  0  1.048949  0
H  H18  1  0.37304240  0.82765362  0.05321931  1  0  0.082955  0  0.958898  0  0  0.094861  0  1.018584  0  0  0.097087  0  1.018335  0  0  0.099865  0.093331  0  1.018646  0
H  H19  1  0.62696547  0.17233188  0.94677135  1  0  0.08293  0  0.958982  0  0  0.09485  0  1.018634  0  0  0.097078  0  1.018384  0  0  0.09983  0.09332  0  1.018698  0
H  H20  1  0.13375475  0.69925381  0.91735045  1  0  0.099739  0  0.95663  0  0  0.109573  0  1.017851  0  0  0.112628  0  1.016125  0  0  0.10465  0.107308  0  1.019256  0
H  H21  1  0.86624947  0.30074275  0.08264115  1  0  0.09971  0  0.956815  0  0  0.109633  0  1.017922  0  0  0.112687  0  1.016197  0  0  0.104657  0.107367  0  1.019328  0
H  H22  1  0.94229396  0.62826832  0.97805804  1  0  0.102891  0  0.951166  0  0  0.114616  0  1.006737  0  0  0.117901  0  1.00558  0  0  0.107174  0.112142  0  1.007836  0
H  H23  1  0.05770321  0.37173840  0.02192980  1  0  0.102845  0  0.951151  0  0  0.114571  0  1.006743  0  0  0.117856  0  1.005586  0  0  0.107165  0.112094  0  1.007846  0
H  H24  1  0.99288466  0.68590404  0.17677049  1  0  0.09856  0  0.981049  0  0  0.101716  0  1.053154  0  0  0.104423  0  1.052178  0  0  0.102522  0.099973  0  1.053567  0
H  H25  1  0.00711178  0.31410360  0.82321585  1  0  0.098592  0  0.981015  0  0  0.101911  0  1.052942  0  0  0.10462  0  1.051962  0  0  0.102666  0.100165  0  1.053357  0
H  H26  1  0.85964264  0.45374246  0.60677192  1  0  0.103892  0  0.983874  0  0  0.107855  0  1.057259  0  0  0.111556  0  1.055296  0  0  0.118153  0.104269  0  1.060562  0
H  H27  1  0.14036291  0.54625501  0.39322749  1  0  0.103863  0  0.983838  0  0  0.107886  0  1.057155  0  0  0.111562  0  1.055214  0  0  0.11817  0.104306  0  1.060443  0
H  H28  1  0.72114170  0.58546570  0.10469664  1  0  0.110218  0  0.931875  0  0  0.12171  0  0.984921  0  0  0.125495  0  0.982164  0  0  0.112101  0.118884  0  0.987142  0
H  H29  1  0.27886474  0.41453452  0.89530567  1  0  0.110284  0  0.931837  0  0  0.121771  0  0.984893  0  0  0.125555  0  0.982136  0  0  0.112111  0.118943  0  0.987115  0
H  H30  1  0.60946884  0.75808970  0.08018631  1  0  0.094669  0  0.937925  0  0  0.108254  0  0.991643  0  0  0.11114  0  0.990566  0  0  0.106375  0.106181  0  0.992411  0
H  H31  1  0.39054025  0.24191235  0.91982067  1  0  0.094705  0  0.93787  0  0  0.108264  0  0.991618  0  0  0.11115  0  0.990541  0  0  0.10638  0.10619  0  0.992388  0
H  H32  1  0.63433365  0.91817895  0.24307111  1  0  0.079229  0  0.989269  0  0  0.089367  0  1.053686  0  0  0.090523  0  1.055432  0  0  0.098452  0.088488  0  1.052652  0
H  H33  1  0.36567412  0.08182219  0.75693536  1  0  0.079212  0  0.989393  0  0  0.089372  0  1.053782  0  0  0.090528  0  1.055531  0  0  0.098478  0.088493  0  1.052748  0
H  H34  1  0.76351096  0.90347241  0.42917202  1  0  0.10279  0  0.936278  0  0  0.114933  0  0.990248  0  0  0.117317  0  0.99024  0  0  0.109289  0.113247  0  0.990395  0
H  H35  1  0.23649637  0.09652413  0.57083427  1  0  0.102897  0  0.936234  0  0  0.115018  0  0.990217  0  0  0.117404  0  0.990206  0  0  0.10933  0.113332  0  0.990364  0
H  H36  1  0.87234495  0.73089959  0.45301225  1  0  0.095189  0  0.956563  0  0  0.106383  0  1.015867  0  0  0.10843  0  1.015666  0  0  0.109361  0.104952  0  1.016054  0
H  H37  1  0.12765973  0.26909512  0.54699156  1  0  0.095271  0  0.956632  0  0  0.106492  0  1.015895  0  0  0.10854  0  1.015693  0  0  0.109401  0.105062  0  1.016079  0
H  H38  1  0.49238488  0.45650512  0.80969539  1  0  0.431254  0  0.834797  0  0  0.408435  0  0.89777  0  0  0.415971  0  0.887203  0  0  0.318137  0.403319  0  0.905045  0
H  H39  1  0.50761628  0.54349789  0.19030381  1  0  0.431239  0  0.834788  0  0  0.408421  0  0.897783  0  0  0.415955  0  0.887217  0  0  0.318121  0.403303  0  0.90504  0
H  H40  1  0.55936830  0.35978358  0.76488543  1  0  0.42556  0  0.843  0  0  0.397115  0  0.920973  0  0  0.404945  0  0.910344  0  0  0.312082  0.391563  0  0.926952  0
H  H41  1  0.44062654  0.64021578  0.23511146  1  0  0.425577  0  0.843017  0  0  0.39714  0  0.920971  0  0  0.40497  0  0.910315  0  0  0.312098  0.391588  0  0.926949  0
H  H42  1  0.94048367  0.53387049  0.77940838  1  0  0.440482  0  0.854041  0  0  0.410944  0  0.915297  0  0  0.421196  0  0.900314  0  0  0.309099  0.403827  0  0.92581  0
H  H43  1  0.05951748  0.46613252  0.22058863  1  0  0.440526  0  0.853979  0  0  0.410969  0  0.915267  0  0  0.421222  0  0.900283  0  0  0.309112  0.403852  0  0.925782  0
H  H44  1  0.83477497  0.43706250  0.79887780  1  0  0.417108  0  0.861469  0  0  0.393549  0  0.929226  0  0  0.401191  0  0.919318  0  0  0.308442  0.38825  0  0.934625  0
H  H45  1  0.16522559  0.56293867  0.20111874  1  0  0.417097  0  0.861447  0  0  0.393523  0  0.929226  0  0  0.401163  0  0.91935  0  0  0.308428  0.388225  0  0.934623  0
C  C46  1  0.80386240  0.78540958  0.82652124  1  0  0.636408  0  3.940045  0  0  0.592616  0  4.232208  0  0  0.625439  0  4.229411  0  0  0.189471  0.569802  0  4.23628  0
C  C47  1  0.19612071  0.21459169  0.17347505  1  0  0.636491  0  3.940065  0  0  0.592662  0  4.232271  0  0  0.625483  0  4.229474  0  0  0.18941  0.569851  0  4.236342  0
C  C48  1  0.90393087  0.89852234  0.91407720  1  0  -0.051662  0  3.707017  0  0  -0.038675  0  3.942358  0  0  -0.043528  0  3.961724  0  0  -0.002812  -0.035166  0  3.928654  0
C  C49  1  0.09606354  0.10147887  0.08592354  1  0  -0.051741  0  3.707129  0  0  -0.038722  0  3.942412  0  0  -0.043576  0  3.961773  0  0  -0.002804  -0.035215  0  3.928709  0
C  C50  1  0.89574849  0.92263692  0.01570644  1  0  -0.095719  0  3.710663  0  0  -0.126599  0  3.963867  0  0  -0.127293  0  3.982221  0  0  -0.076444  -0.125675  0  3.950742  0
C  C51  1  0.10424490  0.07736429  0.98429622  1  0  -0.095661  0  3.710953  0  0  -0.126577  0  3.964115  0  0  -0.12727  0  3.982472  0  0  -0.076377  -0.125654  0  3.950991  0
C  C52  1  0.00913400  0.97673202  0.89753656  1  0  -0.012389  0  3.700187  0  0  -0.005799  0  3.938853  0  0  -0.00713  0  3.957775  0  0  -0.000692  -0.004933  0  3.925951  0
C  C53  1  0.99085836  0.02326920  0.10246656  1  0  -0.012289  0  3.70008  0  0  -0.005678  0  3.938646  0  0  -0.006997  0  3.957537  0  0  -0.000641  -0.004815  0  3.925751  0
C  C54  1  0.01742322  0.95961412  0.78789203  1  0  0.414746  0  3.705248  0  0  0.394308  0  3.970106  0  0  0.416661  0  3.970409  0  0  0.17148  0.378786  0  3.969972  0
C  C55  1  0.98256813  0.04038711  0.21211520  1  0  0.414698  0  3.704785  0  0  0.394305  0  3.969606  0  0  0.416653  0  3.969918  0  0  0.171483  0.378781  0  3.969472  0
C  C56  1  0.13514520  0.91295687  0.77148767  1  0  -0.041799  0  3.777736  0  0  -0.022622  0  4.008452  0  0  -0.029613  0  4.033044  0  0  -0.019446  -0.018105  0  3.992415  0
C  C57  1  0.86485819  0.08704981  0.22852735  1  0  -0.041909  0  3.777942  0  0  -0.022772  0  4.008675  0  0  -0.029767  0  4.033276  0  0  -0.019522  -0.018251  0  3.992634  0
C  C58  1  0.25720606  0.91301359  0.85893792  1  0  -0.095519  0  3.76224  0  0  -0.11821  0  4.010549  0  0  -0.11941  0  4.033979  0  0  -0.087529  -0.117184  0  3.994792  0
C  C59  1  0.74280245  0.08699306  0.14107482  1  0  -0.095448  0  3.762407  0  0  -0.118119  0  4.010691  0  0  -0.119319  0  4.034125  0  0  -0.087537  -0.117093  0  3.994934  0
C  C60  1  0.36956464  0.87660552  0.83976813  1  0  -0.086466  0  3.774399  0  0  -0.095163  0  4.020112  0  0  -0.098832  0  4.041469  0  0  -0.09413  -0.092707  0  4.005681  0
C  C61  1  0.63044181  0.12340114  0.16024041  1  0  -0.086366  0  3.774239  0  0  -0.095098  0  4.019926  0  0  -0.098773  0  4.041289  0  0  -0.094053  -0.092639  0  4.00549  0
C  C62  1  0.35973104  0.83722773  0.73325555  1  0  -0.034696  0  3.708755  0  0  -0.052169  0  3.959109  0  0  -0.051595  0  3.978685  0  0  -0.078043  -0.052465  0  3.94584  0
C  C63  1  0.64027175  0.16277711  0.26675096  1  0  -0.03482  0  3.708799  0  0  -0.052293  0  3.959158  0  0  -0.051718  0  3.978737  0  0  -0.078097  -0.052574  0  3.945899  0
C  C64  1  0.23680960  0.83444706  0.64546384  1  0  -0.082198  0  3.742086  0  0  -0.091971  0  3.993588  0  0  -0.096993  0  4.016364  0  0  -0.092443  -0.088506  0  3.978129  0
C  C65  1  0.76319334  0.16556146  0.35454481  1  0  -0.082081  0  3.742061  0  0  -0.091883  0  3.993542  0  0  -0.096906  0  4.016323  0  0  -0.092426  -0.088417  0  3.978074  0
C  C66  1  0.12621388  0.87317295  0.66480558  1  0  -0.05666  0  3.715414  0  0  -0.08079  0  3.961327  0  0  -0.079914  0  3.980777  0  0  -0.075789  -0.081308  0  3.94853  0
C  C67  1  0.87378847  0.12683373  0.33520698  1  0  -0.056687  0  3.715273  0  0  -0.080825  0  3.961217  0  0  -0.079961  0  3.980659  0  0  -0.075834  -0.081324  0  3.948432  0
C  C68  1  0.48284723  0.74440704  0.49414613  1  0  0.719263  0  3.849183  0  0  0.672062  0  4.142887  0  0  0.707117  0  4.134058  0  0  0.234398  0.648429  0  4.150068  0
C  C69  1  0.51714380  0.25558683  0.50585172  1  0  0.719369  0  3.848964  0  0  0.672076  0  4.14284  0  0  0.707131  0  4.134013  0  0  0.234396  0.648445  0  4.150021  0
C  C70  1  0.48756460  0.87620690  0.49762086  1  0  -0.067463  0  3.699442  0  0  -0.054331  0  3.937494  0  0  -0.058897  0  3.956185  0  0  -0.005289  -0.051436  0  3.924538  0
C  C71  1  0.51243127  0.12379247  0.50237630  1  0  -0.067614  0  3.699442  0  0  -0.054488  0  3.937559  0  0  -0.059057  0  3.95625  0  0  -0.005385  -0.051591  0  3.924603  0
C  C72  1  0.60781473  0.96804252  0.57534023  1  0  -0.094559  0  3.68089  0  0  -0.126656  0  3.932891  0  0  -0.126957  0  3.949548  0  0  -0.075631  -0.126143  0  3.921454  0
C  C73  1  0.39218055  0.03195500  0.42465718  1  0  -0.094464  0  3.680832  0  0  -0.126548  0  3.932841  0  0  -0.126849  0  3.949504  0  0  -0.075578  -0.126037  0  3.921406  0
C  C74  1  0.37817327  0.90875901  0.42231202  1  0  -0.025108  0  3.723734  0  0  -0.018111  0  3.963136  0  0  -0.020051  0  3.982477  0  0  -0.005894  -0.016651  0  3.949948  0
C  C75  1  0.62182363  0.09124034  0.57768468  1  0  -0.025107  0  3.723668  0  0  -0.018058  0  3.963053  0  0  -0.019989  0  3.982399  0  0  -0.005843  -0.016596  0  3.949862  0
C  C76  1  0.24137375  0.81496667  0.34325892  1  0  0.416353  0  3.710633  0  0  0.394621  0  3.975195  0  0  0.417506  0  3.974766  0  0  0.171462  0.378633  0  3.975745  0
C  C77  1  0.75862314  0.18503269  0.65673268  1  0  0.416574  0  3.710452  0  0  0.394777  0  3.975088  0  0  0.417634  0  3.974702  0  0  0.171523  0.378791  0  3.975637  0
C  C78  1  0.21070291  0.78797803  0.22566273  1  0  -0.049011  0  3.791646  0  0  -0.031789  0  4.022832  0  0  -0.038499  0  4.045492  0  0  -0.019697  -0.027208  0  4.00753  0
C  C79  1  0.78929749  0.21201946  0.77432802  1  0  -0.049224  0  3.791919  0  0  -0.031971  0  4.02313  0  0  -0.038674  0  4.045793  0  0  -0.019733  -0.027391  0  4.007829  0
C  C80  1  0.31708004  0.82936833  0.19047852  1  0  -0.086915  0  3.749353  0  0  -0.107546  0  3.992295  0  0  -0.10846  0  4.014692  0  0  -0.084535  -0.10688  0  3.977086  0
C  C81  1  0.68292197  0.17062456  0.80951040  1  0  -0.086784  0  3.749455  0  0  -0.107358  0  3.992328  0  0  -0.108279  0  4.014743  0  0  -0.084522  -0.106691  0  3.97712  0
C  C82  1  0.28935030  0.79664782  0.07997554  1  0  -0.075231  0  3.771019  0  0  -0.084296  0  4.016393  0  0  -0.088076  0  4.039153  0  0  -0.088963  -0.081837  0  4.000891  0
C  C83  1  0.71064981  0.20334876  0.92001424  1  0  -0.075228  0  3.771201  0  0  -0.084312  0  4.016593  0  0  -0.088092  0  4.039349  0  0  -0.088977  -0.081849  0  4.001085  0
C  C84  1  0.15484878  0.72411030  0.00366145  1  0  -0.030787  0  3.703045  0  0  -0.050425  0  3.952848  0  0  -0.050493  0  3.973846  0  0  -0.075298  -0.050253  0  3.938693  0
C  C85  1  0.84515118  0.27588261  0.99632765  1  0  -0.030985  0  3.703385  0  0  -0.050687  0  3.953179  0  0  -0.050759  0  3.974181  0  0  -0.075316  -0.050512  0  3.939019  0
C  C86  1  0.04754894  0.68382075  0.03808779  1  0  -0.068675  0  3.737621  0  0  -0.079753  0  3.984547  0  0  -0.084376  0  4.006927  0  0  -0.084502  -0.076694  0  3.969588  0
C  C87  1  0.95244706  0.31618229  0.96190347  1  0  -0.068363  0  3.737175  0  0  -0.079457  0  3.984179  0  0  -0.08408  0  4.006563  0  0  -0.084484  -0.076398  0  3.969219  0
C  C88  1  0.07527405  0.71550474  0.14850938  1  0  -0.08471  0  3.735637  0  0  -0.103001  0  3.979835  0  0  -0.102188  0  3.998846  0  0  -0.081326  -0.103481  0  3.966744  0
C  C89  1  0.92472371  0.28450381  0.85147820  1  0  -0.084824  0  3.735442  0  0  -0.103272  0  3.979688  0  0  -0.102457  0  3.998691  0  0  -0.08145  -0.103746  0  3.966591  0
C  C90  1  0.70009452  0.49097417  0.42271469  1  0  0.689829  0  3.896996  0  0  0.641997  0  4.18954  0  0  0.675715  0  4.184975  0  0  0.219994  0.619515  0  4.194311  0
C  C91  1  0.29990663  0.50902240  0.57728412  1  0  0.689867  0  3.896961  0  0  0.642017  0  4.189564  0  0  0.675732  0  4.185003  0  0  0.219982  0.619531  0  4.194336  0
C  C92  1  0.85578552  0.49982780  0.46202771  1  0  -0.057771  0  3.696452  0  0  -0.042897  0  3.930554  0  0  -0.047786  0  3.949924  0  0  0.005852  -0.039555  0  3.916614  0
C  C93  1  0.14421343  0.50016511  0.53796697  1  0  -0.057722  0  3.696292  0  0  -0.042926  0  3.930531  0  0  -0.047808  0  3.949899  0  0  0.005841  -0.039581  0  3.916587  0
C  C94  1  0.92253642  0.47737175  0.56138243  1  0  -0.058387  0  3.662625  0  0  -0.093828  0  3.915519  0  0  -0.093734  0  3.933363  0  0  -0.057961  -0.093915  0  3.904319  0
C  C95  1  0.07746605  0.52262573  0.43861543  1  0  -0.058415  0  3.662574  0  0  -0.093891  0  3.915533  0  0  -0.093781  0  3.933388  0  0  -0.058032  -0.093981  0  3.904333  0
C  C96  1  0.93400131  0.52274264  0.39934257  1  0  -0.008762  0  3.692024  0  0  -0.002483  0  3.929393  0  0  -0.005116  0  3.948696  0  0  0.006751  -0.000687  0  3.916367  0
C  C97  1  0.06600087  0.47725392  0.60065506  1  0  -0.008876  0  3.691958  0  0  -0.002516  0  3.929316  0  0  -0.005167  0  3.948646  0  0  0.006691  -0.000723  0  3.916297  0
C  C98  1  0.87330237  0.54719502  0.29158224  1  0  0.427599  0  3.684972  0  0  0.403136  0  3.949745  0  0  0.427261  0  3.948409  0  0  0.180806  0.386374  0  3.950608  0
C  C99  1  0.12669643  0.45280064  0.70841653  1  0  0.427735  0  3.68472  0  0  0.403132  0  3.949736  0  0  0.427261  0  3.948402  0  0  0.180787  0.386358  0  3.950605  0
C  C100  1  0.80170510  0.64645973  0.28002669  1  0  -0.046685  0  3.788289  0  0  -0.031026  0  4.026434  0  0  -0.038299  0  4.050028  0  0  -0.017373  -0.025917  0  4.010114  0
C  C101  1  0.19830149  0.35353773  0.71997299  1  0  -0.046586  0  3.788176  0  0  -0.030999  0  4.026498  0  0  -0.038271  0  4.050093  0  0  -0.017352  -0.025864  0  4.010147  0
C  C102  1  0.72817024  0.65504478  0.17483066  1  0  -0.083715  0  3.735832  0  0  -0.103546  0  3.978964  0  0  -0.102607  0  3.997374  0  0  -0.079424  -0.104293  0  3.966105  0
C  C103  1  0.27183327  0.34495270  0.82517259  1  0  -0.083826  0  3.735823  0  0  -0.103631  0  3.978988  0  0  -0.102694  0  3.997399  0  0  -0.079436  -0.104387  0  3.966125  0
C  C104  1  0.66667973  0.75165844  0.16179877  1  0  -0.082787  0  3.7755  0  0  -0.0948  0  4.0272  0  0  -0.098994  0  4.049406  0  0  -0.087472  -0.091418  0  4.011264  0
C  C105  1  0.33332760  0.24834453  0.83820790  1  0  -0.082828  0  3.775508  0  0  -0.094821  0  4.027191  0  0  -0.099014  0  4.049395  0  0  -0.087516  -0.09144  0  4.011261  0
C  C106  1  0.67927738  0.84086493  0.25333465  1  0  -0.04719  0  3.751476  0  0  -0.065471  0  4.00237  0  0  -0.065771  0  4.025517  0  0  -0.077859  -0.064912  0  3.986403  0
C  C107  1  0.32073274  0.15913711  0.74667407  1  0  -0.047207  0  3.75169  0  0  -0.065495  0  4.002555  0  0  -0.065796  0  4.025698  0  0  -0.077872  -0.064937  0  3.986588  0
C  C108  1  0.75232196  0.83299461  0.35803931  1  0  -0.059162  0  3.722268  0  0  -0.070189  0  3.970885  0  0  -0.073524  0  3.992078  0  0  -0.079214  -0.068241  0  3.956756  0
C  C109  1  0.24768111  0.16699827  0.64196668  1  0  -0.059186  0  3.722368  0  0  -0.070205  0  3.970968  0  0  -0.073542  0  3.992165  0  0  -0.079241  -0.068256  0  3.956834  0
C  C110  1  0.81317727  0.73596512  0.37139576  1  0  -0.05057  0  3.685268  0  0  -0.075842  0  3.932949  0  0  -0.075555  0  3.953597  0  0  -0.069717  -0.075848  0  3.919041  0
C  C111  1  0.18683415  0.26403139  0.62860724  1  0  -0.050774  0  3.685549  0  0  -0.076031  0  3.933242  0  0  -0.075746  0  3.953893  0  0  -0.069776  -0.076044  0  3.919325  0
O  O112  1  0.83344629  0.74528515  0.74505753  1  0  -0.670286  0  1.931244  0  0  -0.621601  0  2.158603  0  0  -0.651139  0  2.151452  0  0  -0.373573  -0.603509  0  2.162536  0
O  O113  1  0.16654180  0.25472529  0.25493803  1  0  -0.670244  0  1.931228  0  0  -0.621566  0  2.158604  0  0  -0.651098  0  2.151458  0  0  -0.373519  -0.603473  0  2.162539  0
O  O114  1  0.69338940  0.73021594  0.83701399  1  0  -0.693294  0  1.895883  0  0  -0.64445  0  2.119673  0  0  -0.671836  0  2.108381  0  0  -0.396814  -0.628421  0  2.126206  0
O  O115  1  0.30659166  0.26978535  0.16298176  1  0  -0.693379  0  1.895867  0  0  -0.644535  0  2.119676  0  0  -0.671914  0  2.10839  0  0  -0.396826  -0.628496  0  2.126194  0
O  O116  1  0.93323661  0.99227983  0.71673626  1  0  -0.446068  0  1.928828  0  0  -0.409063  0  2.134028  0  0  -0.426737  0  2.131049  0  0  -0.251744  -0.396854  0  2.135988  0
O  O117  1  0.06677292  0.00772037  0.28327491  1  0  -0.446087  0  1.928336  0  0  -0.409103  0  2.133521  0  0  -0.42678  0  2.130552  0  0  -0.251732  -0.396892  0  2.135478  0
O  O118  1  0.53889253  0.72262726  0.58453443  1  0  -0.71296  0  2.026105  0  0  -0.660898  0  2.274041  0  0  -0.691451  0  2.26287  0  0  -0.380259  -0.644057  0  2.280232  0
O  O119  1  0.46109733  0.27736938  0.41546358  1  0  -0.71304  0  2.025977  0  0  -0.660954  0  2.273951  0  0  -0.691489  0  2.262767  0  0  -0.380284  -0.64411  0  2.280142  0
O  O120  1  0.42525164  0.66500656  0.40042759  1  0  -0.752138  0  2.023353  0  0  -0.699332  0  2.27691  0  0  -0.729992  0  2.265318  0  0  -0.384058  -0.68179  0  2.283586  0
O  O121  1  0.57474042  0.33498731  0.59956834  1  0  -0.752067  0  2.023194  0  0  -0.699201  0  2.276773  0  0  -0.729867  0  2.265179  0  0  -0.383975  -0.681663  0  2.283447  0
O  O122  1  0.15832808  0.76363927  0.37708350  1  0  -0.452895  0  1.939737  0  0  -0.407791  0  2.146465  0  0  -0.426531  0  2.144303  0  0  -0.247124  -0.394953  0  2.148109  0
O  O123  1  0.84166073  0.23635737  0.62290256  1  0  -0.452934  0  1.939647  0  0  -0.407861  0  2.14647  0  0  -0.426585  0  2.144314  0  0  -0.24716  -0.39503  0  2.148121  0
O  O124  1  0.62162791  0.44806086  0.32185206  1  0  -0.67462  0  1.97515  0  0  -0.624364  0  2.205761  0  0  -0.652991  0  2.197928  0  0  -0.354623  -0.607411  0  2.210071  0
O  O125  1  0.37837353  0.55193663  0.67814553  1  0  -0.674628  0  1.975199  0  0  -0.624345  0  2.205813  0  0  -0.652979  0  2.197979  0  0  -0.354653  -0.607389  0  2.210116  0
O  O126  1  0.64885593  0.52501105  0.49315960  1  0  -0.81732  0  2.123472  0  0  -0.758135  0  2.381242  0  0  -0.79273  0  2.368101  0  0  -0.423607  -0.741474  0  2.38843  0
O  O127  1  0.35114552  0.47498645  0.50684019  1  0  -0.817349  0  2.123562  0  0  -0.758147  0  2.381338  0  0  -0.792739  0  2.3682  0  0  -0.423577  -0.741485  0  2.388528  0
O  O128  1  0.89299887  0.48817328  0.21384592  1  0  -0.48184  0  1.98167  0  0  -0.432186  0  2.191403  0  0  -0.450716  0  2.184646  0  0  -0.247937  -0.419436  0  2.196198  0
O  O129  1  0.10700492  0.51182512  0.78615465  1  0  -0.481914  0  1.981608  0  0  -0.432157  0  2.191359  0  0  -0.450691  0  2.184611  0  0  -0.247901  -0.419406  0  2.196155  0
O  O130  1  0.58045232  0.44691123  0.80238270  1  0  -0.846852  0  1.832998  0  0  -0.799644  0  2.015973  0  0  -0.820782  0  1.987977  0  0  -0.606055  -0.787691  0  2.031276  0
O  O131  1  0.41954693  0.55308903  0.19761552  1  0  -0.846847  0  1.833023  0  0  -0.799651  0  2.015999  0  0  -0.820783  0  1.987982  0  0  -0.606058  -0.787696  0  2.031284  0
O  O132  1  0.84324173  0.51344272  0.77847338  1  0  -0.881572  0  1.888586  0  0  -0.833099  0  2.085574  0  0  -0.855949  0  2.054933  0  0  -0.623612  -0.820667  0  2.103346  0
O  O133  1  0.15676016  0.48655937  0.22152439  1  0  -0.881607  0  1.888547  0  0  -0.83312  0  2.085555  0  0  -0.855945  0  2.054915  0  0  -0.623614  -0.820692  0  2.103341  0
