# generated using pymatgen
data_CdH7C8NO5
_symmetry_space_group_name_H-M   'P 1'
_cell_length_a   7.00447778
_cell_length_b   10.56534303
_cell_length_c   12.40653172
_cell_angle_alpha   84.31102223
_cell_angle_beta   90.00053575
_cell_angle_gamma   90.00007498
_symmetry_Int_Tables_number   1
_chemical_formula_structural   CdH7C8NO5
_chemical_formula_sum   'Cd4 H28 C32 N4 O20'
_cell_volume   913.61962630
_cell_formula_units_Z   4
loop_
 _symmetry_equiv_pos_site_id
 _symmetry_equiv_pos_as_xyz
  1  'x, y, z'
loop_
 _atom_site_type_symbol
 _atom_site_label
 _atom_site_symmetry_multiplicity
 _atom_site_fract_x
 _atom_site_fract_y
 _atom_site_fract_z
 _atom_site_occupancy
 _atom_site_pbe_bader_charge
 _atom_site_pbe_bader_spin_density
 _atom_site_pbe_cm5_charge
 _atom_site_pbe_ddec_charge
 _atom_site_pbe_ddec_spin_density
 _atom_site_pbe_ddec_sum_bond_order
 _atom_site_pbe_magmom
Cd  Cd0  1  0.85718493  0.59259164  0.39877629  1  1.265212  0  0.772014  0.968216  0  2.055736  0
Cd  Cd1  1  0.35717736  0.90741126  0.10122023  1  1.265234  0  0.77196  0.968109  0  2.055761  0
Cd  Cd2  1  0.14282079  0.40741782  0.60121324  1  1.265228  0  0.771963  0.968146  0  2.055822  0
Cd  Cd3  1  0.64282835  0.09258388  0.89879064  1  1.265195  0  0.771982  0.968167  0  2.055715  0
H  H4  1  0.44490522  0.94727754  0.76820849  1  0.442208  0  0.315818  0.315992  0  0.901406  0
H  H5  1  0.94488100  0.55272297  0.73178957  1  0.442414  0  0.31594  0.31614  0  0.901364  0
H  H6  1  0.55510763  0.05273093  0.23179644  1  0.442311  0  0.315885  0.316038  0  0.901534  0
H  H7  1  0.05512186  0.44727410  0.26820743  1  0.442367  0  0.315949  0.316179  0  0.901465  0
H  H8  1  0.35823750  0.09226074  0.73518058  1  0.471332  0  0.297293  0.307369  0  0.964076  0
H  H9  1  0.85822034  0.40773744  0.76481817  1  0.471231  0  0.297328  0.307434  0  0.964034  0
H  H10  1  0.64176535  0.90774868  0.26482346  1  0.471343  0  0.297353  0.307415  0  0.963977  0
H  H11  1  0.14177966  0.59225773  0.23517819  1  0.471222  0  0.297303  0.307438  0  0.964018  0
H  H12  1  0.86118266  0.08387900  0.37539572  1  0.094996  0  0.107009  0.113736  0  1.00219  0
H  H13  1  0.36119667  0.41612575  0.12459997  1  0.094983  0  0.106966  0.113668  0  1.002188  0
H  H14  1  0.13881591  0.91611808  0.62460290  1  0.094958  0  0.107008  0.113735  0  1.002171  0
H  H15  1  0.63879048  0.58387511  0.87540478  1  0.095163  0  0.106973  0.113653  0  1.002241  0
H  H16  1  0.60376137  0.25809015  0.63850882  1  0.12751  0  0.108853  0.135458  0  1.008624  0
H  H17  1  0.10374062  0.24191289  0.86149153  1  0.127682  0  0.108915  0.135497  0  1.008566  0
H  H18  1  0.39624863  0.74191358  0.36148763  1  0.127793  0  0.108866  0.135456  0  1.008645  0
H  H19  1  0.89626367  0.75808608  0.13851096  1  0.1278  0  0.10889  0.135464  0  1.008591  0
H  H20  1  0.62052040  0.84863383  0.64484805  1  0.150718  0  0.112642  0.134884  0  0.998778  0
H  H21  1  0.12051225  0.65136958  0.85514822  1  0.150139  0  0.112625  0.134819  0  0.998839  0
H  H22  1  0.37948817  0.15137178  0.35516034  1  0.150688  0  0.112647  0.134897  0  0.9988  0
H  H23  1  0.87949775  0.34862751  0.14484476  1  0.150131  0  0.112628  0.134813  0  0.998851  0
H  H24  1  0.59504948  0.46331300  0.31076965  1  0.656238  0  0.289568  0.384416  0  0.950553  0
H  H25  1  0.09504750  0.03668883  0.18922662  1  0.656256  0  0.289581  0.384409  0  0.950555  0
H  H26  1  0.40495196  0.53669452  0.68923213  1  0.656441  0  0.289552  0.384404  0  0.950547  0
H  H27  1  0.90495822  0.96330064  0.81077101  1  0.65651  0  0.289613  0.384349  0  0.950597  0
H  H28  1  0.50773858  0.58772472  0.24479075  1  0.647411  0  0.289928  0.392691  0  0.938648  0
H  H29  1  0.00773221  0.91227880  0.25520647  1  0.647323  0  0.289937  0.392739  0  0.93857  0
H  H30  1  0.49226999  0.41228282  0.75520701  1  0.647316  0  0.289984  0.392787  0  0.938524  0
H  H31  1  0.99228207  0.08771159  0.74479995  1  0.647437  0  0.290049  0.392854  0  0.938421  0
C  C32  1  0.79830948  0.83450416  0.45790813  1  1.523273  0  0.200917  0.561159  0  4.211907  0
C  C33  1  0.29831241  0.66549980  0.04208561  1  1.523497  0  0.200978  0.561203  0  4.211746  0
C  C34  1  0.20169623  0.16549575  0.54209993  1  1.522556  0  0.200939  0.561175  0  4.212048  0
C  C35  1  0.70169045  0.33450109  0.95790786  1  1.523169  0  0.20098  0.561164  0  4.211849  0
C  C36  1  0.75236752  0.95401513  0.50723450  1  -0.054105  0  -0.019091  -0.025934  0  4.007959  0
C  C37  1  0.25236930  0.54598830  0.99276240  1  -0.054489  0  -0.019132  -0.026006  0  4.008038  0
C  C38  1  0.24763534  0.04598763  0.49277171  1  -0.054104  0  -0.019113  -0.025925  0  4.007891  0
C  C39  1  0.74763356  0.45401164  0.00723275  1  -0.054468  0  -0.019096  -0.025945  0  4.008094  0
C  C40  1  0.79106409  0.07429781  0.45408831  1  -0.021143  0  -0.083508  -0.12898  0  3.953464  0
C  C41  1  0.29107068  0.42570592  0.04590632  1  -0.02099  0  -0.083526  -0.128953  0  3.953271  0
C  C42  1  0.20893592  0.92570306  0.54591321  1  -0.021072  0  -0.083535  -0.128985  0  3.953388  0
C  C43  1  0.70892504  0.57429400  0.95409448  1  -0.021272  0  -0.083511  -0.128816  0  3.953333  0
C  C44  1  0.74092068  0.18295787  0.50322450  1  -0.023791  0  -0.015431  -0.010408  0  3.98304  0
C  C45  1  0.24091439  0.31704432  0.99677175  1  -0.023452  0  -0.015373  -0.010406  0  3.983034  0
C  C46  1  0.25908217  0.81704396  0.49677291  1  -0.023292  0  -0.015476  -0.010507  0  3.983105  0
C  C47  1  0.75907419  0.68295274  0.00323251  1  -0.023143  0  -0.015457  -0.010664  0  3.983252  0
C  C48  1  0.77464522  0.31213426  0.44510271  1  1.568705  0  0.211877  0.594716  0  4.171734  0
C  C49  1  0.27463770  0.18786922  0.05489509  1  1.568487  0  0.21191  0.594767  0  4.171691  0
C  C50  1  0.22534479  0.68786568  0.55488922  1  1.56837  0  0.211903  0.594821  0  4.171933  0
C  C51  1  0.72533660  0.81213163  0.94511531  1  1.568339  0  0.21198  0.594944  0  4.171662  0
C  C52  1  0.64572550  0.17200505  0.60289259  1  -0.017258  0  -0.08785  -0.193049  0  3.894026  0
C  C53  1  0.14571422  0.32799765  0.89710880  1  -0.017593  0  -0.088003  -0.193102  0  3.894182  0
C  C54  1  0.35428164  0.82799869  0.39710386  1  -0.017766  0  -0.087857  -0.193025  0  3.89393  0
C  C55  1  0.85428578  0.67199751  0.10289481  1  -0.017768  0  -0.087885  -0.192897  0  3.894102  0
C  C56  1  0.59651209  0.05168206  0.65192096  1  0.241526  0  0.078492  0.2545  0  4.059061  0
C  C57  1  0.09650060  0.44832088  0.84807857  1  0.241784  0  0.078443  0.254302  0  4.05923  0
C  C58  1  0.40349363  0.94832452  0.34807929  1  0.241799  0  0.0785  0.254502  0  4.05903  0
C  C59  1  0.90350940  0.55167714  0.15192239  1  0.241878  0  0.078394  0.254203  0  4.059367  0
C  C60  1  0.65542488  0.94286055  0.60625586  1  0.047118  0  -0.079778  -0.176389  0  3.900071  0
C  C61  1  0.15542168  0.55714241  0.89374384  1  0.048017  0  -0.079694  -0.176168  0  3.900137  0
C  C62  1  0.34457798  0.05714411  0.39375019  1  0.047039  0  -0.079811  -0.176465  0  3.900122  0
C  C63  1  0.84458261  0.44285657  0.10625220  1  0.047964  0  -0.079767  -0.176234  0  3.900213  0
N  N64  1  0.48246180  0.04028622  0.74835628  1  -1.157249  0  -0.603113  -0.605559  0  3.366825  0
N  N65  1  0.98244426  0.45971473  0.75164365  1  -1.157477  0  -0.60317  -0.605623  0  3.366827  0
N  N66  1  0.51754677  0.95972511  0.25164841  1  -1.157422  0  -0.603179  -0.605591  0  3.366939  0
N  N67  1  0.01756145  0.54027950  0.24835359  1  -1.157522  0  -0.603158  -0.605685  0  3.367153  0
O  O68  1  0.77965353  0.72972463  0.51781061  1  -1.132244  0  -0.322122  -0.520898  0  2.197691  0
O  O69  1  0.27964695  0.77027540  0.98218347  1  -1.132707  0  -0.322058  -0.520778  0  2.197706  0
O  O70  1  0.22035361  0.27027622  0.48219817  1  -1.13214  0  -0.322133  -0.520921  0  2.197833  0
O  O71  1  0.72035448  0.22972263  0.01781345  1  -1.132306  0  -0.322144  -0.520881  0  2.197678  0
O  O72  1  0.84853213  0.83725019  0.35812351  1  -1.200374  0  -0.325739  -0.597752  0  2.233518  0
O  O73  1  0.34853979  0.66275354  0.14187048  1  -1.200229  0  -0.325838  -0.597909  0  2.233488  0
O  O74  1  0.15146930  0.16275067  0.64188205  1  -1.199789  0  -0.325716  -0.597699  0  2.233631  0
O  O75  1  0.65146164  0.33724640  0.85812548  1  -1.200289  0  -0.325757  -0.597778  0  2.23361  0
O  O76  1  0.74219055  0.32780613  0.34495411  1  -1.180151  0  -0.315831  -0.549195  0  2.143744  0
O  O77  1  0.24218246  0.17219594  0.15504204  1  -1.180319  0  -0.315858  -0.549176  0  2.143739  0
O  O78  1  0.25777233  0.67219000  0.65504136  1  -1.180131  0  -0.31583  -0.549265  0  2.143769  0
O  O79  1  0.75775187  0.82780683  0.84496256  1  -1.18017  0  -0.315889  -0.549276  0  2.143603  0
O  O80  1  0.83033733  0.40174472  0.50253625  1  -1.167139  0  -0.340948  -0.593185  0  2.297921  0
O  O81  1  0.33032906  0.09825782  0.99746201  1  -1.167077  0  -0.340907  -0.593195  0  2.297844  0
O  O82  1  0.16967409  0.59825810  0.49744738  1  -1.167287  0  -0.340903  -0.593169  0  2.297999  0
O  O83  1  0.66967380  0.90174110  0.00255660  1  -1.167373  0  -0.340919  -0.59321  0  2.297871  0
O  O84  1  0.55655423  0.55282731  0.31640095  1  -1.282698  0  -0.590995  -0.761736  0  2.034738  0
O  O85  1  0.05654838  0.94717503  0.18359498  1  -1.282659  0  -0.591027  -0.76179  0  2.034721  0
O  O86  1  0.44345291  0.44718118  0.68359753  1  -1.282824  0  -0.591047  -0.761839  0  2.034593  0
O  O87  1  0.94345590  0.05281348  0.81640756  1  -1.283027  0  -0.591159  -0.761859  0  2.034655  0
