# generated using pymatgen
data_LaFe2H25C36(NO4)2
_symmetry_space_group_name_H-M   'P 1'
_cell_length_a   11.67622772
_cell_length_b   12.05874291
_cell_length_c   13.71220000
_cell_angle_alpha   94.44063103
_cell_angle_beta   109.28679284
_cell_angle_gamma   117.70540931
_symmetry_Int_Tables_number   1
_chemical_formula_structural   LaFe2H25C36(NO4)2
_chemical_formula_sum   'La2 Fe4 H50 C72 N4 O16'
_cell_volume   1550.53918427
_cell_formula_units_Z   2
loop_
 _symmetry_equiv_pos_site_id
 _symmetry_equiv_pos_as_xyz
  1  'x, y, z'
loop_
 _atom_site_type_symbol
 _atom_site_label
 _atom_site_symmetry_multiplicity
 _atom_site_fract_x
 _atom_site_fract_y
 _atom_site_fract_z
 _atom_site_occupancy
 _atom_site_hle17_bader_spin_density
 _atom_site_hle17_ddec_charge
 _atom_site_hle17_ddec_spin_density
 _atom_site_hle17_ddec_sum_bond_order
 _atom_site_hle17_magmom
 _atom_site_hse06_10hf_bader_spin_density
 _atom_site_hse06_10hf_ddec_charge
 _atom_site_hse06_10hf_ddec_spin_density
 _atom_site_hse06_10hf_ddec_sum_bond_order
 _atom_site_hse06_10hf_magmom
 _atom_site_hse06_bader_spin_density
 _atom_site_hse06_ddec_charge
 _atom_site_hse06_ddec_spin_density
 _atom_site_hse06_ddec_sum_bond_order
 _atom_site_hse06_magmom
 _atom_site_pbe_bader_charge
 _atom_site_pbe_bader_spin_density
 _atom_site_pbe_cm5_charge
 _atom_site_pbe_ddec_charge
 _atom_site_pbe_ddec_spin_density
 _atom_site_pbe_ddec_sum_bond_order
 _atom_site_pbe_magmom
La  La0  1  0.20055837  0.64134843  0.61717446  1  0  2.029392  0  1.873854  0  0  1.885174  0  2.415548  0  0  1.989159  0  2.316354  0  2.247712  0  1.40757  1.807133  0  2.485122  0
La  La1  1  0.79944243  0.35865237  0.38282450  1  0  2.029421  0  1.873811  0  0  1.885213  0  2.415515  0  0  1.989194  0  2.316322  0  2.247693  0  1.407557  1.807167  0  2.485085  0
Fe  Fe2  1  0.14970779  0.23733164  0.74924983  1  0  0.115551  0  3.550179  0  0  0.214273  0  3.965777  0  0  0.219613  0  3.951574  0  0.722981  0  0.540302  0.218157  0  3.968493  0
Fe  Fe3  1  0.85029412  0.76267111  0.25075104  1  0  0.115509  0  3.550268  0  0  0.214328  0  3.965801  0  0  0.219608  0  3.951604  0  0.72299  0  0.540292  0.218139  0  3.968545  0
Fe  Fe4  1  0.77310576  0.65607616  0.75159191  1  0  0.128323  0  3.566647  0  0  0.229161  0  3.978152  0  0  0.23359  0  3.964838  0  0.741151  0  0.547554  0.233293  0  3.98011  0
Fe  Fe5  1  0.22689540  0.34392367  0.24840782  1  0  0.128307  0  3.566642  0  0  0.229231  0  3.978116  0  0  0.233557  0  3.964804  0  0.741018  0  0.547581  0.23331  0  3.980097  0
H  H6  1  0.48052648  0.67481646  0.88292311  1  0  0.386367  0  0.921648  0  0  0.352475  0  1.006341  0  0  0.36641  0  0.992617  0  0.633961  0  0.294325  0.3428  0  1.015777  0
H  H7  1  0.51947250  0.32518434  0.11707753  1  0  0.386337  0  0.921651  0  0  0.352454  0  1.006331  0  0  0.36639  0  0.992608  0  0.633964  0  0.294306  0.342777  0  1.015771  0
H  H8  1  0.92484295  0.02312519  0.57451538  1  0  0.123987  0  0.93678  0  0  0.140474  0  0.988136  0  0  0.143419  0  0.987202  0  0.098857  0  0.112047  0.138361  0  0.989052  0
H  H9  1  0.07515932  0.97687659  0.42548479  1  0  0.123953  0  0.936788  0  0  0.140438  0  0.988153  0  0  0.143381  0  0.98722  0  0.098855  0  0.112011  0.138307  0  0.989091  0
H  H10  1  0.15616406  0.01078630  0.68721769  1  0  0.118631  0  0.943875  0  0  0.132981  0  0.997999  0  0  0.135794  0  0.997375  0  0.083701  0  0.109686  0.131019  0  0.998606  0
H  H11  1  0.84383784  0.98921645  0.31278245  1  0  0.11866  0  0.943885  0  0  0.133018  0  0.997999  0  0  0.135831  0  0.997375  0  0.083673  0  0.109696  0.131041  0  0.998624  0
H  H12  1  0.39040992  0.24695422  0.73470739  1  0  0.109935  0  0.96209  0  0  0.123614  0  1.019117  0  0  0.125946  0  1.019442  0  0.089283  0  0.103915  0.121982  0  1.019049  0
H  H13  1  0.60959199  0.75304853  0.26529203  1  0  0.109963  0  0.962047  0  0  0.123632  0  1.019087  0  0  0.125964  0  1.019411  0  0.087928  0  0.103909  0.121987  0  1.019034  0
H  H14  1  0.30523081  0.40670971  0.65110402  1  0  0.13585  0  0.956399  0  0  0.14755  0  1.014771  0  0  0.150935  0  1.013419  0  0.136856  0  0.117452  0.145072  0  1.01598  0
H  H15  1  0.69477055  0.59329206  0.34889517  1  0  0.135859  0  0.95641  0  0  0.14756  0  1.014776  0  0  0.150944  0  1.013423  0  0.136785  0  0.117452  0.145073  0  1.015991  0
H  H16  1  0.98243096  0.33962942  0.76310823  1  0  0.124675  0  0.941065  0  0  0.139629  0  0.995604  0  0  0.142918  0  0.993487  0  0.101251  0  0.1156  0.137288  0  0.997256  0
H  H17  1  0.01756782  0.66036943  0.23689150  1  0  0.124674  0  0.94106  0  0  0.139635  0  0.995592  0  0  0.142922  0  0.993476  0  0.101239  0  0.115593  0.137282  0  0.997256  0
H  H18  1  0.91393446  0.10073447  0.79890322  1  0  0.113621  0  0.966129  0  0  0.128056  0  1.020644  0  0  0.130533  0  1.020943  0  0.098904  0  0.104762  0.126375  0  1.020496  0
H  H19  1  0.08606669  0.89926536  0.20109651  1  0  0.113582  0  0.966161  0  0  0.128017  0  1.020674  0  0  0.130493  0  1.020976  0  0.098871  0  0.104739  0.126323  0  1.020537  0
H  H20  1  0.15994741  0.11494271  0.91683275  1  0  0.108403  0  0.956061  0  0  0.12325  0  1.012267  0  0  0.126228  0  1.010881  0  0.086347  0  0.10657  0.121156  0  1.013427  0
H  H21  1  0.84005450  0.88506004  0.08316812  1  0  0.108391  0  0.956065  0  0  0.123241  0  1.012272  0  0  0.12622  0  1.010885  0  0.086304  0  0.106561  0.121136  0  1.013444  0
H  H22  1  0.37825620  0.35918354  0.95409901  1  0  0.137297  0  0.964007  0  0  0.147563  0  1.023534  0  0  0.151703  0  1.02012  0  0.163375  0  0.112652  0.144632  0  1.026087  0
H  H23  1  0.62174354  0.64082018  0.04590350  1  0  0.137305  0  0.963912  0  0  0.14756  0  1.02347  0  0  0.151701  0  1.020052  0  0.163464  0  0.112643  0.144616  0  1.026033  0
H  H24  1  0.57450407  0.63664679  0.55853742  1  0  0.120985  0  0.94053  0  0  0.136992  0  0.994053  0  0  0.140289  0  0.991578  0  0.082092  0  0.114065  0.134587  0  0.995968  0
H  H25  1  0.42549416  0.36335109  0.44146282  1  0  0.120994  0  0.940485  0  0  0.137007  0  0.994006  0  0  0.140304  0  0.991529  0  0.082122  0  0.114064  0.134618  0  0.995906  0
H  H26  1  0.84847200  0.73900695  0.58442605  1  0  0.123771  0  0.94516  0  0  0.141425  0  0.991269  0  0  0.143806  0  0.991622  0  0.111052  0  0.113424  0.139794  0  0.991113  0
H  H27  1  0.15152588  0.26099190  0.41557269  1  0  0.12377  0  0.945168  0  0  0.141421  0  0.99128  0  0  0.143803  0  0.991631  0  0.110859  0  0.113424  0.139791  0  0.991122  0
H  H28  1  0.01986330  0.89447600  0.78712479  1  0  0.103783  0  0.964996  0  0  0.117147  0  1.02562  0  0  0.119608  0  1.025176  0  0.055213  0  0.105225  0.115405  0  1.026187  0
H  H29  1  0.98013694  0.10552383  0.21287395  1  0  0.103766  0  0.965034  0  0  0.117132  0  1.025658  0  0  0.119592  0  1.025213  0  0.055226  0  0.10523  0.115403  0  1.026213  0
H  H30  1  0.85191126  0.88743815  0.88855072  1  0  0.119039  0  0.941109  0  0  0.135666  0  0.992453  0  0  0.139345  0  0.989467  0  0.092825  0  0.10933  0.132977  0  0.994801  0
H  H31  1  0.14808899  0.11256167  0.11144875  1  0  0.119034  0  0.941112  0  0  0.13566  0  0.99246  0  0  0.139337  0  0.989473  0  0.092823  0  0.109329  0.132978  0  0.994797  0
H  H32  1  0.01411231  0.64595261  0.87213624  1  0  0.118419  0  0.948077  0  0  0.135553  0  0.999085  0  0  0.138916  0  0.996695  0  0.091541  0  0.110665  0.133224  0  1.000851  0
H  H33  1  0.98588773  0.35404526  0.12786304  1  0  0.118459  0  0.947993  0  0  0.135545  0  0.99906  0  0  0.138908  0  0.996666  0  0.091549  0  0.110671  0.133225  0  1.000818  0
H  H34  1  0.83596944  0.63240517  0.96350690  1  0  0.119874  0  0.981612  0  0  0.137869  0  1.029381  0  0  0.139459  0  1.031456  0  0.103159  0  0.103893  0.136761  0  1.028073  0
H  H35  1  0.16403026  0.36759368  0.03649235  1  0  0.119881  0  0.98158  0  0  0.137887  0  1.029341  0  0  0.139477  0  1.031415  0  0.103137  0  0.103884  0.136776  0  1.028039  0
H  H36  1  0.56671933  0.48080933  0.81307847  1  0  0.122051  0  0.933744  0  0  0.139141  0  0.98301  0  0  0.14177  0  0.982589  0  0.089706  0  0.113671  0.137227  0  0.983454  0
H  H37  1  0.43328092  0.51919049  0.18692173  1  0  0.122035  0  0.933731  0  0  0.139125  0  0.983003  0  0  0.141752  0  0.982581  0  0.089526  0  0.113673  0.137225  0  0.983433  0
H  H38  1  0.57644778  0.39771772  0.62728331  1  0  0.116281  0  0.945493  0  0  0.133473  0  0.998167  0  0  0.136537  0  0.996185  0  0.091453  0  0.110188  0.131276  0  0.999746  0
H  H39  1  0.42355191  0.60228113  0.37271522  1  0  0.116273  0  0.945477  0  0  0.133466  0  0.998155  0  0  0.13653  0  0.996169  0  0.09142  0  0.110178  0.131284  0  0.999714  0
H  H40  1  0.44522275  0.76714079  0.50232164  1  0  0.079015  0  0.951161  0  0  0.084651  0  1.020781  0  0  0.087916  0  1.017058  0  0.121124  0  0.120024  0.082171  0  1.023597  0
H  H41  1  0.55477840  0.23285903  0.49768027  1  0  0.078996  0  0.951163  0  0  0.084641  0  1.02077  0  0  0.087906  0  1.017048  0  0.121181  0  0.120027  0.082164  0  1.023588  0
H  H42  1  0.66635145  0.96248317  0.50847406  1  0  0.114714  0  0.930227  0  0  0.127788  0  0.982629  0  0  0.131278  0  0.981648  0  0.103907  0  0.113929  0.125064  0  0.983876  0
H  H43  1  0.33364824  0.03751569  0.49152592  1  0  0.114693  0  0.930256  0  0  0.127766  0  0.982661  0  0  0.131257  0  0.981681  0  0.103889  0  0.113923  0.125044  0  0.983912  0
H  H44  1  0.77538159  0.17260704  0.64293399  1  0  0.108917  0  0.937188  0  0  0.1202  0  0.996927  0  0  0.12269  0  0.995521  0  0.096275  0  0.116505  0.118358  0  0.998047  0
H  H45  1  0.22461684  0.82739278  0.35706571  1  0  0.108949  0  0.937188  0  0  0.120238  0  0.996916  0  0  0.122728  0  0.995509  0  0.096286  0  0.116538  0.118402  0  0.99803  0
H  H46  1  0.47825573  0.18140118  0.99287119  1  0  0.110085  0  0.955869  0  0  0.120482  0  1.016192  0  0  0.123247  0  1.014336  0  0.138914  0  0.114125  0.11842  0  1.017707  0
H  H47  1  0.52174305  0.81859767  0.00712927  1  0  0.110109  0  0.955876  0  0  0.120502  0  1.016194  0  0  0.123265  0  1.014339  0  0.138965  0  0.114129  0.118442  0  1.017705  0
H  H48  1  0.26544913  0.97424507  0.97626503  1  0  0.106638  0  0.93339  0  0  0.120008  0  0.985675  0  0  0.123514  0  0.984507  0  0.075039  0  0.111081  0.117387  0  0.986846  0
H  H49  1  0.73454910  0.02575280  0.02373448  1  0  0.106658  0  0.933358  0  0  0.120047  0  0.985622  0  0  0.123554  0  0.984451  0  0.075066  0  0.111096  0.117425  0  0.986799  0
H  H50  1  0.16879310  0.77420690  0.82823309  1  0  0.080146  0  0.968232  0  0  0.084293  0  1.03958  0  0  0.087505  0  1.03601  0  0.110101  0  0.121162  0.081822  0  1.042362  0
H  H51  1  0.83120478  0.22579195  0.17176638  1  0  0.080108  0  0.968255  0  0  0.08429  0  1.039572  0  0  0.087504  0  1.035999  0  0.110082  0  0.121146  0.081808  0  1.042368  0
H  H52  1  0.77530834  0.29697838  0.80087860  1  0  0.103488  0  0.952927  0  0  0.118299  0  1.006233  0  0  0.12023  0  1.007149  0  0.081669  0  0.106315  0.116778  0  1.00593  0
H  H53  1  0.22469281  0.70302144  0.19912404  1  0  0.103454  0  0.952858  0  0  0.118264  0  1.00617  0  0  0.120195  0  1.007089  0  0.081662  0  0.106286  0.116737  0  1.005872  0
H  H54  1  0.66536171  0.29991886  0.92646187  1  0  0.10648  0  0.940177  0  0  0.120877  0  0.992817  0  0  0.123427  0  0.992512  0  0.081003  0  0.107982  0.118972  0  0.993183  0
H  H55  1  0.33463889  0.70007999  0.07354055  1  0  0.106529  0  0.94021  0  0  0.120895  0  0.992876  0  0  0.123471  0  0.99254  0  0.080892  0  0.107969  0.118994  0  0.993231  0
C  C56  1  0.99293038  0.28059378  0.53640303  1  0  0.685438  0  3.898592  0  0  0.644701  0  4.185995  0  0  0.682954  0  4.176582  0  1.528568  0  0.217438  0.618156  0  4.191874  0
C  C57  1  0.00707042  0.71940702  0.46359594  1  0  0.685464  0  3.89854  0  0  0.644732  0  4.18596  0  0  0.682986  0  4.176546  0  1.528547  0  0.217433  0.618192  0  4.191827  0
C  C58  1  0.08362508  0.23056669  0.59114594  1  0  -0.102874  0  3.737577  0  0  -0.094499  0  3.998772  0  0  -0.104415  0  4.016166  0  -0.135316  0  -0.078878  -0.088864  0  3.987869  0
C  C59  1  0.91637718  0.76943508  0.40885423  1  0  -0.102829  0  3.737369  0  0  -0.094515  0  3.99866  0  0  -0.10442  0  4.016041  0  -0.135254  0  -0.078902  -0.088872  0  3.987736  0
C  C60  1  0.03504509  0.10110580  0.60400842  1  0  -0.105692  0  3.677458  0  0  -0.141855  0  3.948969  0  0  -0.142186  0  3.963826  0  -0.099661  0  -0.142734  -0.142134  0  3.939301  0
C  C61  1  0.96495626  0.89889597  0.39599223  1  0  -0.105657  0  3.677393  0  0  -0.141819  0  3.948922  0  0  -0.142144  0  3.963772  0  -0.099656  0  -0.142711  -0.142101  0  3.939278  0
C  C62  1  0.15715242  0.09517515  0.66397067  1  0  -0.094272  0  3.699378  0  0  -0.12475  0  3.97652  0  0  -0.12761  0  3.992358  0  -0.128423  0  -0.144373  -0.123635  0  3.966253  0
C  C63  1  0.84284894  0.90482663  0.33602925  1  0  -0.094311  0  3.699478  0  0  -0.124805  0  3.976627  0  0  -0.127662  0  3.992459  0  -0.128571  0  -0.144413  -0.123693  0  3.966382  0
C  C64  1  0.28140690  0.22020339  0.68834578  1  0  -0.10651  0  3.712548  0  0  -0.132308  0  3.984507  0  0  -0.136116  0  4.002668  0  -0.180017  0  -0.148317  -0.13037  0  3.972614  0
C  C65  1  0.71859501  0.77979936  0.31165436  1  0  -0.106549  0  3.71258  0  0  -0.132346  0  3.984544  0  0  -0.13615  0  4.002697  0  -0.178603  0  -0.148314  -0.130412  0  3.972669  0
C  C66  1  0.23695612  0.30447236  0.64444465  1  0  -0.118137  0  3.666083  0  0  -0.15778  0  3.94189  0  0  -0.160532  0  3.9594  0  -0.114024  0  -0.143063  -0.15643  0  3.930535  0
C  C67  1  0.76304468  0.69552844  0.35555505  1  0  -0.118119  0  3.665946  0  0  -0.157758  0  3.941772  0  0  -0.160501  0  3.959272  0  -0.114006  0  -0.143053  -0.156402  0  3.930417  0
C  C68  1  0.28573768  0.52802752  0.85209162  1  0  0.692952  0  3.833505  0  0  0.646408  0  4.125834  0  0  0.685298  0  4.111519  0  1.562218  0  0.23681  0.6196  0  4.135233  0
C  C69  1  0.71426095  0.47197426  0.14790754  1  0  0.693067  0  3.833289  0  0  0.646489  0  4.125678  0  0  0.685377  0  4.111363  0  1.562265  0  0.236827  0.619682  0  4.135071  0
C  C70  1  0.20654733  0.39539029  0.86051948  1  0  -0.118756  0  3.77347  0  0  -0.108687  0  4.033416  0  0  -0.120396  0  4.05215  0  -0.141828  0  -0.084669  -0.101569  0  4.021107  0
C  C71  1  0.79345221  0.60461148  0.13948211  1  0  -0.118799  0  3.773468  0  0  -0.108704  0  4.033408  0  0  -0.120411  0  4.05214  0  -0.141844  0  -0.084646  -0.101575  0  4.021076  0
C  C72  1  0.05423245  0.31094589  0.80936262  1  0  -0.119239  0  3.693694  0  0  -0.160388  0  3.9721  0  0  -0.160748  0  3.986648  0  -0.113893  0  -0.146641  -0.160523  0  3.962431  0
C  C73  1  0.94576835  0.68905491  0.19063781  1  0  -0.11929  0  3.693695  0  0  -0.160465  0  3.97212  0  0  -0.160814  0  3.986658  0  -0.113874  0  -0.14669  -0.160597  0  3.962449  0
C  C74  1  0.01960111  0.18687669  0.82879797  1  0  -0.115336  0  3.725812  0  0  -0.141591  0  3.998083  0  0  -0.144665  0  4.014581  0  -0.15321  0  -0.151291  -0.140025  0  3.987012  0
C  C75  1  0.98040024  0.81312509  0.17120195  1  0  -0.115272  0  3.72579  0  0  -0.141533  0  3.998071  0  0  -0.144601  0  4.014563  0  -0.153239  0  -0.151275  -0.139963  0  3.987001  0
C  C76  1  0.14999559  0.19390576  0.89073733  1  0  -0.101169  0  3.7177  0  0  -0.131  0  3.996147  0  0  -0.133956  0  4.011583  0  -0.148896  0  -0.147541  -0.129771  0  3.985939  0
C  C77  1  0.85000395  0.80609601  0.10926354  1  0  -0.101136  0  3.71763  0  0  -0.130975  0  3.996079  0  0  -0.133929  0  4.011508  0  -0.148875  0  -0.147524  -0.129742  0  3.985868  0
C  C78  1  0.26585760  0.32200703  0.91020313  1  0  -0.113933  0  3.665207  0  0  -0.153975  0  3.942993  0  0  -0.153208  0  3.955804  0  -0.176123  0  -0.146858  -0.154869  0  3.93449  0
C  C79  1  0.73414174  0.67799279  0.08979682  1  0  -0.113922  0  3.665073  0  0  -0.153975  0  3.942872  0  0  -0.153201  0  3.955673  0  -0.176226  0  -0.146874  -0.154865  0  3.934364  0
C  C80  1  0.54648198  0.71440324  0.75561065  1  0  0.683069  0  3.886311  0  0  0.633903  0  4.187623  0  0  0.671903  0  4.176153  0  1.571552  0  0.22006  0.607503  0  4.195351  0
C  C81  1  0.45351791  0.28559756  0.24438952  1  0  0.682995  0  3.886373  0  0  0.633819  0  4.187727  0  0  0.671818  0  4.176257  0  1.571577  0  0.220005  0.607416  0  4.195466  0
C  C82  1  0.67073479  0.75498903  0.72971177  1  0  -0.111502  0  3.765368  0  0  -0.104725  0  4.028866  0  0  -0.115296  0  4.048148  0  -0.138975  0  -0.086572  -0.098312  0  4.016199  0
C  C83  1  0.32926491  0.24500982  0.27028822  1  0  -0.111422  0  3.765313  0  0  -0.104685  0  4.028879  0  0  -0.11525  0  4.04815  0  -0.139008  0  -0.086553  -0.098259  0  4.016193  0
C  C84  1  0.66939336  0.70593073  0.62979803  1  0  -0.123805  0  3.704257  0  0  -0.162019  0  3.980298  0  0  -0.162806  0  3.995287  0  -0.147363  0  -0.147768  -0.161752  0  3.970093  0
C  C85  1  0.33060396  0.29406714  0.37020122  1  0  -0.123831  0  3.704219  0  0  -0.162052  0  3.980277  0  0  -0.162829  0  3.995249  0  -0.147467  0  -0.147749  -0.16178  0  3.970043  0
C  C86  1  0.81357611  0.76031152  0.64376088  1  0  -0.087595  0  3.67959  0  0  -0.114575  0  3.9479  0  0  -0.117645  0  3.965081  0  -0.117837  0  -0.143354  -0.113076  0  3.936443  0
C  C87  1  0.18642323  0.23968831  0.35623834  1  0  -0.087603  0  3.679589  0  0  -0.114589  0  3.947909  0  0  -0.117648  0  3.965074  0  -0.117523  0  -0.143364  -0.11307  0  3.936428  0
C  C88  1  0.90455492  0.84205423  0.75183914  1  0  -0.100608  0  3.709945  0  0  -0.129248  0  3.987464  0  0  -0.13245  0  4.004312  0  -0.122983  0  -0.147283  -0.127749  0  3.976323  0
C  C89  1  0.09544387  0.15794462  0.24815913  1  0  -0.100577  0  3.709947  0  0  -0.129225  0  3.987472  0  0  -0.132415  0  4.004303  0  -0.122933  0  -0.147252  -0.127712  0  3.976292  0
C  C90  1  0.81715251  0.83908841  0.80533916  1  0  -0.122534  0  3.697934  0  0  -0.159392  0  3.970599  0  0  -0.159209  0  3.984386  0  -0.120105  0  -0.150216  -0.159909  0  3.961287  0
C  C91  1  0.18284683  0.16091141  0.19466079  1  0  -0.12254  0  3.697966  0  0  -0.159396  0  3.970646  0  0  -0.1592  0  3.984418  0  -0.120104  0  -0.1502  -0.159897  0  3.961301  0
C  C92  1  0.87196571  0.50880380  0.64199119  1  0  0.711239  0  3.873956  0  0  0.666601  0  4.168882  0  0  0.705955  0  4.156567  0  1.609513  0  0.230465  0.639176  0  4.176962  0
C  C93  1  0.12803453  0.49119603  0.35800756  1  0  0.711356  0  3.873827  0  0  0.666707  0  4.168774  0  0  0.706059  0  4.156459  0  1.609562  0  0.230474  0.639277  0  4.176869  0
C  C94  1  0.81412975  0.51478709  0.72253078  1  0  -0.112385  0  3.751438  0  0  -0.105901  0  4.016665  0  0  -0.115524  0  4.034011  0  -0.111348  0  -0.086262  -0.100384  0  4.005826  0
C  C95  1  0.18587049  0.48521274  0.27746724  1  0  -0.112529  0  3.751612  0  0  -0.106051  0  4.016866  0  0  -0.115655  0  4.034177  0  -0.111308  0  -0.086267  -0.100515  0  4.005998  0
C  C96  1  0.89886706  0.59162641  0.83327096  1  0  -0.121845  0  3.702447  0  0  -0.1582  0  3.972554  0  0  -0.158774  0  3.986769  0  -0.156008  0  -0.148691  -0.158286  0  3.963097  0
C  C97  1  0.10113263  0.40837244  0.16672902  1  0  -0.121788  0  3.702476  0  0  -0.158109  0  3.972582  0  0  -0.158671  0  3.986783  0  -0.155997  0  -0.148662  -0.158182  0  3.963098  0
C  C98  1  0.80479595  0.58279523  0.88161682  1  0  -0.105946  0  3.704665  0  0  -0.131964  0  3.970008  0  0  -0.135204  0  3.988167  0  -0.139155  0  -0.151624  -0.130255  0  3.957559  0
C  C99  1  0.19520193  0.41720362  0.11838192  1  0  -0.106021  0  3.704748  0  0  -0.132062  0  3.970095  0  0  -0.135291  0  3.98824  0  -0.139207  0  -0.151624  -0.130338  0  3.957636  0
C  C100  1  0.66169831  0.50132737  0.80160874  1  0  -0.096866  0  3.702055  0  0  -0.128952  0  3.983622  0  0  -0.132747  0  4.001058  0  -0.132765  0  -0.146153  -0.126672  0  3.97167  0
C  C101  1  0.33829936  0.49866953  0.19838835  1  0  -0.096804  0  3.702075  0  0  -0.128892  0  3.983648  0  0  -0.132676  0  4.001069  0  -0.132413  0  -0.146139  -0.126599  0  3.971659  0
C  C102  1  0.66674326  0.45841025  0.70362858  1  0  -0.124967  0  3.703246  0  0  -0.165237  0  3.98419  0  0  -0.166097  0  3.999564  0  -0.160185  0  -0.148865  -0.165057  0  3.973897  0
C  C103  1  0.33325789  0.54158958  0.29637115  1  0  -0.124934  0  3.70321  0  0  -0.165217  0  3.984173  0  0  -0.166069  0  3.999532  0  -0.160113  0  -0.148844  -0.165025  0  3.973837  0
C  C104  1  0.49966821  0.86034425  0.56237225  1  0  0.144582  0  3.709937  0  0  0.116087  0  3.970639  0  0  0.123977  0  3.988752  0  0.48906  0  0.061966  0.110962  0  3.958073  0
C  C105  1  0.50033350  0.13965655  0.43762916  1  0  0.144628  0  3.709847  0  0  0.116131  0  3.97055  0  0  0.12402  0  3.988662  0  0.489017  0  0.062005  0.110998  0  3.957997  0
C  C106  1  0.62271193  0.96919061  0.56618408  1  0  -0.107938  0  3.721044  0  0  -0.122627  0  3.974969  0  0  -0.12876  0  3.995284  0  -0.028105  0  -0.077531  -0.118555  0  3.961452  0
C  C107  1  0.37728776  0.03080824  0.43381736  1  0  -0.107914  0  3.721031  0  0  -0.122602  0  3.974958  0  0  -0.128734  0  3.995274  0  -0.028129  0  -0.077547  -0.118537  0  3.961455  0
C  C108  1  0.68352636  0.08558083  0.64138983  1  0  -0.043687  0  3.678974  0  0  -0.0676  0  3.929962  0  0  -0.065164  0  3.947319  0  -0.025517  0  -0.059108  -0.069069  0  3.918167  0
C  C109  1  0.31647445  0.91441997  0.35861060  1  0  -0.043764  0  3.679034  0  0  -0.067682  0  3.930043  0  0  -0.065249  0  3.947401  0  -0.025551  0  -0.059146  -0.069152  0  3.918244  0
C  C110  1  0.62397552  0.09189452  0.71478723  1  0  0.020402  0  3.787322  0  0  0.0375  0  4.015829  0  0  0.034766  0  4.039944  0  0.016663  0  -0.000346  0.039122  0  3.999763  0
C  C111  1  0.37602216  0.90810238  0.28521278  1  0  0.020373  0  3.787441  0  0  0.037445  0  4.01597  0  0  0.034714  0  4.040083  0  0.016843  0  -0.000401  0.039067  0  3.999899  0
C  C112  1  0.50041282  0.97597603  0.70552817  1  0  0.137848  0  3.73969  0  0  0.13329  0  3.977765  0  0  0.138186  0  3.999194  0  0.502993  0  0.125968  0.129948  0  3.963332  0
C  C113  1  0.49958722  0.02402185  0.29447330  1  0  0.137918  0  3.739791  0  0  0.133382  0  3.977845  0  0  0.138276  0  3.999275  0  0.503263  0  0.126026  0.130038  0  3.963411  0
C  C114  1  0.43696620  0.97760367  0.77964393  1  0  0.146307  0  3.732837  0  0  0.141557  0  3.970179  0  0  0.146911  0  3.991162  0  0.465392  0  0.127494  0.13776  0  3.956059  0
C  C115  1  0.56303132  0.02239616  0.22035551  1  0  0.146248  0  3.732915  0  0  0.141507  0  3.970256  0  0  0.146861  0  3.99124  0  0.465495  0  0.127475  0.137714  0  3.956128  0
C  C116  1  0.49809182  0.09545876  0.85933311  1  0  0.016939  0  3.802202  0  0  0.035224  0  4.030895  0  0  0.032331  0  4.05557  0  0.002033  0  -0.001226  0.037074  0  4.014277  0
C  C117  1  0.50190843  0.90454106  0.14066782  1  0  0.016965  0  3.802152  0  0  0.035204  0  4.03088  0  0  0.032311  0  4.05556  0  0.001975  0  -0.001242  0.037054  0  4.014258  0
C  C118  1  0.43351731  0.09322295  0.93048531  1  0  -0.031823  0  3.664556  0  0  -0.057225  0  3.912083  0  0  -0.054711  0  3.930675  0  -0.05424  0  -0.057106  -0.058694  0  3.899484  0
C  C119  1  0.56648182  0.90677493  0.06951591  1  0  -0.0319  0  3.664564  0  0  -0.057272  0  3.912088  0  0  -0.054762  0  3.930691  0  -0.054225  0  -0.057126  -0.058734  0  3.899474  0
C  C120  1  0.31558431  0.97868551  0.92107828  1  0  -0.124064  0  3.749717  0  0  -0.13869  0  4.008419  0  0  -0.145641  0  4.029262  0  0.016264  0  -0.082392  -0.134197  0  3.994562  0
C  C121  1  0.68441357  0.02131334  0.07892265  1  0  -0.124051  0  3.749711  0  0  -0.138701  0  4.008409  0  0  -0.145653  0  4.029253  0  0.016292  0  -0.082382  -0.134207  0  3.994553  0
C  C122  1  0.26252024  0.86683435  0.83994986  1  0  0.135577  0  3.719365  0  0  0.10611  0  3.982471  0  0  0.113962  0  4.000066  0  0.475093  0  0.061157  0.100812  0  3.970722  0
C  C123  1  0.73747819  0.13316548  0.16004983  1  0  0.135655  0  3.719416  0  0  0.106157  0  3.982528  0  0  0.114008  0  4.000122  0  0.475132  0  0.061197  0.100859  0  3.970792  0
C  C124  1  0.68214484  0.20858963  0.79601932  1  0  -0.091725  0  3.745342  0  0  -0.110641  0  3.989284  0  0  -0.113229  0  4.012811  0  -0.068578  0  -0.081304  -0.108955  0  3.973747  0
C  C125  1  0.31785597  0.79141117  0.20398257  1  0  -0.091645  0  3.745296  0  0  -0.110548  0  3.989209  0  0  -0.113139  0  4.012747  0  -0.068807  0  -0.08127  -0.108858  0  3.97367  0
C  C126  1  0.62147952  0.21043949  0.86548622  1  0  -0.109964  0  3.758237  0  0  -0.132058  0  4.008466  0  0  -0.135628  0  4.031398  0  -0.01956  0  -0.086232  -0.129541  0  3.993036  0
C  C127  1  0.37852053  0.78955839  0.13451526  1  0  -0.110052  0  3.758279  0  0  -0.132108  0  4.008509  0  0  -0.1357  0  4.031434  0  -0.019455  0  -0.086215  -0.129599  0  3.993074  0
N  N128  1  0.43954674  0.86316972  0.62912392  1  0  -0.376867  0  3.197267  0  0  -0.330856  0  3.464422  0  0  -0.351566  0  3.486495  0  -1.241323  0  -0.347513  -0.316043  0  3.448684  0
N  N129  1  0.56045240  0.13682816  0.37087656  1  0  -0.376874  0  3.197243  0  0  -0.330866  0  3.464393  0  0  -0.351572  0  3.486458  0  -1.241559  0  -0.347518  -0.316054  0  3.448659  0
N  N130  1  0.32085013  0.86579539  0.77141427  1  0  -0.381392  0  3.195779  0  0  -0.336658  0  3.468355  0  0  -0.35736  0  3.489273  0  -1.230916  0  -0.356027  -0.321928  0  3.453697  0
N  N131  1  0.67914956  0.13420347  0.22858644  1  0  -0.381406  0  3.195784  0  0  -0.336668  0  3.468371  0  0  -0.357375  0  3.489303  0  -1.231017  0  -0.356044  -0.321933  0  3.453704  0
O  O132  1  0.04881340  0.40461815  0.55291499  1  0  -0.746713  0  2.091687  0  0  -0.691081  0  2.358207  0  0  -0.73056  0  2.350169  0  -1.204406  0  -0.41207  -0.662345  0  2.362473  0
O  O133  1  0.95118831  0.59538266  0.44708350  1  0  -0.746732  0  2.091671  0  0  -0.691118  0  2.358229  0  0  -0.7306  0  2.350193  0  -1.204399  0  -0.412062  -0.662388  0  2.362492  0
O  O134  1  0.86379330  0.20097675  0.47262128  1  0  -0.646688  0  1.920872  0  0  -0.607045  0  2.159525  0  0  -0.636694  0  2.151646  0  -1.182605  0  -0.355461  -0.58581  0  2.164463  0
O  O135  1  0.13620751  0.79902406  0.52737769  1  0  -0.646714  0  1.920846  0  0  -0.607056  0  2.159484  0  0  -0.636706  0  2.151605  0  -1.18263  0  -0.355482  -0.585835  0  2.164428  0
O  O136  1  0.22484695  0.57565505  0.79286593  1  0  -0.6514  0  2.029719  0  0  -0.606871  0  2.284462  0  0  -0.635651  0  2.272889  0  -1.195744  0  -0.351614  -0.586349  0  2.291809  0
O  O137  1  0.77515385  0.42434575  0.20713377  1  0  -0.651467  0  2.02959  0  0  -0.606924  0  2.284355  0  0  -0.635704  0  2.272787  0  -1.19577  0  -0.351644  -0.586414  0  2.291706  0
O  O138  1  0.42335222  0.59123655  0.91136459  1  0  -0.567316  0  2.09095  0  0  -0.509191  0  2.310384  0  0  -0.532801  0  2.29494  0  -1.178246  0  -0.320632  -0.492978  0  2.320769  0
O  O139  1  0.57664677  0.40876425  0.08863532  1  0  -0.567313  0  2.090879  0  0  -0.509203  0  2.310338  0  0  -0.532813  0  2.294893  0  -1.17828  0  -0.320639  -0.493002  0  2.320728  0
O  O140  1  0.42287423  0.62960602  0.68403205  1  0  -0.6962  0  1.986509  0  0  -0.646799  0  2.240941  0  0  -0.678444  0  2.230563  0  -1.213319  0  -0.380587  -0.62384  0  2.247581  0
O  O141  1  0.57712601  0.37039381  0.31596962  1  0  -0.696186  0  1.986557  0  0  -0.646757  0  2.240952  0  0  -0.6784  0  2.230573  0  -1.213347  0  -0.380545  -0.623785  0  2.247566  0
O  O142  1  0.57159631  0.76711740  0.85121920  1  0  -0.610018  0  1.968945  0  0  -0.560563  0  2.196595  0  0  -0.585368  0  2.186237  0  -1.176208  0  -0.322723  -0.543602  0  2.203633  0
O  O143  1  0.42840449  0.23288340  0.14878195  1  0  -0.609967  0  1.968945  0  0  -0.560507  0  2.196577  0  0  -0.585311  0  2.18622  0  -1.176208  0  -0.322693  -0.543553  0  2.203625  0
O  O144  1  0.99943097  0.59756389  0.66513459  1  0  -0.681348  0  2.028425  0  0  -0.633158  0  2.286994  0  0  -0.666287  0  2.277163  0  -1.202393  0  -0.377386  -0.608774  0  2.292799  0
O  O145  1  0.00056857  0.40243788  0.33486409  1  0  -0.68143  0  2.028383  0  0  -0.633263  0  2.286989  0  0  -0.666394  0  2.277158  0  -1.202413  0  -0.377414  -0.608868  0  2.292779  0
O  O146  1  0.78949689  0.41499022  0.55560162  1  0  -0.68896  0  1.975553  0  0  -0.641343  0  2.231487  0  0  -0.674575  0  2.219954  0  -1.209486  0  -0.384948  -0.617273  0  2.238643  0
O  O147  1  0.21050118  0.58501058  0.44439586  1  0  -0.688987  0  1.975552  0  0  -0.641334  0  2.231443  0  0  -0.674572  0  2.219922  0  -1.209459  0  -0.384945  -0.617256  0  2.238599  0
