# generated using pymatgen
data_LaH9(C2O)8
_symmetry_space_group_name_H-M   'P 1'
_cell_length_a   7.93801915
_cell_length_b   11.29770384
_cell_length_c   16.87139903
_cell_angle_alpha   90.00001365
_cell_angle_beta   90.00004618
_cell_angle_gamma   98.12290579
_symmetry_Int_Tables_number   1
_chemical_formula_structural   LaH9(C2O)8
_chemical_formula_sum   'La4 H36 C64 O32'
_cell_volume   1497.87044857
_cell_formula_units_Z   4
loop_
 _symmetry_equiv_pos_site_id
 _symmetry_equiv_pos_as_xyz
  1  'x, y, z'
loop_
 _atom_site_type_symbol
 _atom_site_label
 _atom_site_symmetry_multiplicity
 _atom_site_fract_x
 _atom_site_fract_y
 _atom_site_fract_z
 _atom_site_occupancy
 _atom_site_hle17_bader_spin_density
 _atom_site_hle17_ddec_charge
 _atom_site_hle17_ddec_spin_density
 _atom_site_hle17_ddec_sum_bond_order
 _atom_site_hle17_magmom
 _atom_site_hse06_10hf_bader_spin_density
 _atom_site_hse06_10hf_ddec_charge
 _atom_site_hse06_10hf_ddec_spin_density
 _atom_site_hse06_10hf_ddec_sum_bond_order
 _atom_site_hse06_10hf_magmom
 _atom_site_hse06_bader_spin_density
 _atom_site_hse06_ddec_charge
 _atom_site_hse06_ddec_spin_density
 _atom_site_hse06_ddec_sum_bond_order
 _atom_site_hse06_magmom
 _atom_site_pbe_bader_spin_density
 _atom_site_pbe_cm5_charge
 _atom_site_pbe_ddec_charge
 _atom_site_pbe_ddec_spin_density
 _atom_site_pbe_ddec_sum_bond_order
 _atom_site_pbe_magmom
La  La0  1  0.98715766  0.70188357  0.20643541  1  0  2.082103  0  1.812272  0  0  1.959049  0  2.337656  0  0  2.064852  0  2.236518  0  0  1.417222  1.879928  0  2.407766  0
La  La1  1  0.51283950  0.29811747  0.70643531  1  0  2.082031  0  1.812344  0  0  1.958979  0  2.337733  0  0  2.064772  0  2.236615  0  0  1.417181  1.879864  0  2.407832  0
La  La2  1  0.01284005  0.29811744  0.79356314  1  0  2.082079  0  1.812439  0  0  1.959006  0  2.337837  0  0  2.064798  0  2.236721  0  0  1.417213  1.879886  0  2.407942  0
La  La3  1  0.48715927  0.70188263  0.29356383  1  0  2.082058  0  1.812378  0  0  1.958981  0  2.337788  0  0  2.064779  0  2.23666  0  0  1.417186  1.879861  0  2.407869  0
H  H4  1  0.16193255  0.96030145  0.12171734  1  0  0.416096  0  0.870944  0  0  0.386799  0  0.946592  0  0  0.398905  0  0.930493  0  0  0.317808  0.378283  0  0.955879  0
H  H5  1  0.33806324  0.03970123  0.62171792  1  0  0.416009  0  0.871127  0  0  0.386729  0  0.946728  0  0  0.398837  0  0.930593  0  0  0.317794  0.378209  0  0.956024  0
H  H6  1  0.83807182  0.03970131  0.87828358  1  0  0.416114  0  0.870958  0  0  0.386805  0  0.946618  0  0  0.398912  0  0.930491  0  0  0.317826  0.378282  0  0.955923  0
H  H7  1  0.66193660  0.96029797  0.37828300  1  0  0.416012  0  0.871114  0  0  0.386732  0  0.946709  0  0  0.39884  0  0.930581  0  0  0.317805  0.378214  0  0.955995  0
H  H8  1  0.23348265  0.05089777  0.93075037  1  0  0.1098  0  0.957237  0  0  0.11744  0  1.024335  0  0  0.120587  0  1.021789  0  0  0.113447  0.115116  0  1.026254  0
H  H9  1  0.26651875  0.94910504  0.43075101  1  0  0.109817  0  0.95724  0  0  0.117474  0  1.024325  0  0  0.120621  0  1.021778  0  0  0.113451  0.115153  0  1.026231  0
H  H10  1  0.76651971  0.94910142  0.06925055  1  0  0.109787  0  0.957249  0  0  0.117431  0  1.024352  0  0  0.120577  0  1.021805  0  0  0.11346  0.115115  0  1.026253  0
H  H11  1  0.73348292  0.05089684  0.56924873  1  0  0.10981  0  0.957233  0  0  0.117454  0  1.024327  0  0  0.120601  0  1.021781  0  0  0.113466  0.115135  0  1.02624  0
H  H12  1  0.19827469  0.85122961  0.71317748  1  0  0.095271  0  0.948462  0  0  0.105147  0  1.010851  0  0  0.108215  0  1.008848  0  0  0.106482  0.102909  0  1.012306  0
H  H13  1  0.30172467  0.14877131  0.21317682  1  0  0.095227  0  0.948506  0  0  0.105121  0  1.010879  0  0  0.108188  0  1.008875  0  0  0.106451  0.102882  0  1.012333  0
H  H14  1  0.80172119  0.14876872  0.28682344  1  0  0.095192  0  0.948518  0  0  0.105066  0  1.010912  0  0  0.108132  0  1.008909  0  0  0.106452  0.102833  0  1.012357  0
H  H15  1  0.69827844  0.85123146  0.78682232  1  0  0.095203  0  0.948592  0  0  0.105059  0  1.010997  0  0  0.108125  0  1.008996  0  0  0.106441  0.102822  0  1.012449  0
H  H16  1  0.06415847  0.66885286  0.78593667  1  0  0.114739  0  0.956252  0  0  0.12217  0  1.016235  0  0  0.126063  0  1.014732  0  0  0.110647  0.119319  0  1.01754  0
H  H17  1  0.43584228  0.33114809  0.28593550  1  0  0.114755  0  0.956231  0  0  0.122157  0  1.016262  0  0  0.126046  0  1.014759  0  0  0.110662  0.119311  0  1.017568  0
H  H18  1  0.93584068  0.33114903  0.21406544  1  0  0.11476  0  0.956234  0  0  0.122189  0  1.016228  0  0  0.126083  0  1.014723  0  0  0.110649  0.119345  0  1.017526  0
H  H19  1  0.56416278  0.66885198  0.71406483  1  0  0.114734  0  0.956249  0  0  0.122146  0  1.016271  0  0  0.126034  0  1.014767  0  0  0.110646  0.119298  0  1.017569  0
H  H20  1  0.01774752  0.67855984  0.93143082  1  0  0.117418  0  0.926875  0  0  0.128104  0  0.984911  0  0  0.131713  0  0.981952  0  0  0.118923  0.1254  0  0.987176  0
H  H21  1  0.48225243  0.32144208  0.43142966  1  0  0.117366  0  0.926866  0  0  0.128085  0  0.984872  0  0  0.131695  0  0.981912  0  0  0.118928  0.125386  0  0.987141  0
H  H22  1  0.98224980  0.32143937  0.06857129  1  0  0.117433  0  0.926811  0  0  0.128108  0  0.98488  0  0  0.131718  0  0.981918  0  0  0.11892  0.125408  0  0.987148  0
H  H23  1  0.51775264  0.67855799  0.56857007  1  0  0.117423  0  0.926881  0  0  0.128102  0  0.984931  0  0  0.131712  0  0.98197  0  0  0.11891  0.125402  0  0.987197  0
H  H24  1  0.21522501  0.50671809  0.97595590  1  0  0.119661  0  0.932364  0  0  0.127371  0  0.996262  0  0  0.131795  0  0.992057  0  0  0.118238  0.124131  0  0.999372  0
H  H25  1  0.28477464  0.49328208  0.47595707  1  0  0.119685  0  0.932349  0  0  0.1274  0  0.996242  0  0  0.131824  0  0.992037  0  0  0.11825  0.124158  0  0.99935  0
H  H26  1  0.78477175  0.49327845  0.02404147  1  0  0.119708  0  0.932381  0  0  0.127438  0  0.996243  0  0  0.131861  0  0.992038  0  0  0.118255  0.124187  0  0.999348  0
H  H27  1  0.71522740  0.50672159  0.52404326  1  0  0.119721  0  0.932328  0  0  0.127422  0  0.996227  0  0  0.131846  0  0.992022  0  0  0.118256  0.124182  0  0.999333  0
H  H28  1  0.66518367  0.66028403  0.85084070  1  0  0.099832  0  0.945926  0  0  0.110683  0  1.006662  0  0  0.113819  0  1.004412  0  0  0.109726  0.108389  0  1.008322  0
H  H29  1  0.83481860  0.33971617  0.35084068  1  0  0.099834  0  0.945913  0  0  0.110693  0  1.006648  0  0  0.113829  0  1.0044  0  0  0.109732  0.108405  0  1.008308  0
H  H30  1  0.33481938  0.33971248  0.14916022  1  0  0.099798  0  0.945827  0  0  0.110643  0  1.006589  0  0  0.113777  0  1.004339  0  0  0.109692  0.108354  0  1.008253  0
H  H31  1  0.16518395  0.66028391  0.64915905  1  0  0.099835  0  0.945915  0  0  0.110688  0  1.006653  0  0  0.113824  0  1.004403  0  0  0.109731  0.108397  0  1.008314  0
H  H32  1  0.73831990  0.80612297  0.96152805  1  0  0.092399  0  0.972729  0  0  0.098977  0  1.039913  0  0  0.102037  0  1.038852  0  0  0.097967  0.096777  0  1.040829  0
H  H33  1  0.76167987  0.19387641  0.46152739  1  0  0.092399  0  0.972749  0  0  0.098961  0  1.03996  0  0  0.102028  0  1.038891  0  0  0.097963  0.096763  0  1.040874  0
H  H34  1  0.26167900  0.19387177  0.03847287  1  0  0.092425  0  0.972784  0  0  0.09898  0  1.04  0  0  0.102046  0  1.038934  0  0  0.097985  0.096785  0  1.04092  0
H  H35  1  0.23832394  0.80612367  0.53847176  1  0  0.092377  0  0.972784  0  0  0.098937  0  1.040001  0  0  0.102004  0  1.038931  0  0  0.09796  0.096736  0  1.040916  0
H  H36  1  0.55549035  0.79305361  0.08221208  1  0  0.103436  0  0.972878  0  0  0.110476  0  1.039195  0  0  0.114254  0  1.035934  0  0  0.10813  0.107691  0  1.041596  0
H  H37  1  0.94450979  0.20694466  0.58221273  1  0  0.10343  0  0.972848  0  0  0.110462  0  1.039179  0  0  0.114241  0  1.035917  0  0  0.10812  0.107678  0  1.041585  0
H  H38  1  0.44450641  0.20694292  0.91778647  1  0  0.10341  0  0.972814  0  0  0.11046  0  1.039125  0  0  0.11424  0  1.035862  0  0  0.108121  0.107684  0  1.041512  0
H  H39  1  0.05549150  0.79305543  0.41778582  1  0  0.103416  0  0.972829  0  0  0.110454  0  1.03916  0  0  0.114234  0  1.035899  0  0  0.108128  0.107667  0  1.041553  0
C  C40  1  0.12657325  0.86474384  0.94049412  1  0  -0.097934  0  3.785485  0  0  -0.073347  0  4.023688  0  0  -0.085238  0  4.048205  0  0  -0.018238  -0.065672  0  4.007232  0
C  C41  1  0.37342458  0.13525990  0.44049349  1  0  -0.097831  0  3.785549  0  0  -0.073204  0  4.023734  0  0  -0.085094  0  4.048255  0  0  -0.018185  -0.065528  0  4.007281  0
C  C42  1  0.87342717  0.13525805  0.05950680  1  0  -0.097841  0  3.78563  0  0  -0.0732  0  4.023843  0  0  -0.085095  0  4.048359  0  0  -0.01816  -0.06551  0  4.007385  0
C  C43  1  0.62657331  0.86474200  0.55950625  1  0  -0.097803  0  3.785597  0  0  -0.07317  0  4.023827  0  0  -0.085059  0  4.048349  0  0  -0.018166  -0.065484  0  4.007364  0
C  C44  1  0.19789219  0.96706885  0.89937189  1  0  -0.045377  0  3.67468  0  0  -0.08452  0  3.919973  0  0  -0.079807  0  3.937562  0  0  -0.067854  -0.087315  0  3.908177  0
C  C45  1  0.30210518  0.03293307  0.39937180  1  0  -0.045364  0  3.674606  0  0  -0.084558  0  3.919872  0  0  -0.079844  0  3.937461  0  0  -0.067843  -0.087358  0  3.908062  0
C  C46  1  0.80210514  0.03293037  0.10062903  1  0  -0.045399  0  3.674428  0  0  -0.084597  0  3.919721  0  0  -0.079881  0  3.937308  0  0  -0.067879  -0.08739  0  3.907923  0
C  C47  1  0.69789523  0.96706881  0.60062734  1  0  -0.045425  0  3.674515  0  0  -0.084586  0  3.919789  0  0  -0.079872  0  3.937375  0  0  -0.06791  -0.08738  0  3.907993  0
C  C48  1  0.22213348  0.96254742  0.81755651  1  0  -0.070656  0  3.759306  0  0  -0.045721  0  3.994291  0  0  -0.055352  0  4.01527  0  0  -0.013621  -0.039786  0  3.980578  0
C  C49  1  0.27786626  0.03745445  0.31755582  1  0  -0.070748  0  3.759383  0  0  -0.045735  0  3.994295  0  0  -0.055368  0  4.015275  0  0  -0.013652  -0.039792  0  3.980562  0
C  C50  1  0.77786404  0.03745269  0.18244560  1  0  -0.070657  0  3.759499  0  0  -0.045624  0  3.994362  0  0  -0.055258  0  4.015341  0  0  -0.0136  -0.039701  0  3.980666  0
C  C51  1  0.72213560  0.96254833  0.68244451  1  0  -0.07073  0  3.759344  0  0  -0.045747  0  3.994304  0  0  -0.055375  0  4.015275  0  0  -0.013601  -0.039823  0  3.980611  0
C  C52  1  0.17692876  0.85438805  0.77691908  1  0  -0.029122  0  3.686329  0  0  -0.058966  0  3.93635  0  0  -0.055426  0  3.954449  0  0  -0.065925  -0.060913  0  3.923986  0
C  C53  1  0.32307198  0.14561290  0.27691902  1  0  -0.029043  0  3.686473  0  0  -0.058904  0  3.936447  0  0  -0.055364  0  3.954545  0  0  -0.065865  -0.060854  0  3.924088  0
C  C54  1  0.82306693  0.14560939  0.22308184  1  0  -0.028987  0  3.686682  0  0  -0.058849  0  3.936665  0  0  -0.055309  0  3.954769  0  0  -0.065893  -0.0608  0  3.924308  0
C  C55  1  0.67693221  0.85438897  0.72308131  1  0  -0.028994  0  3.686611  0  0  -0.058821  0  3.936601  0  0  -0.055282  0  3.954701  0  0  -0.065879  -0.060766  0  3.924243  0
C  C56  1  0.10160182  0.75276944  0.81750846  1  0  -0.076526  0  3.714466  0  0  -0.085686  0  3.967504  0  0  -0.091835  0  3.988771  0  0  -0.080695  -0.081762  0  3.953105  0
C  C57  1  0.39839773  0.24723153  0.31750666  1  0  -0.076582  0  3.714437  0  0  -0.085739  0  3.967531  0  0  -0.091884  0  3.988792  0  0  -0.080741  -0.081826  0  3.953155  0
C  C58  1  0.89839551  0.24722977  0.18249365  1  0  -0.076633  0  3.714564  0  0  -0.085797  0  3.967615  0  0  -0.09195  0  3.98888  0  0  -0.080701  -0.081874  0  3.953227  0
C  C59  1  0.60160646  0.75277034  0.68249307  1  0  -0.076599  0  3.714587  0  0  -0.085764  0  3.967657  0  0  -0.091908  0  3.988916  0  0  -0.080738  -0.081837  0  3.95326  0
C  C60  1  0.07544048  0.75769556  0.89919344  1  0  -0.024045  0  3.66238  0  0  -0.053646  0  3.911445  0  0  -0.049874  0  3.929944  0  0  -0.060456  -0.055746  0  3.898708  0
C  C61  1  0.42455796  0.24230547  0.39919343  1  0  -0.023983  0  3.662304  0  0  -0.053616  0  3.911369  0  0  -0.04984  0  3.929862  0  0  -0.060447  -0.055725  0  3.898654  0
C  C62  1  0.92455559  0.24230367  0.10080808  1  0  -0.024002  0  3.662354  0  0  -0.053603  0  3.911414  0  0  -0.049831  0  3.92992  0  0  -0.060431  -0.055722  0  3.898708  0
C  C63  1  0.57544604  0.75769551  0.60080690  1  0  -0.023987  0  3.662367  0  0  -0.053573  0  3.911405  0  0  -0.049801  0  3.929909  0  0  -0.060388  -0.055695  0  3.8987  0
C  C64  1  0.10334350  0.86901271  0.02736119  1  0  0.674002  0  3.79007  0  0  0.622446  0  4.088977  0  0  0.65785  0  4.080423  0  0  0.247098  0.598172  0  4.094398  0
C  C65  1  0.39665320  0.13098901  0.52735825  1  0  0.674004  0  3.790078  0  0  0.622403  0  4.089054  0  0  0.657803  0  4.080509  0  0  0.247077  0.598138  0  4.094464  0
C  C66  1  0.89665075  0.13098383  0.97264566  1  0  0.674098  0  3.789765  0  0  0.622405  0  4.088848  0  0  0.657819  0  4.08028  0  0  0.247007  0.598122  0  4.09428  0
C  C67  1  0.60335118  0.86901375  0.47264326  1  0  0.67404  0  3.789884  0  0  0.622315  0  4.089027  0  0  0.657709  0  4.08049  0  0  0.247015  0.598039  0  4.094432  0
C  C68  1  0.29559302  0.07401005  0.77581183  1  0  0.680954  0  3.857888  0  0  0.633197  0  4.146803  0  0  0.669366  0  4.140023  0  0  0.227382  0.608414  0  4.150587  0
C  C69  1  0.20440664  0.92599179  0.27581245  1  0  0.681023  0  3.85796  0  0  0.633218  0  4.146908  0  0  0.669387  0  4.140129  0  0  0.227403  0.60844  0  4.150661  0
C  C70  1  0.70440468  0.92599095  0.22418790  1  0  0.681  0  3.858044  0  0  0.633217  0  4.14695  0  0  0.669385  0  4.140173  0  0  0.22741  0.60844  0  4.150724  0
C  C71  1  0.79559503  0.07401008  0.72418669  1  0  0.681071  0  3.858013  0  0  0.633249  0  4.146989  0  0  0.669417  0  4.14021  0  0  0.227412  0.608473  0  4.150774  0
C  C72  1  0.37507662  0.64899745  0.03682695  1  0  -0.090177  0  3.770529  0  0  -0.06423  0  4.005017  0  0  -0.07555  0  4.029576  0  0  -0.017681  -0.057093  0  3.988768  0
C  C73  1  0.12492348  0.35100248  0.53682690  1  0  -0.09023  0  3.770595  0  0  -0.064278  0  4.005095  0  0  -0.075603  0  4.029656  0  0  -0.017703  -0.057142  0  3.988838  0
C  C74  1  0.62492159  0.35099997  0.96317220  1  0  -0.090148  0  3.770344  0  0  -0.064221  0  4.004878  0  0  -0.075549  0  4.029445  0  0  -0.017705  -0.057088  0  3.988611  0
C  C75  1  0.87507422  0.64899853  0.46317342  1  0  -0.090215  0  3.770521  0  0  -0.064291  0  4.00504  0  0  -0.075608  0  4.029601  0  0  -0.017715  -0.057167  0  3.988795  0
C  C76  1  0.32958603  0.57227173  0.97289809  1  0  -0.041973  0  3.675501  0  0  -0.079481  0  3.922275  0  0  -0.075373  0  3.940522  0  0  -0.062434  -0.081792  0  3.909879  0
C  C77  1  0.17041110  0.42772844  0.47289861  1  0  -0.041982  0  3.675576  0  0  -0.079511  0  3.92234  0  0  -0.075404  0  3.94059  0  0  -0.062446  -0.081812  0  3.909938  0
C  C78  1  0.67041344  0.42772568  0.02709987  1  0  -0.041979  0  3.675409  0  0  -0.079489  0  3.922131  0  0  -0.07538  0  3.940381  0  0  -0.062399  -0.081774  0  3.909709  0
C  C79  1  0.82958428  0.57227347  0.52710172  1  0  -0.042013  0  3.67562  0  0  -0.0795  0  3.922348  0  0  -0.075397  0  3.940599  0  0  -0.062459  -0.081813  0  3.909957  0
C  C80  1  0.43379821  0.57763940  0.90593330  1  0  -0.093274  0  3.77575  0  0  -0.065934  0  4.005612  0  0  -0.077106  0  4.029744  0  0  -0.016438  -0.058852  0  3.989557  0
C  C81  1  0.06620006  0.42236073  0.40593437  1  0  -0.093353  0  3.775917  0  0  -0.065964  0  4.005694  0  0  -0.07714  0  4.029827  0  0  -0.016473  -0.058887  0  3.989654  0
C  C82  1  0.56620107  0.42235712  0.09406584  1  0  -0.093485  0  3.775895  0  0  -0.066141  0  4.005724  0  0  -0.077323  0  4.029861  0  0  -0.01653  -0.059065  0  3.989683  0
C  C83  1  0.93379910  0.57764116  0.59406536  1  0  -0.093434  0  3.77607  0  0  -0.066082  0  4.005852  0  0  -0.077256  0  4.029988  0  0  -0.016476  -0.058995  0  3.989796  0
C  C84  1  0.58238564  0.66099014  0.90231301  1  0  -0.041302  0  3.706157  0  0  -0.069621  0  3.95334  0  0  -0.066595  0  3.972504  0  0  -0.070972  -0.071183  0  3.940123  0
C  C85  1  0.91761295  0.33901010  0.40231242  1  0  -0.041261  0  3.706194  0  0  -0.0696  0  3.953372  0  0  -0.066575  0  3.972538  0  0  -0.07096  -0.071165  0  3.940159  0
C  C86  1  0.41761616  0.33900637  0.09768673  1  0  -0.04113  0  3.706046  0  0  -0.069445  0  3.953201  0  0  -0.066416  0  3.972366  0  0  -0.070907  -0.071006  0  3.939991  0
C  C87  1  0.08238727  0.66099089  0.59768672  1  0  -0.041229  0  3.706265  0  0  -0.069566  0  3.95344  0  0  -0.066542  0  3.972607  0  0  -0.070953  -0.071132  0  3.940228  0
C  C88  1  0.62408716  0.74052659  0.96461846  1  0  -0.074328  0  3.745246  0  0  -0.084155  0  4.000209  0  0  -0.089679  0  4.02132  0  0  -0.088309  -0.080641  0  3.985842  0
C  C89  1  0.87591299  0.25947458  0.46461726  1  0  -0.074378  0  3.745251  0  0  -0.0842  0  4.000217  0  0  -0.08973  0  4.021325  0  0  -0.088335  -0.080683  0  3.985853  0
C  C90  1  0.37590922  0.25946816  0.03538246  1  0  -0.074468  0  3.745214  0  0  -0.084293  0  4.000183  0  0  -0.089823  0  4.021288  0  0  -0.088374  -0.08079  0  3.985834  0
C  C91  1  0.12409245  0.74052728  0.53538307  1  0  -0.074365  0  3.745214  0  0  -0.084179  0  4.000192  0  0  -0.089707  0  4.021299  0  0  -0.088346  -0.080669  0  3.985821  0
C  C92  1  0.52132747  0.73420324  0.03195957  1  0  -0.030128  0  3.670899  0  0  -0.060956  0  3.921725  0  0  -0.057199  0  3.939032  0  0  -0.069396  -0.063008  0  3.909967  0
C  C93  1  0.97867170  0.26579680  0.53195965  1  0  -0.030042  0  3.670852  0  0  -0.060865  0  3.921672  0  0  -0.057104  0  3.938979  0  0  -0.069339  -0.062921  0  3.909905  0
C  C94  1  0.47866948  0.26579419  0.96804016  1  0  -0.030022  0  3.670678  0  0  -0.06084  0  3.921479  0  0  -0.05708  0  3.938786  0  0  -0.069329  -0.062892  0  3.9097  0
C  C95  1  0.02132689  0.73420241  0.46804009  1  0  -0.030013  0  3.670715  0  0  -0.06084  0  3.921555  0  0  -0.057086  0  3.938864  0  0  -0.069326  -0.06287  0  3.909759  0
C  C96  1  0.26712879  0.63984962  0.10921630  1  0  0.651829  0  3.906496  0  0  0.606108  0  4.199195  0  0  0.640799  0  4.196435  0  0  0.203618  0.582255  0  4.200235  0
C  C97  1  0.23287038  0.36015125  0.60921689  1  0  0.651829  0  3.90642  0  0  0.606096  0  4.199134  0  0  0.640788  0  4.19637  0  0  0.203595  0.582258  0  4.200153  0
C  C98  1  0.73286438  0.36014783  0.89078166  1  0  0.651768  0  3.906388  0  0  0.60601  0  4.199165  0  0  0.640704  0  4.196397  0  0  0.203575  0.582174  0  4.200173  0
C  C99  1  0.76712984  0.63984974  0.39078344  1  0  0.651854  0  3.906564  0  0  0.60613  0  4.199271  0  0  0.640816  0  4.196512  0  0  0.203609  0.582289  0  4.200297  0
C  C100  1  0.39121432  0.48987028  0.84051132  1  0  0.69324  0  3.880529  0  0  0.647317  0  4.17349  0  0  0.684142  0  4.166528  0  0  0.236147  0.62188  0  4.17753  0
C  C101  1  0.10878527  0.51013071  0.34051243  1  0  0.693125  0  3.880725  0  0  0.64721  0  4.173648  0  0  0.684038  0  4.166687  0  0  0.236134  0.621765  0  4.177707  0
C  C102  1  0.60878640  0.51012713  0.15948663  1  0  0.693295  0  3.880527  0  0  0.647426  0  4.173373  0  0  0.684257  0  4.166404  0  0  0.236191  0.621989  0  4.177431  0
C  C103  1  0.89121281  0.48987208  0.65948731  1  0  0.693235  0  3.880372  0  0  0.647398  0  4.173159  0  0  0.684225  0  4.16619  0  0  0.236151  0.621964  0  4.177202  0
O  O104  1  0.18565421  0.96561051  0.06253968  1  0  -0.540937  0  2.083416  0  0  -0.488211  0  2.296763  0  0  -0.510681  0  2.280886  0  0  -0.315377  -0.472607  0  2.305867  0
O  O105  1  0.31434148  0.03439214  0.56253907  1  0  -0.540916  0  2.083573  0  0  -0.488181  0  2.296927  0  0  -0.510655  0  2.281031  0  0  -0.315395  -0.47257  0  2.306023  0
O  O106  1  0.81435269  0.03439224  0.93746065  1  0  -0.541012  0  2.083486  0  0  -0.488241  0  2.296885  0  0  -0.510714  0  2.280986  0  0  -0.315417  -0.472625  0  2.305997  0
O  O107  1  0.68565836  0.96560706  0.43746067  1  0  -0.540902  0  2.083678  0  0  -0.488128  0  2.297075  0  0  -0.510601  0  2.281194  0  0  -0.315383  -0.472527  0  2.306169  0
O  O108  1  0.01308086  0.78842769  0.06440670  1  0  -0.620341  0  2.026209  0  0  -0.573996  0  2.276633  0  0  -0.602963  0  2.268081  0  0  -0.32236  -0.553479  0  2.281983  0
O  O109  1  0.48692276  0.21157671  0.56440736  1  0  -0.620401  0  2.026146  0  0  -0.574045  0  2.276603  0  0  -0.603009  0  2.268055  0  0  -0.322354  -0.553539  0  2.281964  0
O  O110  1  0.98692918  0.21158399  0.93559303  1  0  -0.620488  0  2.025651  0  0  -0.574034  0  2.276071  0  0  -0.603005  0  2.267515  0  0  -0.32231  -0.553513  0  2.281436  0
O  O111  1  0.51307507  0.78841893  0.43559237  1  0  -0.620504  0  2.025859  0  0  -0.574032  0  2.276305  0  0  -0.602995  0  2.267757  0  0  -0.322328  -0.55351  0  2.281648  0
O  O112  1  0.38284371  0.06833024  0.71229074  1  0  -0.692148  0  2.040729  0  0  -0.636351  0  2.276766  0  0  -0.667666  0  2.268703  0  0  -0.346801  -0.614111  0  2.281202  0
O  O113  1  0.11715314  0.93167069  0.21229192  1  0  -0.692206  0  2.040684  0  0  -0.636395  0  2.276743  0  0  -0.667711  0  2.268687  0  0  -0.346814  -0.614162  0  2.281175  0
O  O114  1  0.61715362  0.93166898  0.28770899  1  0  -0.692139  0  2.040732  0  0  -0.63636  0  2.276791  0  0  -0.667675  0  2.26873  0  0  -0.346789  -0.614114  0  2.28122  0
O  O115  1  0.88284872  0.06833208  0.78770722  1  0  -0.692228  0  2.040723  0  0  -0.636389  0  2.276775  0  0  -0.667702  0  2.268712  0  0  -0.346803  -0.614153  0  2.28123  0
O  O116  1  0.27708041  0.17532425  0.80601621  1  0  -0.717367  0  2.043977  0  0  -0.668861  0  2.304887  0  0  -0.704719  0  2.298398  0  0  -0.364259  -0.642852  0  2.308107  0
O  O117  1  0.22291805  0.82467762  0.30601563  1  0  -0.717375  0  2.044013  0  0  -0.668849  0  2.304925  0  0  -0.704707  0  2.298434  0  0  -0.364272  -0.642847  0  2.308133  0
O  O118  1  0.72291604  0.82467676  0.19398412  1  0  -0.717384  0  2.044032  0  0  -0.668856  0  2.304913  0  0  -0.704713  0  2.298425  0  0  -0.364275  -0.642857  0  2.308137  0
O  O119  1  0.77708614  0.17532425  0.69398351  1  0  -0.717397  0  2.043989  0  0  -0.668858  0  2.304906  0  0  -0.704716  0  2.298419  0  0  -0.364286  -0.642856  0  2.308135  0
O  O120  1  0.12940370  0.56874785  0.11191254  1  0  -0.611992  0  1.925136  0  0  -0.570394  0  2.159998  0  0  -0.599537  0  2.152239  0  0  -0.343024  -0.549666  0  2.164622  0
O  O121  1  0.37059421  0.43125302  0.61191320  1  0  -0.611974  0  1.925112  0  0  -0.570391  0  2.160014  0  0  -0.599533  0  2.152255  0  0  -0.343008  -0.549669  0  2.164631  0
O  O122  1  0.87059149  0.43125317  0.88808482  1  0  -0.611985  0  1.925052  0  0  -0.570387  0  2.159949  0  0  -0.599527  0  2.152186  0  0  -0.343018  -0.549663  0  2.16456  0
O  O123  1  0.62940834  0.56874706  0.38808713  1  0  -0.611968  0  1.925204  0  0  -0.57039  0  2.160107  0  0  -0.59953  0  2.15235  0  0  -0.342999  -0.549667  0  2.164726  0
O  O124  1  0.31179448  0.71208487  0.16845147  1  0  -0.785946  0  2.047208  0  0  -0.73579  0  2.313471  0  0  -0.775273  0  2.30788  0  0  -0.427698  -0.706858  0  2.315762  0
O  O125  1  0.18820354  0.28791603  0.66845203  1  0  -0.785927  0  2.047168  0  0  -0.735765  0  2.313442  0  0  -0.775247  0  2.307857  0  0  -0.427684  -0.706839  0  2.315726  0
O  O126  1  0.68820392  0.28791344  0.83154708  1  0  -0.785884  0  2.047207  0  0  -0.735711  0  2.313488  0  0  -0.775209  0  2.307938  0  0  -0.427664  -0.706794  0  2.315776  0
O  O127  1  0.81179542  0.71208497  0.33154889  1  0  -0.785952  0  2.047195  0  0  -0.735794  0  2.313467  0  0  -0.775279  0  2.307891  0  0  -0.427697  -0.706866  0  2.315751  0
O  O128  1  0.49876984  0.48294840  0.78545663  1  0  -0.669963  0  1.990158  0  0  -0.625012  0  2.240151  0  0  -0.657375  0  2.230764  0  0  -0.365458  -0.601709  0  2.24574  0
O  O129  1  0.00122965  0.51705255  0.28545651  1  0  -0.669905  0  1.990163  0  0  -0.624977  0  2.240172  0  0  -0.657344  0  2.230788  0  0  -0.365462  -0.601675  0  2.245775  0
O  O130  1  0.50122981  0.51704990  0.21454192  1  0  -0.669926  0  1.99008  0  0  -0.62502  0  2.240079  0  0  -0.657384  0  2.23069  0  0  -0.365442  -0.601719  0  2.245682  0
O  O131  1  0.99877435  0.48294842  0.71454263  1  0  -0.669947  0  1.989951  0  0  -0.625037  0  2.239908  0  0  -0.657401  0  2.230522  0  0  -0.365503  -0.601733  0  2.2455  0
O  O132  1  0.24825033  0.42239473  0.84416896  1  0  -0.697172  0  2.053573  0  0  -0.650348  0  2.321948  0  0  -0.687076  0  2.312652  0  0  -0.415837  -0.62357  0  2.327172  0
O  O133  1  0.25174927  0.57760626  0.34417072  1  0  -0.697084  0  2.053649  0  0  -0.650261  0  2.322014  0  0  -0.686991  0  2.312721  0  0  -0.415795  -0.623474  0  2.327237  0
O  O134  1  0.75174699  0.57760448  0.15582781  1  0  -0.697231  0  2.053605  0  0  -0.650422  0  2.321952  0  0  -0.687152  0  2.312651  0  0  -0.415868  -0.623639  0  2.327181  0
O  O135  1  0.74825385  0.42239651  0.65583079  1  0  -0.69717  0  2.053592  0  0  -0.650378  0  2.321919  0  0  -0.687104  0  2.312619  0  0  -0.415792  -0.6236  0  2.327148  0
