# generated using pymatgen
data_HgH14C14N4Cl2O
_symmetry_space_group_name_H-M   'P 1'
_cell_length_a   7.72675574
_cell_length_b   10.25354505
_cell_length_c   12.42315763
_cell_angle_alpha   75.21702742
_cell_angle_beta   92.02567071
_cell_angle_gamma   65.71266928
_symmetry_Int_Tables_number   1
_chemical_formula_structural   HgH14C14N4Cl2O
_chemical_formula_sum   'Hg2 H28 C28 N8 Cl4 O2'
_cell_volume   856.37638416
_cell_formula_units_Z   2
loop_
 _symmetry_equiv_pos_site_id
 _symmetry_equiv_pos_as_xyz
  1  'x, y, z'
loop_
 _atom_site_type_symbol
 _atom_site_label
 _atom_site_symmetry_multiplicity
 _atom_site_fract_x
 _atom_site_fract_y
 _atom_site_fract_z
 _atom_site_occupancy
 _atom_site_hle17_bader_spin_density
 _atom_site_hle17_ddec_charge
 _atom_site_hle17_ddec_spin_density
 _atom_site_hle17_ddec_sum_bond_order
 _atom_site_hle17_magmom
 _atom_site_hse06_10hf_bader_spin_density
 _atom_site_hse06_10hf_ddec_charge
 _atom_site_hse06_10hf_ddec_spin_density
 _atom_site_hse06_10hf_ddec_sum_bond_order
 _atom_site_hse06_10hf_magmom
 _atom_site_hse06_bader_spin_density
 _atom_site_hse06_ddec_charge
 _atom_site_hse06_ddec_spin_density
 _atom_site_hse06_ddec_sum_bond_order
 _atom_site_hse06_magmom
 _atom_site_pbe_bader_spin_density
 _atom_site_pbe_cm5_charge
 _atom_site_pbe_ddec_charge
 _atom_site_pbe_ddec_spin_density
 _atom_site_pbe_ddec_sum_bond_order
 _atom_site_pbe_magmom
Hg  Hg0  1  0.60963898  0.15105740  0.00331565  1  0  0.758862  0  2.050114  0  0  0.609716  0  2.533248  0  0  0.657661  0  2.501541  0  0  0.521066  0.577409  0  2.552489  0
Hg  Hg1  1  0.39035708  0.84895821  0.99668045  1  0  0.758818  0  2.050095  0  0  0.609658  0  2.533225  0  0  0.657592  0  2.501527  0  0  0.521033  0.577346  0  2.552465  0
H  H2  1  0.06706932  0.64636460  0.99368420  1  0  0.104451  0  0.971134  0  0  0.112432  0  1.037487  0  0  0.115769  0  1.036188  0  0  0.093477  0.109793  0  1.038947  0
H  H3  1  0.93291973  0.35365542  0.00632062  1  0  0.104499  0  0.971088  0  0  0.112527  0  1.037377  0  0  0.115863  0  1.036074  0  0  0.093527  0.109889  0  1.038838  0
H  H4  1  0.15890531  0.41486188  0.93494084  1  0  0.083039  0  0.987402  0  0  0.092159  0  1.054286  0  0  0.094539  0  1.052814  0  0  0.086202  0.090754  0  1.054496  0
H  H5  1  0.84107458  0.58515161  0.06507495  1  0  0.083057  0  0.987213  0  0  0.092192  0  1.054096  0  0  0.094622  0  1.052567  0  0  0.08621  0.090788  0  1.054306  0
H  H6  1  0.23358646  0.41555164  0.74204818  1  0  0.094449  0  0.956636  0  0  0.104346  0  1.016706  0  0  0.107348  0  1.016184  0  0  0.092689  0.101877  0  1.017936  0
H  H7  1  0.76642264  0.58443327  0.25797932  1  0  0.094433  0  0.956521  0  0  0.104379  0  1.016536  0  0  0.107377  0  1.016018  0  0  0.092717  0.101906  0  1.017771  0
H  H8  1  0.21355885  0.64601274  0.60861508  1  0  0.083266  0  0.950322  0  0  0.098123  0  1.004395  0  0  0.101393  0  1.001418  0  0  0.102423  0.095779  0  1.006632  0
H  H9  1  0.78647442  0.35395411  0.39140180  1  0  0.083115  0  0.95033  0  0  0.098056  0  1.004324  0  0  0.101324  0  1.001345  0  0  0.102376  0.095682  0  1.006596  0
H  H10  1  0.49471692  0.72840298  0.46910868  1  0  0.108656  0  0.955616  0  0  0.131565  0  1.011439  0  0  0.133594  0  1.010153  0  0  0.095241  0.129968  0  1.012573  0
H  H11  1  0.50530866  0.27159524  0.53088796  1  0  0.108619  0  0.955592  0  0  0.131527  0  1.011433  0  0  0.133562  0  1.010135  0  0  0.095243  0.129934  0  1.012562  0
H  H12  1  0.61893891  0.80658899  0.37737383  1  0  0.132802  0  0.928897  0  0  0.15684  0  0.982911  0  0  0.158514  0  0.981896  0  0  0.103729  0.155385  0  0.984065  0
H  H13  1  0.38108489  0.19341802  0.62262419  1  0  0.132593  0  0.929244  0  0  0.156737  0  0.983128  0  0  0.158408  0  0.982122  0  0  0.103646  0.155269  0  0.984299  0
H  H14  1  0.40613521  0.80264898  0.32239948  1  0  0.136747  0  0.97145  0  0  0.15435  0  1.038134  0  0  0.156589  0  1.037028  0  0  0.088477  0.152593  0  1.039104  0
H  H15  1  0.59389124  0.19734259  0.67759935  1  0  0.136808  0  0.971287  0  0  0.154321  0  1.038078  0  0  0.156559  0  1.036968  0  0  0.088489  0.152565  0  1.039049  0
H  H16  1  0.20575831  0.26311991  0.40861970  1  0  0.105533  0  0.938997  0  0  0.115277  0  0.999688  0  0  0.11831  0  0.997104  0  0  0.114153  0.113077  0  1.001514  0
H  H17  1  0.79425204  0.73687317  0.59138357  1  0  0.105503  0  0.939151  0  0  0.11525  0  0.999835  0  0  0.118283  0  0.997256  0  0  0.114145  0.113051  0  1.001661  0
H  H18  1  0.23466918  0.47762813  0.26787428  1  0  0.116749  0  0.942799  0  0  0.128378  0  0.995461  0  0  0.131574  0  0.994638  0  0  0.106322  0.125868  0  0.996784  0
H  H19  1  0.76532331  0.52237209  0.73212903  1  0  0.116776  0  0.942751  0  0  0.128407  0  0.995417  0  0  0.131593  0  0.994606  0  0  0.106341  0.1259  0  0.996738  0
H  H20  1  0.41017809  0.42750270  0.10814676  1  0  0.082754  0  0.940034  0  0  0.091119  0  1.007248  0  0  0.092876  0  1.006015  0  0  0.113533  0.089879  0  1.007878  0
H  H21  1  0.58981216  0.57250197  0.89185642  1  0  0.082751  0  0.940019  0  0  0.091117  0  1.007239  0  0  0.092873  0  1.006009  0  0  0.113557  0.08988  0  1.007871  0
H  H22  1  0.52020571  0.97922250  0.21133052  1  0  0.080058  0  0.984097  0  0  0.085893  0  1.05798  0  0  0.08779  0  1.056398  0  0  0.104484  0.084448  0  1.059202  0
H  H23  1  0.47977670  0.02078605  0.78865732  1  0  0.080072  0  0.984117  0  0  0.085908  0  1.05797  0  0  0.087804  0  1.056391  0  0  0.104497  0.084464  0  1.059191  0
H  H24  1  0.96776517  0.90289190  0.93927728  1  0  0.302554  0  0.929557  0  0  0.286615  0  0.997924  0  0  0.292552  0  0.994184  0  0  0.274951  0.282275  0  1.000744  0
H  H25  1  0.03223532  0.09712250  0.06071748  1  0  0.302467  0  0.929543  0  0  0.286586  0  0.997833  0  0  0.292518  0  0.994102  0  0  0.274941  0.282248  0  1.000654  0
H  H26  1  0.00551875  0.00170299  0.81348783  1  0  0.329658  0  0.921534  0  0  0.30918  0  0.990448  0  0  0.317171  0  0.983946  0  0  0.28658  0.303769  0  0.994413  0
H  H27  1  0.99448416  0.99830601  0.18650001  1  0  0.329758  0  0.921518  0  0  0.309279  0  0.99042  0  0  0.317272  0  0.983911  0  0  0.286614  0.303869  0  0.994384  0
H  H28  1  0.30803911  0.78469248  0.55570461  1  0  0.247514  0  0.93951  0  0  0.235025  0  0.997829  0  0  0.241268  0  0.994086  0  0  0.312833  0.230588  0  1.000576  0
H  H29  1  0.69195350  0.21529826  0.44428134  1  0  0.247647  0  0.939447  0  0  0.235142  0  0.997788  0  0  0.241388  0  0.99404  0  0  0.312851  0.230706  0  1.000532  0
C  C30  1  0.09037182  0.77869609  0.83514500  1  0  0.310581  0  3.789839  0  0  0.299221  0  4.032118  0  0  0.310934  0  4.053878  0  0  0.099547  0.291759  0  4.016766  0
C  C31  1  0.90962556  0.22130953  0.16485480  1  0  0.310666  0  3.789596  0  0  0.299282  0  4.031869  0  0  0.311003  0  4.053618  0  0  0.099557  0.29182  0  4.016518  0
C  C32  1  0.10058829  0.64510479  0.90931365  1  0  -0.202157  0  3.730412  0  0  -0.215776  0  3.97976  0  0  -0.224303  0  4.002187  0  0  -0.112349  -0.209602  0  3.963973  0
C  C33  1  0.89940206  0.35490752  0.09069117  1  0  -0.202286  0  3.730495  0  0  -0.215943  0  3.979866  0  0  -0.224466  0  4.002296  0  0  -0.112462  -0.209772  0  3.96409  0
C  C34  1  0.15307803  0.51647497  0.87657661  1  0  -0.040521  0  3.802557  0  0  -0.056393  0  4.054824  0  0  -0.054211  0  4.076052  0  0  -0.096354  -0.057531  0  4.039199  0
C  C35  1  0.84691356  0.48353053  0.12343687  1  0  -0.040411  0  3.802478  0  0  -0.056333  0  4.05481  0  0  -0.054183  0  4.076008  0  0  -0.096264  -0.057466  0  4.03917  0
C  C36  1  0.19539177  0.51646408  0.76780030  1  0  -0.104679  0  3.815516  0  0  -0.122089  0  4.076645  0  0  -0.128382  0  4.099922  0  0  -0.113536  -0.118547  0  4.061651  0
C  C37  1  0.80460347  0.48352922  0.23221493  1  0  -0.104717  0  3.815085  0  0  -0.122153  0  4.076286  0  0  -0.12845  0  4.09958  0  0  -0.113484  -0.118608  0  4.061284  0
C  C38  1  0.18715675  0.64651303  0.69429545  1  0  -0.072188  0  3.792598  0  0  -0.099157  0  4.051081  0  0  -0.095766  0  4.069925  0  0  -0.092235  -0.101287  0  4.038664  0
C  C39  1  0.81284078  0.35347264  0.30571413  1  0  -0.07195  0  3.792109  0  0  -0.099031  0  4.050608  0  0  -0.095629  0  4.069442  0  0  -0.092254  -0.101141  0  4.038193  0
C  C40  1  0.13881161  0.77885064  0.72564057  1  0  -0.188848  0  3.744525  0  0  -0.169487  0  3.986764  0  0  -0.181552  0  4.010853  0  0  -0.033187  -0.162566  0  3.971236  0
C  C41  1  0.86118849  0.22114177  0.27435795  1  0  -0.188797  0  3.744426  0  0  -0.169389  0  3.986427  0  0  -0.181465  0  4.010509  0  0  -0.033118  -0.162464  0  3.970895  0
C  C42  1  0.13935099  0.91571912  0.64890537  1  0  0.523755  0  3.83053  0  0  0.47054  0  4.129859  0  0  0.500339  0  4.129904  0  0  0.231703  0.450882  0  4.128982  0
C  C43  1  0.86064163  0.08427476  0.35108717  1  0  0.523737  0  3.830486  0  0  0.470771  0  4.12934  0  0  0.500582  0  4.12937  0  0  0.231778  0.451093  0  4.128491  0
C  C44  1  0.47458370  0.81972458  0.39357553  1  0  -0.375611  0  3.698088  0  0  -0.454506  0  3.927065  0  0  -0.457405  0  3.933401  0  0  -0.238675  -0.452099  0  3.922577  0
C  C45  1  0.52544225  0.18027035  0.60642099  1  0  -0.375399  0  3.698281  0  0  -0.454337  0  3.927213  0  0  -0.45726  0  3.933603  0  0  -0.238591  -0.451924  0  3.92273  0
C  C46  1  0.35935245  0.97256107  0.40586138  1  0  0.222276  0  3.695492  0  0  0.221523  0  3.96453  0  0  0.229352  0  3.981797  0  0  0.129259  0.21643  0  3.952566  0
C  C47  1  0.64065154  0.02743351  0.59413268  1  0  0.222259  0  3.695473  0  0  0.221632  0  3.964359  0  0  0.229446  0  3.981615  0  0  0.129331  0.216536  0  3.952397  0
C  C48  1  0.36396637  0.10269310  0.32387706  1  0  -0.019922  0  3.738305  0  0  -0.001062  0  3.974448  0  0  -0.006741  0  3.997585  0  0  0.001694  0.002275  0  3.959042  0
C  C49  1  0.63603261  0.89730381  0.67611811  1  0  -0.019822  0  3.738064  0  0  -0.001044  0  3.974237  0  0  -0.006678  0  3.997319  0  0  0.001731  0.002296  0  3.95883  0
C  C50  1  0.28079312  0.24700106  0.33711206  1  0  -0.024463  0  3.685235  0  0  -0.055191  0  3.939337  0  0  -0.050524  0  3.956517  0  0  -0.057091  -0.05791  0  3.927493  0
C  C51  1  0.71921489  0.75299111  0.66288655  1  0  -0.024487  0  3.685181  0  0  -0.055233  0  3.939357  0  0  -0.050582  0  3.95652  0  0  -0.057126  -0.057953  0  3.927518  0
C  C52  1  0.29652621  0.36459695  0.26006121  1  0  -0.116924  0  3.741156  0  0  -0.127506  0  3.994637  0  0  -0.135172  0  4.015568  0  0  -0.082005  -0.122724  0  3.980849  0
C  C53  1  0.70347151  0.63540312  0.73994135  1  0  -0.116943  0  3.740957  0  0  -0.127519  0  3.994448  0  0  -0.135174  0  4.015384  0  0  -0.082034  -0.122735  0  3.980659  0
C  C54  1  0.39253194  0.33833440  0.16927987  1  0  0.124559  0  3.683564  0  0  0.08747  0  3.940431  0  0  0.096507  0  3.95924  0  0  0.046635  0.081724  0  3.9272  0
C  C55  1  0.60745648  0.66167368  0.83072098  1  0  0.124541  0  3.683691  0  0  0.087416  0  3.940584  0  0  0.096451  0  3.959393  0  0  0.046546  0.081666  0  3.927359  0
C  C56  1  0.45423356  0.08633361  0.22927363  1  0  0.098366  0  3.63497  0  0  0.055394  0  3.88351  0  0  0.0637  0  3.901331  0  0  0.045677  0.049932  0  3.871751  0
C  C57  1  0.54575822  0.91367232  0.77072044  1  0  0.098305  0  3.634872  0  0  0.055345  0  3.883436  0  0  0.06365  0  3.901219  0  0  0.045669  0.049887  0  3.871675  0
N  N58  1  0.04478958  0.90161134  0.87418148  1  0  -0.670278  0  3.18957  0  0  -0.622849  0  3.422451  0  0  -0.646311  0  3.423991  0  0  -0.593405  -0.605867  0  3.419967  0
N  N59  1  0.95521044  0.09839873  0.12581176  1  0  -0.670414  0  3.189356  0  0  -0.623038  0  3.422211  0  0  -0.6465  0  3.423747  0  0  -0.593514  -0.60606  0  3.419727  0
N  N60  1  0.24018008  0.89132546  0.56030413  1  0  -0.283161  0  3.482271  0  0  -0.230709  0  3.739604  0  0  -0.252639  0  3.757143  0  0  -0.295356  -0.215981  0  3.727198  0
N  N61  1  0.75981506  0.10866071  0.43968681  1  0  -0.283403  0  3.482612  0  0  -0.231053  0  3.739903  0  0  -0.25299  0  3.757437  0  0  -0.295429  -0.216309  0  3.727489  0
N  N62  1  0.25382340  0.00371232  0.48341014  1  0  -0.177881  0  3.09106  0  0  -0.17176  0  3.379108  0  0  -0.176868  0  3.396276  0  0  -0.200077  -0.168404  0  3.367365  0
N  N63  1  0.74617083  0.99627599  0.51658438  1  0  -0.177768  0  3.090901  0  0  -0.171673  0  3.378886  0  0  -0.176776  0  3.39605  0  0  -0.200101  -0.168319  0  3.367146  0
N  N64  1  0.46682904  0.20147311  0.15453230  1  0  -0.274521  0  3.343948  0  0  -0.182406  0  3.604567  0  0  -0.205946  0  3.629078  0  0  -0.307461  -0.166727  0  3.587442  0
N  N65  1  0.53316224  0.79853164  0.84546603  1  0  -0.27449  0  3.344084  0  0  -0.182314  0  3.604598  0  0  -0.205853  0  3.629115  0  0  -0.307381  -0.166635  0  3.587474  0
Cl  Cl66  1  0.70247230  0.27337249  0.84008565  1  0  -0.464374  0  0.976716  0  0  -0.399775  0  1.236082  0  0  -0.417368  0  1.220116  0  0  -0.257113  -0.387469  0  1.246967  0
Cl  Cl67  1  0.29753195  0.72663734  0.15991250  1  0  -0.464339  0  0.976693  0  0  -0.399761  0  1.23608  0  0  -0.417357  0  1.220122  0  0  -0.257103  -0.387448  0  1.246948  0
Cl  Cl68  1  0.74145483  0.86175835  0.07347793  1  0  -0.511966  0  0.989205  0  0  -0.45346  0  1.270078  0  0  -0.472676  0  1.25077  0  0  -0.273243  -0.439722  0  1.282474  0
Cl  Cl69  1  0.25853712  0.13825519  0.92651858  1  0  -0.511948  0  0.989201  0  0  -0.453459  0  1.270078  0  0  -0.472667  0  1.250761  0  0  -0.273252  -0.439719  0  1.282474  0
O  O70  1  0.06258421  0.04203301  0.66224591  1  0  -0.519131  0  1.906633  0  0  -0.48303  0  2.124416  0  0  -0.501906  0  2.117638  0  0  -0.298568  -0.470021  0  2.128704  0
O  O71  1  0.93740161  0.95795035  0.33773670  1  0  -0.519256  0  1.906279  0  0  -0.483263  0  2.123928  0  0  -0.502149  0  2.117143  0  0  -0.298706  -0.470248  0  2.128227  0
