# generated using pymatgen
data_Zn8H66C90N2O31
_symmetry_space_group_name_H-M   'P 1'
_cell_length_a   18.37068104
_cell_length_b   18.33504753
_cell_length_c   18.38616687
_cell_angle_alpha   60.69489575
_cell_angle_beta   60.25827141
_cell_angle_gamma   60.48265457
_symmetry_Int_Tables_number   1
_chemical_formula_structural   Zn8H66C90N2O31
_chemical_formula_sum   'Zn8 H66 C90 N2 O31'
_cell_volume   4426.33239075
_cell_formula_units_Z   1
loop_
 _symmetry_equiv_pos_site_id
 _symmetry_equiv_pos_as_xyz
  1  'x, y, z'
loop_
 _atom_site_type_symbol
 _atom_site_label
 _atom_site_symmetry_multiplicity
 _atom_site_fract_x
 _atom_site_fract_y
 _atom_site_fract_z
 _atom_site_occupancy
 _atom_site_pbe_bader_charge
 _atom_site_pbe_bader_spin_density
 _atom_site_pbe_cm5_charge
 _atom_site_pbe_ddec_charge
 _atom_site_pbe_ddec_spin_density
 _atom_site_pbe_ddec_sum_bond_order
 _atom_site_pbe_magmom
Zn  Zn0  1  0.95878204  0.45892616  0.12879670  1  1.307737  0  0.676169  0.964971  0  2.388742  0
Zn  Zn1  1  0.13484697  0.45726195  0.95563742  1  1.310962  0  0.678618  0.973345  0  2.344125  0
Zn  Zn2  1  0.95908667  0.62875202  0.95239972  1  1.325878  0  0.682715  0.974384  0  2.375353  0
Zn  Zn3  1  0.96296000  0.45095932  0.95791939  1  1.310882  0  0.668367  0.95307  0  2.402756  0
Zn  Zn4  1  0.53957520  0.04583746  0.36872559  1  1.330094  0  0.675237  0.968516  0  2.378866  0
Zn  Zn5  1  0.53898242  0.87439531  0.54191220  1  1.306995  0  0.670048  0.951836  0  2.427977  0
Zn  Zn6  1  0.36403618  0.04370718  0.54053525  1  1.319735  0  0.675269  0.966074  0  2.364417  0
Zn  Zn7  1  0.53749172  0.04326075  0.54755854  1  1.315553  0  0.673241  0.963101  0  2.381284  0
H  H8  1  0.70426720  0.73446120  0.70570380  1  0.113815  0  0.106694  0.125934  0  1.046941  0
H  H9  1  0.05817342  0.32817619  0.52326696  1  0.063589  0  0.094051  0.088837  0  1.030771  0
H  H10  1  0.00792938  0.19689642  0.60239988  1  0.062752  0  0.097467  0.092544  0  1.007451  0
H  H11  1  0.04905565  0.08071204  0.73518910  1  0.094431  0  0.097572  0.094838  0  1.012032  0
H  H12  1  0.14185166  0.09521721  0.78685839  1  0.055462  0  0.099578  0.099163  0  0.994859  0
H  H13  1  0.88241805  0.92225201  0.73094092  1  0.05348  0  0.10143  0.107547  0  1.028371  0
H  H14  1  0.03791631  0.82440278  0.70339015  1  0.025815  0  0.099453  0.099795  0  0.990787  0
H  H15  1  0.05607199  0.87628876  0.89704212  1  0.042323  0  0.097995  0.097644  0  0.99636  0
H  H16  1  0.89783117  0.97412017  0.92689411  1  0.08067  0  0.103598  0.116233  0  0.993251  0
H  H17  1  0.78923408  0.31022823  0.31155985  1  0.107414  0  0.119742  0.126794  0  0.976544  0
H  H18  1  0.18599413  0.91288263  0.70113954  1  0.120669  0  0.108592  0.119869  0  1.007346  0
H  H19  1  0.78235368  0.79797394  0.81884929  1  0.092867  0  0.108475  0.122066  0  1.017719  0
H  H20  1  0.31295091  0.58701879  0.78371168  1  0.080804  0  0.104051  0.112734  0  1.026464  0
H  H21  1  0.44992100  0.66913563  0.55930625  1  0.066493  0  0.103003  0.117622  0  1.008404  0
H  H22  1  0.69897506  0.54786778  0.60542840  1  0.060315  0  0.103531  0.11445  0  1.004758  0
H  H23  1  0.61908466  0.57178102  0.75240310  1  0.044412  0  0.101099  0.092644  0  1.003962  0
H  H24  1  0.45475370  0.64426744  0.80222927  1  0.089208  0  0.100847  0.102945  0  0.995469  0
H  H25  1  0.83492805  0.50873460  0.44382449  1  0.078667  0  0.097964  0.094313  0  1.015806  0
H  H26  1  0.94640805  0.58004094  0.31782070  1  0.054194  0  0.097832  0.091856  0  0.997669  0
H  H27  1  0.09474046  0.48820207  0.24393909  1  0.059622  0  0.099793  0.099293  0  0.996576  0
H  H28  1  0.82388297  0.25461714  0.16047167  1  0.09252  0  0.116523  0.134274  0  0.980656  0
H  H29  1  0.02425664  0.25276991  0.42325907  1  0.076169  0  0.103976  0.103752  0  0.991619  0
H  H30  1  0.42914700  0.43697768  0.76118167  1  0.091675  0  0.103679  0.122185  0  1.042444  0
H  H31  1  0.87499166  0.34452177  0.49671758  1  0.057897  0  0.102461  0.098035  0  0.991973  0
H  H32  1  0.19000571  0.24135852  0.40697025  1  0.101148  0  0.105629  0.11437  0  1.02413  0
H  H33  1  0.30726873  0.27456535  0.08922197  1  0.085154  0  0.107202  0.116916  0  1.019123  0
H  H34  1  0.48149262  0.25748096  0.09455519  1  0.068627  0  0.099001  0.096028  0  1.01885  0
H  H35  1  0.62729206  0.16962881  0.01239405  1  0.037045  0  0.100608  0.094112  0  0.998048  0
H  H36  1  0.65441023  0.01426706  0.03492119  1  0.082311  0  0.098312  0.095562  0  1.032848  0
H  H37  1  0.53516758  0.94676025  0.14124377  1  0.062565  0  0.095277  0.090044  0  1.01008  0
H  H38  1  0.38997739  0.03421437  0.22515847  1  0.067917  0  0.097827  0.098081  0  0.998692  0
H  H39  1  0.67651417  0.90850032  0.18785241  1  0.129138  0  0.1158  0.123193  0  1.007974  0
H  H40  1  0.67621637  0.73412340  0.34612520  1  0.100616  0  0.111891  0.130681  0  1.012073  0
H  H41  1  0.35020553  0.16158503  0.92489172  1  0.08142  0  0.101695  0.102718  0  0.989988  0
H  H42  1  0.80955961  0.67225890  0.25284037  1  0.107623  0  0.120271  0.14022  0  0.991685  0
H  H43  1  0.68960403  0.89919325  0.72499521  1  0.072229  0  0.109449  0.105643  0  0.978024  0
H  H44  1  0.90674981  0.51917404  0.77915632  1  0.058594  0  0.102307  0.07477  0  1.002976  0
H  H45  1  0.91673064  0.60483982  0.67363829  1  0.061059  0  0.102014  0.061827  0  0.960861  0
H  H46  1  0.79705444  0.58460044  0.66192079  1  0.052333  0  0.09454  0.128611  0  0.997953  0
H  H47  1  0.88782551  0.48384435  0.67481604  1  0.050791  0  0.098006  0.132576  0  0.993482  0
H  H48  1  0.78841788  0.49882441  0.76672253  1  0.038828  0  0.094441  0.127623  0  0.992973  0
H  H49  1  0.42706082  0.46632752  0.86886841  1  0.05145  0  0.096761  0.056161  0  0.985435  0
H  H50  1  0.53757022  0.41872781  0.80397875  1  0.057614  0  0.095334  0.05484  0  0.982677  0
H  H51  1  0.58753082  0.35724577  0.93488925  1  0.036848  0  0.093047  0.126768  0  0.994074  0
H  H52  1  0.43282052  0.18966987  0.97742529  1  0.098243  0  0.104133  0.120409  0  1.016204  0
H  H53  1  0.53964300  0.47479609  0.90176315  1  0.020407  0  0.091446  0.122592  0  1.016941  0
H  H54  1  0.47708995  0.40847390  0.99719836  1  0.033783  0  0.092346  0.124997  0  0.998135  0
H  H55  1  0.45440253  0.35836617  0.60428501  1  0.018254  0  0.095556  0.054485  0  0.97017  0
H  H56  1  0.46522719  0.44268202  0.61682486  1  0.016531  0  0.089297  0.038766  0  1.014019  0
H  H57  1  0.34852735  0.55805484  0.54671646  1  0.03151  0  0.090565  0.12299  0  0.998234  0
H  H58  1  0.43861575  0.49783328  0.47425858  1  0.012339  0  0.089714  0.117653  0  1.006846  0
H  H59  1  0.33715300  0.47400569  0.53444130  1  0.039641  0  0.093618  0.128758  0  0.989654  0
H  H60  1  0.73777826  0.96475547  0.81575334  1  0.036064  0  0.096954  0.055897  0  0.985357  0
H  H61  1  0.77372951  0.05696707  0.73184284  1  0.044569  0  0.0978  0.055614  0  0.970124  0
H  H62  1  0.65307207  0.15257815  0.82931258  1  0.033106  0  0.090365  0.126215  0  0.993433  0
H  H63  1  0.41153177  0.18631858  0.70972744  1  0.10999  0  0.109283  0.119747  0  1.000186  0
H  H64  1  0.60962340  0.10850204  0.79821297  1  0.020109  0  0.093961  0.129429  0  0.992715  0
H  H65  1  0.61567312  0.06049425  0.90662936  1  0.034639  0  0.088755  0.124376  0  1.024503  0
H  H66  1  0.52871023  0.59319534  0.46733383  1  0.039052  0  0.095573  0.051512  0  0.98988  0
H  H67  1  0.59878175  0.48686248  0.51429827  1  0.044548  0  0.09642  0.053534  0  0.977085  0
H  H68  1  0.72847220  0.51364278  0.37146871  1  0.058614  0  0.092959  0.131155  0  1.005014  0
H  H69  1  0.64042278  0.51507637  0.35446010  1  0.022671  0  0.09379  0.126055  0  0.993692  0
H  H70  1  0.65428338  0.61635658  0.32529405  1  0.019231  0  0.086679  0.118527  0  1.013082  0
H  H71  1  0.08562628  0.31394694  0.78887594  1  0.118378  0  0.106679  0.117025  0  1.006501  0
H  H72  1  0.69719561  0.22507902  0.24038990  1  0.085776  0  0.120866  0.141666  0  0.979452  0
H  H73  1  0.15060546  0.34252344  0.57583185  1  0.064301  0  0.097088  0.097305  0  1.000816  0
C  C74  1  0.14073269  0.35995269  0.86247732  1  1.577791  0  0.23172  0.617443  0  4.134536  0
C  C75  1  0.81214361  0.68086799  0.80231000  1  0.451676  0  0.084524  0.108811  0  3.996026  0
C  C76  1  0.41263861  0.37612683  0.79821515  1  -0.049113  0  -0.125579  -0.348454  0  4.01568  0
C  C77  1  0.85868113  0.63884535  0.13424243  1  1.579134  0  0.22234  0.63594  0  4.201054  0
C  C78  1  0.36779661  0.35859769  0.76848079  1  0.479025  0  0.076019  0.228884  0  4.06407  0
C  C79  1  0.34309299  0.28242225  0.81410254  1  -0.008266  0  -0.029998  -0.057608  0  4.022405  0
C  C80  1  0.36811135  0.22171637  0.88901791  1  -0.06152  0  -0.091746  -0.093424  0  4.031277  0
C  C81  1  0.41342468  0.23717130  0.91931095  1  -0.014749  0  -0.110292  -0.211201  0  4.005632  0
C  C82  1  0.43434964  0.31583150  0.87470716  1  0.479645  0  0.080431  0.273837  0  4.087994  0
C  C83  1  0.33943273  0.21423645  0.72847558  1  -0.007574  0  -0.078852  -0.139948  0  3.932627  0
C  C84  1  0.29769527  0.19618456  0.69558486  1  -0.033225  0  -0.009989  -0.068849  0  3.929132  0
C  C85  1  0.82410919  0.28939745  0.19435250  1  0.030079  0  -0.080355  -0.21058  0  3.879955  0
C  C86  1  0.20443040  0.23179610  0.71737171  1  -0.042787  0  0.006816  0.062662  0  3.953805  0
C  C87  1  0.15755611  0.28499779  0.77133354  1  0.02328  0  -0.080436  -0.139247  0  3.946136  0
C  C88  1  0.19917968  0.30285156  0.80445188  1  -0.079035  0  -0.008858  -0.069925  0  3.918342  0
C  C89  1  0.13956972  0.37280825  0.13654712  1  1.58411  0  0.228849  0.610637  0  4.161468  0
C  C90  1  0.29251203  0.26679192  0.78304565  1  0.02213  0  0.011963  0.092361  0  3.958592  0
C  C91  1  0.12833702  0.28507783  0.61057325  1  -0.056384  0  -0.098501  -0.143964  0  3.990871  0
C  C92  1  0.07662935  0.27690358  0.58097326  1  -0.016142  0  -0.099116  -0.084746  0  4.049368  0
C  C93  1  0.04830229  0.20331228  0.62545236  1  -0.089695  0  -0.098518  -0.096652  0  4.034516  0
C  C94  1  0.07147120  0.13813528  0.69987787  1  -0.116645  0  -0.094591  -0.079717  0  4.026418  0
C  C95  1  0.12311835  0.14640877  0.72929265  1  0.032612  0  -0.092704  -0.125355  0  3.981553  0
C  C96  1  0.69415608  0.83675888  0.21983606  1  -0.073596  0  -0.061299  -0.065526  0  3.933269  0
C  C97  1  0.15255286  0.21969296  0.68458530  1  -0.058855  0  -0.008728  0.07669  0  4.003993  0
C  C98  1  0.91919350  0.91225357  0.76850633  1  -0.043396  0  -0.114367  -0.22352  0  4.027263  0
C  C99  1  0.00767818  0.85685277  0.75279364  1  0.001625  0  -0.094503  -0.102279  0  4.009795  0
C  C100  1  0.05843513  0.84321377  0.79793904  1  0.023765  0  -0.0238  0.045288  0  4.031594  0
C  C101  1  0.86783386  0.62928821  0.86088709  1  1.545044  0  0.220486  0.548627  0  4.213871  0
C  C102  1  0.01785622  0.88641692  0.86067202  1  -0.023348  0  -0.096951  -0.117549  0  4.02782  0
C  C103  1  0.92953991  0.94093144  0.87786792  1  -0.017655  0  -0.108965  -0.202852  0  4.022345  0
C  C104  1  0.87949365  0.95517657  0.83124649  1  0.46331  0  0.079703  0.254514  0  4.087053  0
C  C105  1  0.21322257  0.84081926  0.72087682  1  -0.093874  0  -0.079289  -0.141296  0  3.944354  0
C  C106  1  0.30558350  0.80153353  0.69098014  1  0.007422  0  -0.009007  -0.063628  0  3.930484  0
C  C107  1  0.66680339  0.80435378  0.30881741  1  0.038627  0  -0.08325  -0.213495  0  3.872016  0
C  C108  1  0.34403164  0.70827387  0.71288089  1  0.023019  0  0.004861  0.058791  0  3.942669  0
C  C109  1  0.28621698  0.65902581  0.76532565  1  -0.05842  0  -0.080971  -0.140502  0  3.942771  0
C  C110  1  0.19357041  0.69847249  0.79695832  1  -0.006457  0  -0.01106  -0.071158  0  3.924632  0
C  C111  1  0.15517532  0.79174280  0.77375268  1  0.014458  0  0.009289  0.072967  0  3.949987  0
C  C112  1  0.48696206  0.64576931  0.60235954  1  -0.097633  0  -0.106651  -0.262852  0  3.952562  0
C  C113  1  0.13921536  0.63822048  0.85785606  1  1.562653  0  0.229388  0.60923  0  4.153478  0
C  C114  1  0.57946997  0.60488903  0.57460647  1  0.435639  0  0.077051  0.259462  0  4.080085  0
C  C115  1  0.62700349  0.57864483  0.62858044  1  0.041797  0  -0.106449  -0.210025  0  4.008325  0
C  C116  1  0.58178231  0.59224433  0.71054029  1  -0.099604  0  -0.090862  -0.05572  0  4.057021  0
C  C117  1  0.48977169  0.63220341  0.73887137  1  -0.025776  0  -0.099523  -0.153192  0  3.996397  0
C  C118  1  0.74605535  0.78120461  0.16275951  1  0.083179  0  0.029289  0.110059  0  4.051783  0
C  C119  1  0.44200984  0.66082274  0.68408069  1  0.066262  0  -0.005887  0.101684  0  4.011114  0
C  C120  1  0.96278641  0.50832517  0.34085125  1  -0.057347  0  -0.096494  -0.078943  0  4.052098  0
C  C121  1  0.04626375  0.45682908  0.29924536  1  -0.077704  0  -0.094468  -0.133556  0  3.984375  0
C  C122  1  0.06925566  0.36433906  0.32828465  1  0.002021  0  -0.007322  0.074939  0  4.004447  0
C  C123  1  0.00693978  0.32460728  0.40029397  1  -0.010195  0  -0.088551  -0.127043  0  3.96892  0
C  C124  1  0.92303959  0.37631729  0.44130788  1  -0.085381  0  -0.093337  -0.083813  0  4.039649  0
C  C125  1  0.87368735  0.35295824  0.13782285  1  1.570017  0  0.221732  0.642737  0  4.182309  0
C  C126  1  0.90060312  0.46838120  0.41179231  1  -0.055661  0  -0.098609  -0.100675  0  4.037844  0
C  C127  1  0.21446274  0.24851639  0.33713655  1  0.038343  0  -0.079511  -0.137707  0  3.936828  0
C  C128  1  0.30201425  0.19772158  0.30094576  1  -0.034829  0  -0.010362  -0.06849  0  3.934348  0
C  C129  1  0.80305526  0.69837857  0.18811643  1  0.011909  0  -0.062115  -0.235206  0  3.795012  0
C  C130  1  0.33717782  0.20606240  0.21039902  1  -0.006968  0  0.007957  0.066297  0  3.949937  0
C  C131  1  0.28240746  0.26738936  0.15911369  1  -0.006379  0  -0.077878  -0.136915  0  3.929191  0
C  C132  1  0.19488666  0.31774187  0.19538775  1  -0.052297  0  -0.010075  -0.066212  0  3.938783  0
C  C133  1  0.15944323  0.30927171  0.28606369  1  -0.016958  0  0.004256  0.057254  0  3.965709  0
C  C134  1  0.49397854  0.18883433  0.10591538  1  0.010921  0  -0.088856  -0.124131  0  3.977107  0
C  C135  1  0.57581879  0.13934793  0.05995649  1  -0.049665  0  -0.09077  -0.072849  0  4.024925  0
C  C136  1  0.59123710  0.05202612  0.07277277  1  -0.053774  0  -0.098651  -0.102423  0  4.030711  0
C  C137  1  0.72865360  0.21736804  0.34068670  1  0.028487  0  0.028203  0.109806  0  4.049948  0
C  C138  1  0.52416919  0.01433399  0.13233510  1  -0.076527  0  -0.098551  -0.086223  0  4.048599  0
C  C139  1  0.44256341  0.06343349  0.17920708  1  -0.034365  0  -0.09696  -0.139296  0  3.989189  0
C  C140  1  0.71223081  0.82841184  0.73549574  1  -0.01038  0  -0.070635  0.011547  0  3.992813  0
C  C141  1  0.42676095  0.15127154  0.16633917  1  -0.054809  0  -0.008942  0.075309  0  4.004881  0
C  C142  1  0.63181745  0.86592334  0.63911743  1  1.499254  0  0.212441  0.637986  0  4.189869  0
C  C143  1  0.35712538  0.13985781  0.36010930  1  1.577308  0  0.228699  0.607796  0  4.166571  0
C  C144  1  0.61973132  0.86334338  0.36303190  1  1.546783  0  0.221057  0.63957  0  4.181853  0
C  C145  1  0.35597096  0.13998943  0.63664521  1  1.59191  0  0.228774  0.608023  0  4.161069  0
C  C146  1  0.35946184  0.86239331  0.63648440  1  1.565124  0  0.227993  0.60508  0  4.169005  0
C  C147  1  0.63661771  0.13621776  0.36499886  1  1.557122  0  0.220291  0.635148  0  4.20278  0
C  C148  1  0.68997227  0.19610907  0.31037140  1  0.049858  0  -0.061013  -0.229133  0  3.78131  0
C  C149  1  0.78223887  0.27611906  0.28175949  1  -0.059501  0  -0.058619  -0.062599  0  3.93222  0
C  C150  1  0.71930945  0.18661976  0.43216604  1  0.870686  0  0.180431  0.240083  0  3.994256  0
C  C151  1  0.68519809  0.80360670  0.69701408  1  -0.010617  0  -0.103078  -0.250293  0  3.896445  0
C  C152  1  0.87141923  0.57058466  0.73247561  1  0.382656  0  -0.064536  0.076654  0  3.887691  0
C  C153  1  0.83353883  0.53255769  0.70751551  1  -0.072924  0  -0.240642  -0.395444  0  3.974305  0
C  C154  1  0.49009719  0.41152161  0.87224331  1  0.393424  0  -0.067479  0.08603  0  3.926839  0
C  C155  1  0.52571583  0.41278101  0.93015195  1  -0.037776  0  -0.242469  -0.393963  0  3.97753  0
C  C156  1  0.41870467  0.42440443  0.61274146  1  0.467989  0  -0.068338  0.091338  0  3.934191  0
C  C157  1  0.38353080  0.49272574  0.53766128  1  -0.047649  0  -0.244308  -0.393928  0  3.994602  0
C  C158  1  0.74130753  0.02835309  0.80351704  1  0.420627  0  -0.065425  0.08932  0  3.920262  0
C  C159  1  0.64966831  0.09107686  0.83666009  1  -0.021175  0  -0.245191  -0.395888  0  3.971256  0
C  C160  1  0.59769953  0.55382795  0.46624156  1  0.404776  0  -0.066663  0.087527  0  3.931262  0
C  C161  1  0.65902169  0.54963071  0.37408792  1  -0.039764  0  -0.244241  -0.394133  0  3.970262  0
C  C162  1  0.76968714  0.76982420  0.78770932  1  0.094929  0  -0.094262  -0.181296  0  3.986008  0
C  C163  1  0.73247638  0.81990095  0.07938094  1  0.845205  0  0.187719  0.237252  0  3.975366  0
N  N164  1  0.71786673  0.16814342  0.50328029  1  -1.088679  0  -0.304504  -0.343671  0  2.650888  0
N  N165  1  0.71318776  0.85684597  0.01539372  1  -1.08916  0  -0.278076  -0.318512  0  2.710819  0
O  O166  1  0.00380368  0.49907014  0.99950514  1  -1.217124  0  -0.576114  -1.037103  0  2.553586  0
O  O167  1  0.31928624  0.10650169  0.62296828  1  -1.179778  0  -0.303904  -0.537996  0  2.394022  0
O  O168  1  0.44093058  0.82899544  0.62982700  1  -1.174377  0  -0.305228  -0.533952  0  2.400187  0
O  O169  1  0.05888450  0.39703577  0.86775494  1  -1.17775  0  -0.320003  -0.554298  0  2.336911  0
O  O170  1  0.62058809  0.10631372  0.44814560  1  -1.148423  0  -0.301338  -0.532155  0  2.349404  0
O  O171  1  0.31881932  0.94370136  0.60176705  1  -1.170534  0  -0.313112  -0.541101  0  2.33446  0
O  O172  1  0.61188840  0.12069691  0.32153178  1  -1.149671  0  -0.312829  -0.536062  0  2.275105  0
O  O173  1  0.61026491  0.94562425  0.32279625  1  -1.176673  0  -0.313926  -0.547081  0  2.324661  0
O  O174  1  0.43869631  0.12990760  0.60495654  1  -1.175203  0  -0.315559  -0.543361  0  2.339116  0
O  O175  1  0.62367069  0.83021292  0.59957000  1  -1.173855  0  -0.328166  -0.559808  0  2.320552  0
O  O176  1  0.31538031  0.11790651  0.44336238  1  -1.173423  0  -0.311245  -0.537244  0  2.337513  0
O  O177  1  0.05769900  0.37940686  0.17343000  1  -1.173816  0  -0.309778  -0.542765  0  2.372543  0
O  O178  1  0.89085702  0.55754333  0.17691098  1  -1.156693  0  -0.305985  -0.531049  0  2.308258  0
O  O179  1  0.17927291  0.40565907  0.05418730  1  -1.175998  0  -0.313738  -0.543207  0  2.316754  0
O  O180  1  0.90189881  0.67162180  0.86657446  1  -1.152143  0  -0.308878  -0.527593  0  2.35772  0
O  O181  1  0.17931352  0.55590023  0.86599753  1  -1.171779  0  -0.312616  -0.54179  0  2.333532  0
O  O182  1  0.90595416  0.36313275  0.05511559  1  -1.154499  0  -0.316188  -0.541189  0  2.280526  0
O  O183  1  0.05759672  0.67301144  0.89848207  1  -1.177292  0  -0.30752  -0.541298  0  2.388131  0
O  O184  1  0.87939056  0.39191313  0.17540166  1  -1.173543  0  -0.315639  -0.549738  0  2.316772  0
O  O185  1  0.79686410  0.63619296  0.77328630  1  -1.068265  0  -0.173485  -0.174361  0  2.563084  0
O  O186  1  0.47535679  0.32827726  0.91075968  1  -1.072774  0  -0.184351  -0.211672  0  2.529234  0
O  O187  1  0.34402335  0.41907561  0.69415519  1  -1.076749  0  -0.210624  -0.246609  0  2.474474  0
O  O188  1  0.87496997  0.54751518  0.90110556  1  -1.177722  0  -0.314659  -0.537196  0  2.366801  0
O  O189  1  0.79428310  0.01194508  0.85058779  1  -1.075878  0  -0.188579  -0.21728  0  2.520964  0
O  O190  1  0.62863688  0.59277096  0.49269095  1  -1.076112  0  -0.202219  -0.244426  0  2.494036  0
O  O191  1  0.17492184  0.36712882  0.90328826  1  -1.170759  0  -0.302404  -0.53575  0  2.378996  0
O  O192  1  0.86987107  0.67320000  0.05183953  1  -1.160591  0  -0.301874  -0.53483  0  2.355591  0
O  O193  1  0.49458569  0.00441823  0.49809611  1  -1.236583  0  -0.574728  -1.034447  0  2.54625  0
O  O194  1  0.59849478  0.94849954  0.63094820  1  -1.169895  0  -0.321733  -0.554331  0  2.305952  0
O  O195  1  0.44105993  0.11938344  0.32248397  1  -1.171505  0  -0.306401  -0.541072  0  2.393163  0
O  O196  1  0.59343454  0.82462372  0.44657509  1  -1.160157  0  -0.309755  -0.531322  0  2.312031  0
