# generated using pymatgen
data_ReAgH18C10S2N2O5
_symmetry_space_group_name_H-M   'P 1'
_cell_length_a   12.88744039
_cell_length_b   12.88699864
_cell_length_c   14.91260589
_cell_angle_alpha   89.99990070
_cell_angle_beta   90.00014633
_cell_angle_gamma   122.00252089
_symmetry_Int_Tables_number   1
_chemical_formula_structural   ReAgH18C10S2N2O5
_chemical_formula_sum   'Re4 Ag4 H72 C40 S8 N8 O20'
_cell_volume   2100.29614646
_cell_formula_units_Z   4
loop_
 _symmetry_equiv_pos_site_id
 _symmetry_equiv_pos_as_xyz
  1  'x, y, z'
loop_
 _atom_site_type_symbol
 _atom_site_label
 _atom_site_symmetry_multiplicity
 _atom_site_fract_x
 _atom_site_fract_y
 _atom_site_fract_z
 _atom_site_occupancy
 _atom_site_pbe_bader_charge
 _atom_site_pbe_bader_spin_density
 _atom_site_pbe_cm5_charge
 _atom_site_pbe_ddec_charge
 _atom_site_pbe_ddec_spin_density
 _atom_site_pbe_ddec_sum_bond_order
 _atom_site_pbe_magmom
Re  Re0  1  0.89060309  0.65881290  0.64886324  1  1.692701  0  0.929658  0.971242  0  5.422575  0
Re  Re1  1  0.65881850  0.89053395  0.35116613  1  1.692895  0  0.929465  0.970896  0  5.422614  0
Re  Re2  1  0.10943250  0.34119119  0.14884698  1  1.692523  0  0.929421  0.970876  0  5.423032  0
Re  Re3  1  0.34115378  0.10944359  0.85116887  1  1.692863  0  0.92943  0.970634  0  5.423062  0
Ag  Ag4  1  0.08165005  0.77795921  0.86096923  1  0.511256  0  0.399203  0.385987  0  2.124719  0
Ag  Ag5  1  0.77789512  0.08162159  0.13906785  1  0.511518  0  0.399192  0.386167  0  2.124493  0
Ag  Ag6  1  0.91836704  0.22204846  0.36097000  1  0.511541  0  0.399191  0.386107  0  2.124359  0
Ag  Ag7  1  0.22210581  0.91838074  0.63903011  1  0.511651  0  0.399141  0.386135  0  2.124352  0
H  H8  1  0.67671691  0.65926687  0.65250662  1  0.441184  0  0.318834  0.30445  0  0.898809  0
H  H9  1  0.65920221  0.67661541  0.34750804  1  0.443326  0  0.318911  0.304545  0  0.898877  0
H  H10  1  0.32331829  0.34075179  0.15250614  1  0.442645  0  0.318766  0.304453  0  0.898898  0
H  H11  1  0.34076227  0.32336523  0.84748955  1  0.442515  0  0.318908  0.304518  0  0.898732  0
H  H12  1  0.63731187  0.51143298  0.64983564  1  0.462741  0  0.294341  0.27846  0  0.982777  0
H  H13  1  0.51137820  0.63726569  0.35016857  1  0.463001  0  0.294418  0.278651  0  0.982822  0
H  H14  1  0.36269750  0.48858677  0.14985143  1  0.462935  0  0.29427  0.278478  0  0.982859  0
H  H15  1  0.48858426  0.36271162  0.85016411  1  0.463475  0  0.294395  0.278697  0  0.982806  0
H  H16  1  0.78001915  0.42053339  0.61126080  1  0.469692  0  0.308492  0.305072  0  0.923362  0
H  H17  1  0.42056433  0.78001003  0.38874255  1  0.469907  0  0.308538  0.305009  0  0.923657  0
H  H18  1  0.21998055  0.57946051  0.11127476  1  0.469688  0  0.308512  0.305118  0  0.923652  0
H  H19  1  0.57939544  0.21999706  0.88873090  1  0.470138  0  0.308558  0.305051  0  0.923754  0
H  H20  1  0.83122422  0.49250276  0.51506610  1  0.470428  0  0.305739  0.293352  0  0.929871  0
H  H21  1  0.49247858  0.83121435  0.48493504  1  0.470288  0  0.305869  0.293431  0  0.929886  0
H  H22  1  0.16880960  0.50752430  0.01505977  1  0.470321  0  0.305748  0.293323  0  0.929924  0
H  H23  1  0.50750629  0.16882639  0.98494945  1  0.469794  0  0.305684  0.293227  0  0.929763  0
H  H24  1  0.70129830  0.63450564  0.95520055  1  0.042277  0  0.086095  0.120641  0  1.018189  0
H  H25  1  0.63448204  0.70127017  0.04480136  1  0.042786  0  0.08615  0.120691  0  1.018207  0
H  H26  1  0.29869689  0.36548119  0.45521680  1  0.041688  0  0.086093  0.120643  0  1.018144  0
H  H27  1  0.36553034  0.29873847  0.54479499  1  0.043961  0  0.086212  0.12078  0  1.018146  0
H  H28  1  0.83584046  0.63572674  0.92702330  1  0.057272  0  0.089752  0.136895  0  1.046912  0
H  H29  1  0.63571660  0.83582607  0.07299329  1  0.056939  0  0.089729  0.136817  0  1.047055  0
H  H30  1  0.16415852  0.36426426  0.42704441  1  0.056956  0  0.089809  0.137004  0  1.046694  0
H  H31  1  0.36429726  0.16417638  0.57298154  1  0.057036  0  0.089668  0.136785  0  1.047044  0
H  H32  1  0.84729304  0.77360869  0.95691390  1  0.045368  0  0.096044  0.143078  0  0.991004  0
H  H33  1  0.77360132  0.84727327  0.04311078  1  0.047387  0  0.095968  0.142983  0  0.990718  0
H  H34  1  0.15269844  0.22637628  0.45691466  1  0.045168  0  0.096092  0.14319  0  0.991029  0
H  H35  1  0.22641142  0.15272157  0.54308711  1  0.046716  0  0.095995  0.143019  0  0.990967  0
H  H36  1  0.78712335  0.88417898  0.84914636  1  0.06826  0  0.10197  0.154803  0  0.966338  0
H  H37  1  0.88411944  0.78704978  0.15083989  1  0.068788  0  0.101998  0.154898  0  0.966662  0
H  H38  1  0.21286770  0.11581723  0.34916051  1  0.06858  0  0.101974  0.154796  0  0.966233  0
H  H39  1  0.11587839  0.21295180  0.65084147  1  0.068727  0  0.101979  0.154913  0  0.966577  0
H  H40  1  0.71526214  0.81625809  0.74613015  1  0.036038  0  0.090586  0.12616  0  0.995746  0
H  H41  1  0.81619644  0.71516412  0.25387358  1  0.036639  0  0.09063  0.126236  0  0.995811  0
H  H42  1  0.28474497  0.18374130  0.24613895  1  0.036258  0  0.090609  0.126204  0  0.995525  0
H  H43  1  0.18380614  0.28481905  0.75386902  1  0.036451  0  0.090664  0.126272  0  0.995902  0
H  H44  1  0.63510257  0.75527802  0.84932125  1  0.033502  0  0.092497  0.131563  0  0.997346  0
H  H45  1  0.75521445  0.63502098  0.15067044  1  0.0327  0  0.092522  0.131759  0  0.997389  0
H  H46  1  0.36489283  0.24471572  0.34934035  1  0.033563  0  0.092465  0.131606  0  0.997313  0
H  H47  1  0.24478576  0.36497324  0.65067228  1  0.03283  0  0.092504  0.131762  0  0.997373  0
H  H48  1  0.59321710  0.55381022  0.80034727  1  0.054162  0  0.108792  0.073836  0  0.981732  0
H  H49  1  0.55375973  0.59315907  0.19966363  1  0.024262  0  0.108692  0.073646  0  0.981654  0
H  H50  1  0.40678527  0.44618302  0.30035694  1  0.054572  0  0.108759  0.073742  0  0.98174  0
H  H51  1  0.44623019  0.40682079  0.69965794  1  0.024365  0  0.108765  0.073682  0  0.981753  0
H  H52  1  0.18399493  0.74559605  0.47820576  1  0.04885  0  0.086816  0.133315  0  1.037862  0
H  H53  1  0.74557696  0.18401222  0.52176490  1  0.04876  0  0.086814  0.133416  0  1.037791  0
H  H54  1  0.81599789  0.25437411  0.97823239  1  0.048576  0  0.086773  0.133242  0  1.037931  0
H  H55  1  0.25439372  0.81600820  0.02177914  1  0.049011  0  0.086745  0.133258  0  1.037846  0
H  H56  1  0.10981152  0.60067439  0.42352534  1  0.063172  0  0.093369  0.145377  0  0.990952  0
H  H57  1  0.60064985  0.10981312  0.57643391  1  0.063666  0  0.093396  0.145475  0  0.990929  0
H  H58  1  0.89016043  0.39926740  0.92353488  1  0.063792  0  0.093409  0.14548  0  0.990982  0
H  H59  1  0.39932383  0.89021510  0.07646460  1  0.063152  0  0.093376  0.145394  0  0.990807  0
H  H60  1  0.02408843  0.66486660  0.46017168  1  0.02517  0  0.088555  0.12879  0  1.008531  0
H  H61  1  0.66483907  0.02410494  0.53979608  1  0.025266  0  0.0885  0.128762  0  1.008934  0
H  H62  1  0.97589227  0.33509903  0.96017485  1  0.025487  0  0.088538  0.128843  0  1.008436  0
H  H63  1  0.33513824  0.97593823  0.03981074  1  0.025405  0  0.08858  0.128759  0  1.008306  0
H  H64  1  0.17417196  0.52881384  0.65501768  1  0.049167  0  0.085592  0.123927  0  1.001094  0
H  H65  1  0.52883191  0.17415808  0.34490528  1  0.048197  0  0.085608  0.123748  0  1.001234  0
H  H66  1  0.82586234  0.47118574  0.15502975  1  0.049307  0  0.085625  0.123843  0  1.001194  0
H  H67  1  0.47119362  0.82584601  0.84497583  1  0.048917  0  0.085654  0.123859  0  1.001118  0
H  H68  1  0.19265151  0.51462264  0.53790963  1  0.050402  0  0.088645  0.134136  0  1.021638  0
H  H69  1  0.51463423  0.19266475  0.46200935  1  0.059098  0  0.088777  0.13425  0  1.02141  0
H  H70  1  0.80736776  0.48537468  0.03792723  1  0.049809  0  0.088728  0.134143  0  1.021765  0
H  H71  1  0.48536388  0.80737479  0.96208636  1  0.04964  0  0.088707  0.134071  0  1.021769  0
H  H72  1  0.27462090  0.66191315  0.59014992  1  0.065066  0  0.088052  0.148139  0  1.020972  0
H  H73  1  0.66190501  0.27463121  0.40978460  1  0.064835  0  0.088092  0.148097  0  1.020651  0
H  H74  1  0.72539872  0.33809064  0.09016834  1  0.0656  0  0.088036  0.148127  0  1.020838  0
H  H75  1  0.33811203  0.72539205  0.90984581  1  0.06552  0  0.088056  0.148045  0  1.020901  0
H  H76  1  0.95638195  0.42438504  0.63844726  1  0.086723  0  0.122498  0.104996  0  0.937616  0
H  H77  1  0.42437491  0.95635133  0.36152222  1  0.08672  0  0.122537  0.105031  0  0.937177  0
H  H78  1  0.04362903  0.57562152  0.13843830  1  0.086909  0  0.122479  0.104957  0  0.937378  0
H  H79  1  0.57563133  0.04367500  0.86156235  1  0.087308  0  0.122498  0.105015  0  0.93743  0
C  C80  1  0.77367452  0.71108337  0.82399343  1  -0.020144  0  -0.004427  0.224672  0  3.742621  0
C  C81  1  0.71104015  0.77361723  0.17600518  1  -0.018963  0  -0.004198  0.224504  0  3.742617  0
C  C82  1  0.22633748  0.28892326  0.32400567  1  -0.019861  0  -0.004303  0.224778  0  3.742393  0
C  C83  1  0.28895974  0.22636834  0.67600273  1  -0.018959  0  -0.004299  0.22452  0  3.74235  0
C  C84  1  0.79028189  0.68697855  0.92127983  1  -0.082706  0  -0.252563  -0.436574  0  3.913261  0
C  C85  1  0.68694480  0.79024716  0.07872205  1  -0.083296  0  -0.252493  -0.436355  0  3.913178  0
C  C86  1  0.20971729  0.31301253  0.42128217  1  -0.082121  0  -0.252682  -0.436899  0  3.913462  0
C  C87  1  0.31305610  0.20974961  0.57871087  1  -0.083147  0  -0.252507  -0.436436  0  3.913115  0
C  C88  1  0.72484662  0.79623482  0.81625287  1  -0.073084  0  -0.239215  -0.41343  0  3.890126  0
C  C89  1  0.79619519  0.72476046  0.18374607  1  -0.074382  0  -0.239404  -0.41385  0  3.890193  0
C  C90  1  0.27515972  0.20375887  0.31626872  1  -0.073831  0  -0.239304  -0.41359  0  3.889537  0
C  C91  1  0.20380908  0.27522886  0.68374471  1  -0.074177  0  -0.23939  -0.413908  0  3.890204  0
C  C92  1  0.68679358  0.58757111  0.77653220  1  0.283019  0  -0.005457  -0.045405  0  3.847266  0
C  C93  1  0.58753082  0.68674180  0.22347384  1  0.312874  0  -0.005403  -0.044761  0  3.846614  0
C  C94  1  0.31321803  0.41243135  0.27653513  1  0.282701  0  -0.00546  -0.045101  0  3.846836  0
C  C95  1  0.41246117  0.31324225  0.72347924  1  0.31309  0  -0.005547  -0.045005  0  3.847075  0
C  C96  1  0.72375218  0.49546394  0.79900312  1  1.594213  0  0.210869  0.562995  0  4.166334  0
C  C97  1  0.49545470  0.72373720  0.20099772  1  1.59412  0  0.211121  0.563119  0  4.166101  0
C  C98  1  0.27626497  0.50453899  0.29902550  1  1.594407  0  0.210935  0.563092  0  4.16616  0
C  C99  1  0.50455048  0.27626580  0.70100413  1  1.593725  0  0.210948  0.562869  0  4.166502  0
C  C100  1  0.08317030  0.59186325  0.56789418  1  -0.026985  0  0.004442  0.244859  0  3.719299  0
C  C101  1  0.59186348  0.08317258  0.43206004  1  -0.026563  0  0.004453  0.24457  0  3.720288  0
C  C102  1  0.91684255  0.40813246  0.06790470  1  -0.026958  0  0.004517  0.244794  0  3.719611  0
C  C103  1  0.40813022  0.91684529  0.93210181  1  -0.027095  0  0.004466  0.244827  0  3.719623  0
C  C104  1  0.10083914  0.65414192  0.47701273  1  -0.058028  0  -0.250133  -0.429398  0  3.882479  0
C  C105  1  0.65412592  0.10085841  0.52294223  1  -0.058103  0  -0.250042  -0.429542  0  3.883249  0
C  C106  1  0.89914912  0.34582518  0.97702745  1  -0.058718  0  -0.25014  -0.429499  0  3.882345  0
C  C107  1  0.34585322  0.89917245  0.02296558  1  -0.058249  0  -0.25003  -0.429334  0  3.882449  0
C  C108  1  0.18791589  0.57296319  0.58932432  1  -0.086811  0  -0.251972  -0.428697  0  3.88867  0
C  C109  1  0.57296597  0.18790318  0.41060790  1  -0.094311  0  -0.252209  -0.428541  0  3.888646  0
C  C110  1  0.81211079  0.42703792  0.08933696  1  -0.086455  0  -0.252145  -0.428659  0  3.888946  0
C  C111  1  0.42703942  0.81212049  0.91066943  1  -0.08566  0  -0.252127  -0.428448  0  3.889137  0
C  C112  1  0.95758520  0.47167393  0.57693476  1  0.235217  0  0.001822  -0.030561  0  3.758893  0
C  C113  1  0.47168099  0.95758294  0.42304723  1  0.234299  0  0.001958  -0.029961  0  3.757923  0
C  C114  1  0.04242104  0.52832084  0.07692467  1  0.23437  0  0.001931  -0.030137  0  3.758477  0
C  C115  1  0.52831735  0.04245277  0.92307351  1  0.233852  0  0.001932  -0.030261  0  3.758417  0
C  C116  1  0.93333036  0.39004526  0.49426905  1  1.58596  0  0.188325  0.550486  0  4.224353  0
C  C117  1  0.39008558  0.93336652  0.50572537  1  1.586151  0  0.188065  0.550118  0  4.224674  0
C  C118  1  0.06667378  0.60990882  0.99424531  1  1.586218  0  0.18814  0.550163  0  4.224659  0
C  C119  1  0.60988824  0.06669427  0.00577263  1  1.585079  0  0.188188  0.550514  0  4.224553  0
S  S120  1  0.92740503  0.78708162  0.76849972  1  -0.2838  0  -0.181476  -0.315835  0  3.029097  0
S  S121  1  0.78706631  0.92736178  0.23151308  1  -0.283508  0  -0.181595  -0.31582  0  3.028653  0
S  S122  1  0.07260492  0.21291766  0.26849329  1  -0.283894  0  -0.181469  -0.315816  0  3.028682  0
S  S123  1  0.21292900  0.07262238  0.73149890  1  -0.283629  0  -0.181498  -0.315771  0  3.028563  0
S  S124  1  0.08323530  0.69477113  0.65706076  1  -0.289442  0  -0.178095  -0.305729  0  3.124342  0
S  S125  1  0.69474957  0.08318107  0.34292660  1  -0.290107  0  -0.178138  -0.305749  0  3.12478  0
S  S126  1  0.91679537  0.30522897  0.15705973  1  -0.289828  0  -0.178084  -0.305652  0  3.124556  0
S  S127  1  0.30525133  0.91681073  0.84292571  1  -0.289737  0  -0.178224  -0.305791  0  3.124232  0
N  N128  1  0.69510599  0.59692303  0.67766223  1  -1.146638  0  -0.605685  -0.522074  0  3.452058  0
N  N129  1  0.59689269  0.69502845  0.32234062  1  -1.149365  0  -0.605809  -0.522564  0  3.452622  0
N  N130  1  0.30491173  0.40308307  0.17766703  1  -1.148442  0  -0.605522  -0.522133  0  3.452453  0
N  N131  1  0.40307721  0.30493388  0.82234584  1  -1.148919  0  -0.60572  -0.52241  0  3.452488  0
N  N132  1  0.85525802  0.49462268  0.58183137  1  -1.095095  0  -0.606954  -0.498616  0  3.436276  0
N  N133  1  0.49462184  0.85523494  0.41818208  1  -1.095039  0  -0.607256  -0.498796  0  3.436097  0
N  N134  1  0.14475940  0.50538622  0.08182918  1  -1.094972  0  -0.607071  -0.498721  0  3.436317  0
N  N135  1  0.50534926  0.14476699  0.91818450  1  -1.094697  0  -0.607147  -0.498644  0  3.436562  0
O  O136  1  0.88302938  0.73477967  0.55721298  1  -0.703891  0  -0.425604  -0.424049  0  1.820634  0
O  O137  1  0.73478949  0.88296297  0.44281636  1  -0.703972  0  -0.425605  -0.424016  0  1.820499  0
O  O138  1  0.11701468  0.26522616  0.05720265  1  -0.703471  0  -0.425468  -0.423947  0  1.820818  0
O  O139  1  0.26517405  0.11700649  0.94280184  1  -0.704004  0  -0.425581  -0.423781  0  1.820881  0
O  O140  1  0.81867170  0.51561998  0.75409722  1  -1.117802  0  -0.296503  -0.47048  0  2.299242  0
O  O141  1  0.51562706  0.81865455  0.24592883  1  -1.117464  0  -0.296698  -0.470687  0  2.299542  0
O  O142  1  0.18135225  0.48438161  0.25410136  1  -1.117203  0  -0.296527  -0.470691  0  2.299395  0
O  O143  1  0.48434711  0.18132763  0.74592721  1  -1.1175  0  -0.296558  -0.470519  0  2.29942  0
O  O144  1  0.66567505  0.41315241  0.85558364  1  -1.174954  0  -0.306641  -0.523076  0  2.13848  0
O  O145  1  0.41318808  0.66569139  0.14439511  1  -1.175588  0  -0.306768  -0.523095  0  2.138428  0
O  O146  1  0.33430941  0.58682035  0.35561904  1  -1.175582  0  -0.306693  -0.523003  0  2.138297  0
O  O147  1  0.58681887  0.33428832  0.64440318  1  -1.17533  0  -0.306702  -0.522952  0  2.138649  0
O  O148  1  0.98084963  0.32496701  0.49525284  1  -1.145978  0  -0.341632  -0.527535  0  2.252355  0
O  O149  1  0.32501249  0.98088179  0.50475148  1  -1.145865  0  -0.341361  -0.527353  0  2.25277  0
O  O150  1  0.01915125  0.67499555  0.99521826  1  -1.14559  0  -0.341381  -0.527229  0  2.252288  0
O  O151  1  0.67493942  0.01914711  0.00482466  1  -1.14521  0  -0.341353  -0.52737  0  2.252843  0
O  O152  1  0.87024855  0.39584244  0.43204644  1  -1.167442  0  -0.334465  -0.555771  0  2.138439  0
O  O153  1  0.39587065  0.87027299  0.56796154  1  -1.167454  0  -0.334515  -0.555827  0  2.138355  0
O  O154  1  0.12976825  0.60410853  0.93203092  1  -1.167922  0  -0.334497  -0.555825  0  2.13864  0
O  O155  1  0.60407067  0.12978723  0.06797615  1  -1.16716  0  -0.334522  -0.555975  0  2.13848  0
