# generated using pymatgen
data_ZnH6C4NClO4
_symmetry_space_group_name_H-M   'P 1'
_cell_length_a   8.50297462
_cell_length_b   8.55655636
_cell_length_c   9.84899786
_cell_angle_alpha   90.00006964
_cell_angle_beta   90.00005542
_cell_angle_gamma   89.99995323
_symmetry_Int_Tables_number   1
_chemical_formula_structural   ZnH6C4NClO4
_chemical_formula_sum   'Zn4 H24 C16 N4 Cl4 O16'
_cell_volume   716.57547579
_cell_formula_units_Z   4
loop_
 _symmetry_equiv_pos_site_id
 _symmetry_equiv_pos_as_xyz
  1  'x, y, z'
loop_
 _atom_site_type_symbol
 _atom_site_label
 _atom_site_symmetry_multiplicity
 _atom_site_fract_x
 _atom_site_fract_y
 _atom_site_fract_z
 _atom_site_occupancy
 _atom_site_hle17_bader_spin_density
 _atom_site_hle17_ddec_charge
 _atom_site_hle17_ddec_spin_density
 _atom_site_hle17_ddec_sum_bond_order
 _atom_site_hle17_magmom
 _atom_site_hse06_10hf_bader_spin_density
 _atom_site_hse06_10hf_ddec_charge
 _atom_site_hse06_10hf_ddec_spin_density
 _atom_site_hse06_10hf_ddec_sum_bond_order
 _atom_site_hse06_10hf_magmom
 _atom_site_hse06_bader_spin_density
 _atom_site_hse06_ddec_charge
 _atom_site_hse06_ddec_spin_density
 _atom_site_hse06_ddec_sum_bond_order
 _atom_site_hse06_magmom
 _atom_site_pbe_bader_spin_density
 _atom_site_pbe_cm5_charge
 _atom_site_pbe_ddec_charge
 _atom_site_pbe_ddec_spin_density
 _atom_site_pbe_ddec_sum_bond_order
 _atom_site_pbe_magmom
Zn  Zn0  1  0.82253261  0.15369767  0.94163735  1  0  1.078192  0  1.83716  0  0  0.904381  0  2.322382  0  0  0.954  0  2.260001  0  0  0.619731  0.870133  0  2.364332  0
Zn  Zn1  1  0.32253290  0.34630395  0.05836362  1  0  1.078208  0  1.837124  0  0  0.90439  0  2.322345  0  0  0.95401  0  2.259965  0  0  0.61973  0.870143  0  2.364292  0
Zn  Zn2  1  0.17746735  0.65369671  0.55836281  1  0  1.078187  0  1.837158  0  0  0.90438  0  2.32238  0  0  0.953998  0  2.259999  0  0  0.619726  0.870131  0  2.364328  0
Zn  Zn3  1  0.67746752  0.84630311  0.44163754  1  0  1.078214  0  1.837133  0  0  0.904395  0  2.322351  0  0  0.954016  0  2.259971  0  0  0.61973  0.870148  0  2.3643  0
H  H4  1  0.79188318  0.61736789  0.99391295  1  0  0.097627  0  0.899827  0  0  0.108788  0  0.954397  0  0  0.110862  0  0.953726  0  0  0.121338  0.108011  0  0.953768  0
H  H5  1  0.29188455  0.88263300  0.00608750  1  0  0.097645  0  0.899808  0  0  0.108815  0  0.954357  0  0  0.110882  0  0.953699  0  0  0.121352  0.108037  0  0.953731  0
H  H6  1  0.20811564  0.11736758  0.50608717  1  0  0.097643  0  0.899776  0  0  0.108814  0  0.954342  0  0  0.110881  0  0.953681  0  0  0.12136  0.108037  0  0.953715  0
H  H7  1  0.70811584  0.38263179  0.49391268  1  0  0.097646  0  0.899773  0  0  0.108821  0  0.954337  0  0  0.110887  0  0.953678  0  0  0.121366  0.108044  0  0.95371  0
H  H8  1  0.89299948  0.51359348  0.77644309  1  0  0.130033  0  0.938955  0  0  0.141052  0  1.001799  0  0  0.143998  0  1.000507  0  0  0.100921  0.138727  0  1.002937  0
H  H9  1  0.39299983  0.98640734  0.22355846  1  0  0.130022  0  0.938966  0  0  0.141041  0  1.001818  0  0  0.143988  0  1.000525  0  0  0.100911  0.138717  0  1.002956  0
H  H10  1  0.10700060  0.01359355  0.72355692  1  0  0.130047  0  0.938961  0  0  0.141059  0  1.001804  0  0  0.144005  0  1.000512  0  0  0.100924  0.138733  0  1.002942  0
H  H11  1  0.60700047  0.48640591  0.27644285  1  0  0.130045  0  0.93897  0  0  0.141051  0  1.00182  0  0  0.143997  0  1.000527  0  0  0.100922  0.138726  0  1.002956  0
H  H12  1  0.99019718  0.68476631  0.82676002  1  0  0.135102  0  0.958133  0  0  0.141473  0  1.028427  0  0  0.14429  0  1.027621  0  0  0.101878  0.139226  0  1.029301  0
H  H13  1  0.49019763  0.81523443  0.17324161  1  0  0.135134  0  0.958106  0  0  0.141495  0  1.028418  0  0  0.144313  0  1.027609  0  0  0.10188  0.139248  0  1.02929  0
H  H14  1  0.00980275  0.18476638  0.67324017  1  0  0.135115  0  0.958134  0  0  0.14148  0  1.028425  0  0  0.144297  0  1.027618  0  0  0.101879  0.139233  0  1.029298  0
H  H15  1  0.50980282  0.31523431  0.32675951  1  0  0.135112  0  0.958143  0  0  0.141479  0  1.02843  0  0  0.1443  0  1.02762  0  0  0.101878  0.139232  0  1.029304  0
H  H16  1  0.51461312  0.60696425  0.93879859  1  0  0.346166  0  0.86471  0  0  0.322514  0  0.932172  0  0  0.331111  0  0.925253  0  0  0.310035  0.316317  0  0.937246  0
H  H17  1  0.01461338  0.89303453  0.06120163  1  0  0.346173  0  0.864693  0  0  0.322531  0  0.93215  0  0  0.331126  0  0.925232  0  0  0.310042  0.316334  0  0.937224  0
H  H18  1  0.48538688  0.10696495  0.56120152  1  0  0.346169  0  0.864704  0  0  0.32252  0  0.932164  0  0  0.331115  0  0.925246  0  0  0.310039  0.316323  0  0.937239  0
H  H19  1  0.98538583  0.39303536  0.43879857  1  0  0.346175  0  0.864698  0  0  0.322529  0  0.932157  0  0  0.331124  0  0.925238  0  0  0.310042  0.316332  0  0.93723  0
H  H20  1  0.61449346  0.47982771  0.83704608  1  0  0.327205  0  0.871112  0  0  0.309317  0  0.932763  0  0  0.316601  0  0.927549  0  0  0.293754  0.304054  0  0.93662  0
H  H21  1  0.11449413  0.02017173  0.16295369  1  0  0.327223  0  0.871082  0  0  0.309336  0  0.932734  0  0  0.316621  0  0.927517  0  0  0.293761  0.304073  0  0.936591  0
H  H22  1  0.38550623  0.97982790  0.66295239  1  0  0.327215  0  0.871075  0  0  0.309318  0  0.932752  0  0  0.316604  0  0.927534  0  0  0.293747  0.304055  0  0.936609  0
H  H23  1  0.88550538  0.52017292  0.33704712  1  0  0.327215  0  0.871088  0  0  0.309326  0  0.932748  0  0  0.316611  0  0.92753  0  0  0.293747  0.304062  0  0.936605  0
H  H24  1  0.55211989  0.65380306  0.77711010  1  0  0.342572  0  0.846085  0  0  0.319371  0  0.914224  0  0  0.327207  0  0.907675  0  0  0.309314  0.313764  0  0.919049  0
H  H25  1  0.05212036  0.84619686  0.22289015  1  0  0.342567  0  0.846086  0  0  0.31937  0  0.914221  0  0  0.327206  0  0.907672  0  0  0.309318  0.313764  0  0.919046  0
H  H26  1  0.44788007  0.15380285  0.72289006  1  0  0.342568  0  0.846097  0  0  0.319369  0  0.914235  0  0  0.327205  0  0.907686  0  0  0.309314  0.313763  0  0.91906  0
H  H27  1  0.94787889  0.34619749  0.27710999  1  0  0.342578  0  0.846087  0  0  0.319378  0  0.914227  0  0  0.327213  0  0.907681  0  0  0.309316  0.313771  0  0.919053  0
C  C28  1  0.72508877  0.84513941  0.92589292  1  0  0.633043  0  3.882466  0  0  0.579617  0  4.193476  0  0  0.61196  0  4.187999  0  0  0.20404  0.557295  0  4.197087  0
C  C29  1  0.22509159  0.65486037  0.07410849  1  0  0.63303  0  3.882356  0  0  0.579632  0  4.193305  0  0  0.611979  0  4.187826  0  0  0.204113  0.557312  0  4.196914  0
C  C30  1  0.27490985  0.34513797  0.57410744  1  0  0.632962  0  3.882509  0  0  0.579608  0  4.193414  0  0  0.611952  0  4.187936  0  0  0.204048  0.557287  0  4.197025  0
C  C31  1  0.77490899  0.15486135  0.42589247  1  0  0.632978  0  3.882503  0  0  0.579635  0  4.193388  0  0  0.611979  0  4.18791  0  0  0.20405  0.557314  0  4.197  0
C  C32  1  0.75172892  0.67054929  0.89842812  1  0  0.09077  0  3.520499  0  0  0.067327  0  3.76309  0  0  0.067433  0  3.774188  0  0  0.01207  0.067011  0  3.754844  0
C  C33  1  0.25173044  0.82945047  0.10157332  1  0  0.090706  0  3.520563  0  0  0.067273  0  3.76314  0  0  0.067378  0  3.774248  0  0  0.012076  0.066957  0  3.754896  0
C  C34  1  0.24827103  0.17055024  0.60157206  1  0  0.09079  0  3.520494  0  0  0.0673  0  3.763099  0  0  0.06741  0  3.774195  0  0  0.012064  0.066985  0  3.754856  0
C  C35  1  0.74826999  0.32944910  0.39842783  1  0  0.090804  0  3.520456  0  0  0.067308  0  3.763064  0  0  0.067419  0  3.774161  0  0  0.012056  0.066993  0  3.754821  0
C  C36  1  0.87671101  0.64026945  0.79048621  1  0  -0.334918  0  3.671836  0  0  -0.373847  0  3.912372  0  0  -0.381109  0  3.919926  0  0  -0.168585  -0.368709  0  3.907688  0
C  C37  1  0.37671264  0.85973137  0.20951533  1  0  -0.334917  0  3.671859  0  0  -0.37388  0  3.912458  0  0  -0.38114  0  3.920005  0  0  -0.16858  -0.368741  0  3.907773  0
C  C38  1  0.12328896  0.14026949  0.70951394  1  0  -0.334964  0  3.671923  0  0  -0.373889  0  3.912444  0  0  -0.381151  0  3.919995  0  0  -0.168593  -0.368749  0  3.90776  0
C  C39  1  0.62328777  0.35972995  0.29048584  1  0  -0.334972  0  3.671913  0  0  -0.373906  0  3.912477  0  0  -0.381171  0  3.920023  0  0  -0.168602  -0.368767  0  3.907793  0
C  C40  1  0.84257227  0.70960801  0.65273821  1  0  0.725878  0  3.796979  0  0  0.676304  0  4.089064  0  0  0.711043  0  4.082186  0  0  0.219892  0.652391  0  4.09361  0
C  C41  1  0.34257292  0.79039167  0.34726127  1  0  0.725888  0  3.796987  0  0  0.676323  0  4.089079  0  0  0.711062  0  4.0822  0  0  0.219882  0.652409  0  4.093626  0
C  C42  1  0.15742765  0.20960822  0.84726100  1  0  0.725858  0  3.797002  0  0  0.676326  0  4.089025  0  0  0.711063  0  4.082149  0  0  0.219914  0.652412  0  4.093571  0
C  C43  1  0.65742872  0.29039236  0.15273881  1  0  0.725877  0  3.797  0  0  0.676329  0  4.089039  0  0  0.711068  0  4.082163  0  0  0.219895  0.652417  0  4.093584  0
N  N44  1  0.59809916  0.59733646  0.86122829  1  0  -0.502676  0  3.193032  0  0  -0.456876  0  3.39407  0  0  -0.471509  0  3.391574  0  0  -0.601878  -0.447028  0  3.396666  0
N  N45  1  0.09810067  0.90266226  0.13877200  1  0  -0.50266  0  3.193042  0  0  -0.456852  0  3.394026  0  0  -0.471482  0  3.391527  0  0  -0.601888  -0.447004  0  3.396621  0
N  N46  1  0.40189967  0.09733617  0.63877079  1  0  -0.502675  0  3.193037  0  0  -0.456846  0  3.394012  0  0  -0.471478  0  3.391516  0  0  -0.601869  -0.446997  0  3.396608  0
N  N47  1  0.90189971  0.40266304  0.36122922  1  0  -0.502685  0  3.193027  0  0  -0.456858  0  3.394006  0  0  -0.471489  0  3.391509  0  0  -0.601851  -0.447009  0  3.396601  0
Cl  Cl48  1  0.71918275  0.26157392  0.75559914  1  0  -0.555486  0  1.020805  0  0  -0.494839  0  1.308587  0  0  -0.511148  0  1.280297  0  0  -0.247665  -0.482356  0  1.326535  0
Cl  Cl49  1  0.21918333  0.23842544  0.24440173  1  0  -0.555512  0  1.020791  0  0  -0.494851  0  1.308551  0  0  -0.511161  0  1.280264  0  0  -0.247676  -0.482368  0  1.326498  0
Cl  Cl50  1  0.28081595  0.76157431  0.74440113  1  0  -0.555493  0  1.02081  0  0  -0.494836  0  1.308585  0  0  -0.511146  0  1.280295  0  0  -0.247665  -0.482353  0  1.326532  0
Cl  Cl51  1  0.78081718  0.73842543  0.25559830  1  0  -0.555504  0  1.020791  0  0  -0.494841  0  1.308551  0  0  -0.511151  0  1.280263  0  0  -0.247671  -0.482359  0  1.326499  0
O  O52  1  0.59073812  0.90025043  0.93256159  1  0  -0.575062  0  1.915035  0  0  -0.534766  0  2.141134  0  0  -0.556308  0  2.133441  0  0  -0.313652  -0.519716  0  2.146282  0
O  O53  1  0.09074215  0.59974830  0.06743767  1  0  -0.575087  0  1.9149  0  0  -0.5348  0  2.140982  0  0  -0.556338  0  2.133284  0  0  -0.313721  -0.51975  0  2.146131  0
O  O54  1  0.40926163  0.40025003  0.56743781  1  0  -0.575052  0  1.914979  0  0  -0.53478  0  2.141039  0  0  -0.556321  0  2.133348  0  0  -0.313667  -0.519728  0  2.146188  0
O  O55  1  0.90926082  0.09974917  0.43256221  1  0  -0.575041  0  1.914951  0  0  -0.534779  0  2.141013  0  0  -0.55632  0  2.133317  0  0  -0.313666  -0.519728  0  2.146162  0
O  O56  1  0.85540550  0.92413727  0.94005690  1  0  -0.670051  0  2.087299  0  0  -0.590877  0  2.357022  0  0  -0.621412  0  2.343296  0  0  -0.332298  -0.569374  0  2.366145  0
O  O57  1  0.35540836  0.57586241  0.05994361  1  0  -0.670004  0  2.087318  0  0  -0.590831  0  2.35701  0  0  -0.621375  0  2.343293  0  0  -0.33231  -0.569328  0  2.366133  0
O  O58  1  0.14459424  0.42413708  0.55994253  1  0  -0.669997  0  2.087341  0  0  -0.590848  0  2.357041  0  0  -0.621384  0  2.343314  0  0  -0.332298  -0.569344  0  2.366162  0
O  O59  1  0.64459463  0.07586234  0.44005727  1  0  -0.670058  0  2.087387  0  0  -0.590896  0  2.357053  0  0  -0.621434  0  2.34333  0  0  -0.332303  -0.569391  0  2.366177  0
O  O60  1  0.94541740  0.70633089  0.55969325  1  0  -0.649425  0  2.10127  0  0  -0.582026  0  2.382155  0  0  -0.610969  0  2.366245  0  0  -0.320661  -0.562827  0  2.392182  0
O  O61  1  0.44541816  0.79366755  0.44030733  1  0  -0.649454  0  2.101263  0  0  -0.582055  0  2.382148  0  0  -0.610999  0  2.366239  0  0  -0.320669  -0.562857  0  2.392177  0
O  O62  1  0.05458251  0.20633130  0.94030697  1  0  -0.649432  0  2.101231  0  0  -0.582049  0  2.382089  0  0  -0.610993  0  2.366183  0  0  -0.320693  -0.56285  0  2.392117  0
O  O63  1  0.55458230  0.29366819  0.05969276  1  0  -0.649438  0  2.101206  0  0  -0.582041  0  2.382075  0  0  -0.610986  0  2.366167  0  0  -0.320663  -0.562844  0  2.392101  0
O  O64  1  0.70552725  0.76734624  0.63113090  1  0  -0.618968  0  2.018129  0  0  -0.536924  0  2.269607  0  0  -0.566061  0  2.254879  0  0  -0.308236  -0.516933  0  2.279678  0
O  O65  1  0.20552798  0.73265473  0.36886948  1  0  -0.618954  0  2.018119  0  0  -0.53693  0  2.269621  0  0  -0.566065  0  2.254891  0  0  -0.308227  -0.516942  0  2.2797  0
O  O66  1  0.29447262  0.26734636  0.86886938  1  0  -0.618943  0  2.01813  0  0  -0.536924  0  2.269598  0  0  -0.566054  0  2.254862  0  0  -0.308232  -0.516936  0  2.279675  0
O  O67  1  0.79447254  0.23265411  0.13113055  1  0  -0.618954  0  2.01816  0  0  -0.536928  0  2.269633  0  0  -0.566061  0  2.254903  0  0  -0.308239  -0.516937  0  2.279705  0
