# generated using pymatgen
data_Zn2H29C41N9O2
_symmetry_space_group_name_H-M   'P 1'
_cell_length_a   20.63360979
_cell_length_b   19.65772791
_cell_length_c   21.07663091
_cell_angle_alpha   107.01743165
_cell_angle_beta   106.49463270
_cell_angle_gamma   112.43304236
_symmetry_Int_Tables_number   1
_chemical_formula_structural   Zn2H29C41N9O2
_chemical_formula_sum   'Zn4 H58 C82 N18 O4'
_cell_volume   6756.84391184
_cell_formula_units_Z   2
loop_
 _symmetry_equiv_pos_site_id
 _symmetry_equiv_pos_as_xyz
  1  'x, y, z'
loop_
 _atom_site_type_symbol
 _atom_site_label
 _atom_site_symmetry_multiplicity
 _atom_site_fract_x
 _atom_site_fract_y
 _atom_site_fract_z
 _atom_site_occupancy
 _atom_site_pbe_bader_charge
 _atom_site_pbe_bader_spin_density
 _atom_site_pbe_cm5_charge
 _atom_site_pbe_ddec_charge
 _atom_site_pbe_ddec_spin_density
 _atom_site_pbe_ddec_sum_bond_order
 _atom_site_pbe_magmom
Zn  Zn0  1  0.61345572  0.58613875  0.50714813  1  1.172465  0  0.747707  0.671756  0  2.240594  0
Zn  Zn1  1  0.36939807  0.36752659  0.49206192  1  1.20905  0  0.756393  0.676097  0  2.270924  0
Zn  Zn2  1  0.49716091  0.57879503  0.59228033  1  1.174398  0  0.737056  0.617359  0  2.451116  0
Zn  Zn3  1  0.45687225  0.37664948  0.38021885  1  1.158463  0  0.789253  0.689609  0  2.313277  0
H  H4  1  0.77798287  0.73253250  0.65944194  1  0.083422  0  0.112868  0.102539  0  1.004279  0
H  H5  1  0.43716351  0.26028221  0.55285869  1  0.116365  0  0.124678  0.112494  0  0.991208  0
H  H6  1  0.62523229  0.55550330  0.69155108  1  0.131764  0  0.11939  0.114416  0  1.017469  0
H  H7  1  0.71155703  0.40792931  0.41086430  1  0.076393  0  0.11387  0.104779  0  0.986751  0
H  H8  1  0.41832714  0.34924285  0.66080555  1  0.102461  0  0.121991  0.110554  0  0.985575  0
H  H9  1  0.73054802  0.55739836  0.62033987  1  0.127251  0  0.115514  0.11359  0  1.011619  0
H  H10  1  0.58991411  0.32988136  0.45019125  1  0.126529  0  0.123336  0.117737  0  1.023676  0
H  H11  1  0.60848635  0.77185373  0.72320173  1  0.069068  0  0.114807  0.098996  0  1.008236  0
H  H12  1  0.61214830  0.63072856  0.37330062  1  0.056714  0  0.116787  0.102577  0  0.997965  0
H  H13  1  0.21597533  0.36980240  0.46630475  1  0.09443  0  0.114672  0.102093  0  1.012054  0
H  H14  1  0.43254068  0.68319616  0.53922949  1  0.093974  0  0.118913  0.112601  0  1.013278  0
H  H15  1  0.32785494  0.35951575  0.25270105  1  0.09407  0  0.119342  0.107454  0  1.009922  0
H  H16  1  0.17566478  0.25182143  0.34374230  1  0.083894  0  0.120882  0.107369  0  0.991011  0
H  H17  1  0.65481450  0.77615000  0.52926833  1  0.076122  0  0.124761  0.113501  0  0.979818  0
H  H18  1  0.47397749  0.36740877  0.22906722  1  0.072593  0  0.121395  0.111146  0  0.99093  0
H  H19  1  0.02906542  0.55075563  0.71523437  1  0.056864  0  0.097988  0.085547  0  0.994577  0
H  H20  1  0.06175918  0.42057368  0.68342405  1  0.042108  0  0.097284  0.083843  0  0.99717  0
H  H21  1  0.09687982  0.60352715  0.62606213  1  0.058517  0  0.096636  0.082732  0  0.996834  0
H  H22  1  0.94652850  0.49980053  0.50068978  1  0.068509  0  0.098845  0.086896  0  0.989527  0
H  H23  1  0.97990861  0.36943523  0.46912614  1  0.060842  0  0.095656  0.080959  0  0.996844  0
H  H24  1  0.91222552  0.31709068  0.55845051  1  0.064939  0  0.094474  0.080387  0  1.001697  0
H  H25  1  0.71099276  0.14226507  0.57475826  1  0.074139  0  0.107196  0.099457  0  0.981618  0
H  H26  1  0.70629027  0.10232409  0.69294853  1  0.098163  0  0.111739  0.116131  0  0.977356  0
H  H27  1  0.58801835  0.97772291  0.47081031  1  0.060877  0  0.103377  0.09228  0  0.985415  0
H  H28  1  0.47635929  0.02870108  0.47554027  1  0.072853  0  0.106909  0.099037  0  0.977249  0
H  H29  1  0.47229708  0.98990717  0.59498095  1  0.08282  0  0.111345  0.112703  0  0.97417  0
H  H30  1  0.46970271  0.40264770  0.12769060  1  0.108371  0  0.110706  0.120902  0  0.995477  0
H  H31  1  0.66155892  0.58708172  0.83035131  1  0.056019  0  0.100321  0.101947  0  0.999013  0
H  H32  1  0.52251173  0.32228242  0.73742495  1  0.062161  0  0.099605  0.102634  0  1.007502  0
H  H33  1  0.60459161  0.40959363  0.98868784  1  0.047962  0  0.102711  0.09961  0  0.998828  0
H  H34  1  0.71987690  0.64435952  0.19233524  1  0.057158  0  0.105447  0.107253  0  0.986884  0
H  H35  1  0.70334447  0.59791467  0.95619395  1  0.04499  0  0.100021  0.097991  0  1.001608  0
H  H36  1  0.68064181  0.63324172  0.29063996  1  0.063017  0  0.10376  0.105029  0  0.994262  0
H  H37  1  0.67246217  0.59740090  0.05008250  1  0.077472  0  0.101896  0.105559  0  0.999459  0
H  H38  1  0.56278615  0.33324281  0.86351854  1  0.085686  0  0.105378  0.106808  0  0.990075  0
H  H39  1  0.86517039  0.87948320  0.72313144  1  0.036593  0  0.097078  0.097363  0  1.005004  0
H  H40  1  0.22489014  0.28098168  0.13933409  1  0.048759  0  0.096538  0.09378  0  1.01101  0
H  H41  1  0.06611531  0.24210336  0.23861665  1  0.033386  0  0.098008  0.097464  0  1.002951  0
H  H42  1  0.90949112  0.09129873  0.98440252  1  0.047108  0  0.094538  0.097702  0  1.023692  0
H  H43  1  0.79296013  0.05260677  0.87840483  1  0.046843  0  0.099724  0.09928  0  1.001814  0
H  H44  1  0.11558462  0.21882025  0.01816510  1  0.057854  0  0.101327  0.101514  0  1.017878  0
H  H45  1  0.69525784  0.90662909  0.79264243  1  0.07279  0  0.097742  0.097279  0  1.009304  0
H  H46  1  0.96158815  0.02577186  0.80722957  1  0.027159  0  0.098698  0.097259  0  1.005017  0
H  H47  1  0.95538563  0.17752761  0.11551395  1  0.062389  0  0.099287  0.099296  0  0.994207  0
H  H48  1  0.37960889  0.78310275  0.74603256  1  0.010789  0  0.085967  0.111232  0  1.001328  0
H  H49  1  0.44521921  0.81475869  0.70749775  1  -0.009255  0  0.082689  0.106761  0  1.008097  0
H  H50  1  0.35536862  0.81395385  0.67567721  1  0.016462  0  0.088305  0.115514  0  1.000275  0
H  H51  1  0.34641660  0.69093440  0.58379860  1  0.01212  0  0.086372  0.072068  0  0.989467  0
H  H52  1  0.27959990  0.65947862  0.62009382  1  0.004339  0  0.090587  0.082953  0  0.986844  0
H  H53  1  0.36951249  0.63902558  0.70881819  1  0.066637  0  0.102686  0.108988  0  0.958931  0
H  H54  1  0.44212587  0.67627114  0.67924806  1  0.036559  0  0.091878  0.085562  0  0.993041  0
H  H55  1  0.05787233  0.32797426  0.86945323  1  0.007095  0  0.084339  0.109629  0  1.002735  0
H  H56  1  0.05392467  0.24595362  0.80131038  1  0.019767  0  0.082708  0.106159  0  1.007496  0
H  H57  1  0.98527750  0.27842792  0.77616299  1  0.044432  0  0.084419  0.108602  0  1.005199  0
H  H58  1  0.92132433  0.14719783  0.78581109  1  0.023642  0  0.084  0.070664  0  0.997741  0
H  H59  1  0.92551774  0.22845687  0.85380887  1  0.009955  0  0.089169  0.079556  0  0.970162  0
H  H60  1  0.04676852  0.24896318  0.94830301  1  0.042724  0  0.094236  0.094413  0  0.992596  0
H  H61  1  0.04250103  0.16737418  0.88021509  1  0.02704  0  0.092008  0.085431  0  0.983597  0
C  C62  1  0.72729536  0.72841682  0.66795443  1  0.371645  0  -0.005843  -0.071213  0  4.015286  0
C  C63  1  0.46546915  0.28154871  0.52081343  1  0.478258  0  0.027418  -0.016103  0  3.933146  0
C  C64  1  0.56748648  0.50426095  0.67318196  1  0.406042  0  0.011231  -0.030634  0  3.938989  0
C  C65  1  0.70560012  0.44681780  0.45492012  1  0.443094  0  0.003965  -0.056165  0  4.024046  0
C  C66  1  0.46149065  0.39875047  0.65664164  1  0.390894  0  0.012266  -0.043019  0  3.995107  0
C  C67  1  0.71693798  0.52305988  0.56306230  1  0.359843  0  -0.001685  -0.067985  0  3.961202  0
C  C68  1  0.54458646  0.31673460  0.46877346  1  0.446154  0  0.025644  -0.020325  0  3.901624  0
C  C69  1  0.64130409  0.74867091  0.70083749  1  0.455291  0  0.007453  -0.046021  0  3.987822  0
C  C70  1  0.71818396  0.79154638  0.70993871  1  0.006328  0  -0.039648  -0.04262  0  4.092214  0
C  C71  1  0.53178546  0.28019291  0.51548559  1  0.083932  0  -0.021304  0.040564  0  4.166584  0
C  C72  1  0.54257889  0.45070466  0.70387955  1  0.030993  0  -0.030761  -0.033907  0  4.06286  0
C  C73  1  0.74620481  0.47508598  0.53280373  1  0.124639  0  -0.037539  0.03419  0  4.203163  0
C  C74  1  0.57591155  0.56394858  0.34763091  1  0.441652  0  0.009793  -0.040713  0  3.975106  0
C  C75  1  0.26478858  0.43057706  0.50804873  1  0.396917  0  0.007087  -0.04984  0  3.988319  0
C  C76  1  0.48524212  0.69229349  0.53296245  1  0.431763  0  0.009828  -0.050098  0  3.945774  0
C  C77  1  0.30076950  0.33591666  0.28465214  1  0.42886  0  0.00914  -0.044296  0  3.976476  0
C  C78  1  0.22379831  0.28202187  0.33183810  1  0.404294  0  0.015257  -0.031877  0  3.954118  0
C  C79  1  0.59905203  0.73962688  0.52790598  1  0.491084  0  0.025189  -0.030296  0  3.936107  0
C  C80  1  0.50414506  0.42988246  0.27319603  1  0.423612  0  0.00886  -0.054869  0  3.991087  0
C  C81  1  0.34343606  0.55818114  0.60059864  1  0.481449  0  0.103543  0.168449  0  3.943353  0
C  C82  1  0.55159507  0.50507408  0.27573209  1  0.005863  0  -0.034687  -0.038783  0  4.086054  0
C  C83  1  0.26483523  0.49186802  0.56314674  1  0.099594  0  -0.032279  -0.014176  0  4.175934  0
C  C84  1  0.54659963  0.76434442  0.54189343  1  0.063144  0  -0.030598  0.037673  0  4.202267  0
C  C85  1  0.22148106  0.29477049  0.26882535  1  -0.004059  0  -0.029875  -0.028202  0  4.058067  0
C  C86  1  0.03571356  0.43817533  0.64273338  1  -0.005588  0  -0.075415  -0.082075  0  3.636509  0
C  C87  1  0.01861200  0.51079793  0.66042053  1  -0.027239  0  -0.074543  -0.081849  0  3.641162  0
C  C88  1  0.80770087  0.46283805  0.56593491  1  -0.232528  0  -0.066533  -0.105785  0  4.209877  0
C  C89  1  0.20089672  0.48606653  0.57768846  1  -0.358413  0  -0.067775  -0.110929  0  4.230392  0
C  C90  1  0.95350215  0.38081834  0.57329298  1  -0.047634  0  -0.076478  -0.085865  0  3.645616  0
C  C91  1  0.93506094  0.45374023  0.59066284  1  0.101214  0  0.004335  0.140669  0  3.795421  0
C  C92  1  0.98974048  0.40962375  0.52356586  1  -0.034081  0  -0.075054  -0.078379  0  3.647275  0
C  C93  1  0.07364527  0.46753217  0.59284462  1  0.122951  0  0.001855  0.131517  0  3.806311  0
C  C94  1  0.97359341  0.48257376  0.54113052  1  -0.02703  0  -0.073695  -0.074346  0  3.636948  0
C  C95  1  0.05489297  0.53996919  0.61088132  1  -0.041605  0  -0.074542  -0.079025  0  3.643839  0
C  C96  1  0.86380603  0.45241897  0.58272422  1  -0.154232  0  -0.075911  -0.163901  0  4.135166  0
C  C97  1  0.14356725  0.47648974  0.58852804  1  -0.047473  0  -0.064062  -0.143761  0  4.140917  0
C  C98  1  0.65549100  0.08526916  0.64387475  1  -0.01085  0  -0.06594  -0.113617  0  3.603663  0
C  C99  1  0.65758639  0.10685167  0.57822512  1  -0.012611  0  -0.067613  -0.074012  0  3.627709  0
C  C100  1  0.56842905  0.24220630  0.54594532  1  -0.349987  0  -0.039654  -0.065007  0  4.147601  0
C  C101  1  0.55843261  0.84447654  0.56240256  1  -0.264476  0  -0.05778  -0.098772  0  4.205172  0
C  C102  1  0.59355325  0.11104830  0.64586496  1  0.2905  0  0.093421  0.048937  0  3.626525  0
C  C103  1  0.59522607  0.13470030  0.57939008  1  0.115277  0  0.018838  0.122451  0  3.780245  0
C  C104  1  0.52452000  0.02247394  0.58868077  1  -0.010141  0  -0.064573  -0.110623  0  3.622467  0
C  C105  1  0.58606913  0.99366057  0.58578514  1  0.112682  0  0.009284  0.147529  0  3.794744  0
C  C106  1  0.52706232  0.04299436  0.52308259  1  -0.00134  0  -0.067683  -0.069654  0  3.634415  0
C  C107  1  0.58937004  0.01726111  0.52054835  1  -0.013887  0  -0.070227  -0.074889  0  3.624722  0
C  C108  1  0.59000345  0.20094990  0.56967110  1  0.01498  0  -0.061224  -0.143174  0  4.109996  0
C  C109  1  0.57510797  0.91623459  0.58074606  1  -0.094817  0  -0.066967  -0.147302  0  4.130637  0
C  C110  1  0.57311219  0.51605348  0.21778693  1  0.072592  0  -0.004114  0.102388  0  4.047145  0
C  C111  1  0.52570260  0.45557712  0.14371455  1  -0.079775  0  -0.086335  -0.183297  0  3.960316  0
C  C112  1  0.54791161  0.46375403  0.08884536  1  0.183447  0  0.076022  0.031689  0  3.908752  0
C  C113  1  0.61919169  0.52999634  0.10374070  1  0.020108  0  -0.004949  0.071175  0  4.028317  0
C  C114  1  0.66447858  0.59152468  0.17809425  1  -0.016683  0  -0.086346  -0.120787  0  3.986941  0
C  C115  1  0.64241347  0.58516434  0.23352324  1  -0.02398  0  -0.088466  -0.126985  0  3.98176  0
C  C116  1  0.66332524  0.53724208  0.90845522  1  -0.015036  0  -0.090831  -0.123518  0  3.986664  0
C  C117  1  0.64024874  0.53113629  0.83751373  1  -0.091771  0  -0.092919  -0.133494  0  3.999183  0
C  C118  1  0.56126758  0.38302071  0.78526059  1  -0.016433  0  -0.091297  -0.13241  0  3.991297  0
C  C119  1  0.58475193  0.38911916  0.85632822  1  -0.090235  0  -0.082671  -0.112309  0  3.96211  0
C  C120  1  0.63103485  0.46670380  0.91940499  1  0.013389  0  -0.015432  0.103181  0  4.043352  0
C  C121  1  0.64453246  0.53584208  0.04670900  1  -0.060087  0  -0.103822  -0.156102  0  4.022826  0
C  C122  1  0.62983300  0.46976334  0.98875668  1  -0.012535  0  -0.086759  -0.113382  0  4.00322  0
C  C123  1  0.58403663  0.45444352  0.77486479  1  0.025219  0  -0.006949  0.088205  0  4.034652  0
C  C124  1  0.77348776  0.88006942  0.75371085  1  0.006217  0  -0.013853  0.082445  0  4.059326  0
C  C125  1  0.84834435  0.91693251  0.75664033  1  -0.048554  0  -0.099887  -0.139377  0  4.010724  0
C  C126  1  0.90291496  0.00001193  0.80398201  1  -0.026686  0  -0.096218  -0.1314  0  4.008717  0
C  C127  1  0.88576154  0.04940225  0.85194038  1  -0.009209  0  -0.012415  0.060201  0  4.014773  0
C  C128  1  0.80894040  0.01448092  0.84447597  1  -0.053433  0  -0.096628  -0.13646  0  4.026866  0
C  C129  1  0.75399401  0.93189056  0.79614840  1  -0.065334  0  -0.097195  -0.133293  0  4.004986  0
C  C130  1  0.10393503  0.22619352  0.06625382  1  -0.062913  0  -0.092728  -0.129822  0  3.985882  0
C  C131  1  0.16618851  0.26106121  0.13542297  1  -0.009979  0  -0.097388  -0.13354  0  4.008835  0
C  C132  1  0.07759580  0.23776175  0.19052291  1  -0.069823  0  -0.097684  -0.137732  0  4.01444  0
C  C133  1  0.01500964  0.20195511  0.12098737  1  -0.048808  0  -0.093744  -0.132626  0  3.983537  0
C  C134  1  0.02595679  0.19343050  0.05651753  1  0.006816  0  -0.014969  0.12085  0  4.040046  0
C  C135  1  0.95093708  0.12970807  0.91478213  1  0.007757  0  -0.00619  0.079616  0  3.934227  0
C  C136  1  0.95844136  0.13903062  0.98348544  1  -0.107619  0  -0.102794  -0.220668  0  3.976748  0
C  C137  1  0.15478669  0.26609988  0.19909078  1  0.017084  0  -0.014221  0.0764  0  4.051364  0
C  C138  1  0.37818851  0.64284515  0.66043923  1  -0.023863  0  -0.15268  -0.207008  0  3.980674  0
C  C139  1  0.34260353  0.69184556  0.63512621  1  0.032124  0  -0.162618  -0.087168  0  3.960984  0
C  C140  1  0.38284600  0.78075108  0.69428403  1  -0.017722  0  -0.243701  -0.354765  0  3.98909  0
C  C141  1  0.00594981  0.19005800  0.89782396  1  -0.029065  0  -0.159448  -0.1957  0  3.96663  0
C  C142  1  0.96214424  0.20599341  0.83659529  1  0.002499  0  -0.165602  -0.088843  0  3.961703  0
C  C143  1  0.01774283  0.26792953  0.81995081  1  -0.081459  0  -0.243948  -0.351554  0  3.990538  0
N  N144  1  0.66110019  0.65407455  0.63570596  1  -0.777844  0  -0.272355  -0.244551  0  3.418813  0
N  N145  1  0.44022952  0.31527525  0.48019747  1  -0.811482  0  -0.270749  -0.202313  0  3.551258  0
N  N146  1  0.50581210  0.48597148  0.61273655  1  -0.833307  0  -0.290863  -0.224736  0  3.561266  0
N  N147  1  0.65694785  0.47517775  0.43942829  1  -0.721955  0  -0.270695  -0.239403  0  3.323218  0
N  N148  1  0.43988283  0.42075792  0.60323943  1  -0.811577  0  -0.287199  -0.203703  0  3.57473  0
N  N149  1  0.66431078  0.52252292  0.50639767  1  -0.829385  0  -0.300005  -0.210059  0  3.747478  0
N  N150  1  0.48902051  0.33681611  0.44800103  1  -0.805478  0  -0.296707  -0.196837  0  3.689088  0
N  N151  1  0.60842568  0.66770819  0.65710542  1  -0.828922  0  -0.290536  -0.185208  0  3.645398  0
N  N152  1  0.54606945  0.52693674  0.38521287  1  -0.760046  0  -0.26208  -0.200411  0  3.496502  0
N  N153  1  0.33733603  0.45689316  0.51257185  1  -0.790577  0  -0.28284  -0.213568  0  3.565916  0
N  N154  1  0.50040232  0.62982455  0.51594189  1  -0.764703  0  -0.280455  -0.225333  0  3.469905  0
N  N155  1  0.34592901  0.34498634  0.35051466  1  -0.832391  0  -0.295078  -0.211844  0  3.640409  0
N  N156  1  0.29823480  0.31123048  0.37998739  1  -0.780916  0  -0.273985  -0.196028  0  3.548806  0
N  N157  1  0.57056204  0.66021949  0.51273139  1  -0.796907  0  -0.281706  -0.163209  0  3.667515  0
N  N158  1  0.50223754  0.44449991  0.33895053  1  -0.804174  0  -0.295051  -0.179066  0  3.750727  0
N  N159  1  0.38528451  0.53513333  0.56977009  1  -0.799181  0  -0.277773  -0.217636  0  3.574854  0
N  N160  1  0.59492670  0.16511570  0.71151253  1  0.37565  0  0.053186  0.515953  0  4.227976  0
N  N161  1  0.48791596  0.40161569  0.01215204  1  0.396406  0  0.053083  0.518649  0  4.221781  0
O  O162  1  0.65720710  0.20742068  0.76969130  1  -0.449901  0  -0.146892  -0.343455  0  1.840977  0
O  O163  1  0.53347563  0.16686411  0.70291247  1  -0.471988  0  -0.150369  -0.354656  0  1.856567  0
O  O164  1  0.46198633  0.32784969  0.99818270  1  -0.476697  0  -0.157939  -0.359258  0  1.851638  0
O  O165  1  0.46477647  0.42680282  0.96816659  1  -0.443914  0  -0.135946  -0.327947  0  1.870987  0
