# generated using pymatgen
data_CdH14C20N4O5
_symmetry_space_group_name_H-M   'P 1'
_cell_length_a   9.57125687
_cell_length_b   10.19735284
_cell_length_c   10.49352986
_cell_angle_alpha   87.38337356
_cell_angle_beta   64.11633425
_cell_angle_gamma   86.35406820
_symmetry_Int_Tables_number   1
_chemical_formula_structural   CdH14C20N4O5
_chemical_formula_sum   'Cd2 H28 C40 N8 O10'
_cell_volume   919.39271401
_cell_formula_units_Z   2
loop_
 _symmetry_equiv_pos_site_id
 _symmetry_equiv_pos_as_xyz
  1  'x, y, z'
loop_
 _atom_site_type_symbol
 _atom_site_label
 _atom_site_symmetry_multiplicity
 _atom_site_fract_x
 _atom_site_fract_y
 _atom_site_fract_z
 _atom_site_occupancy
 _atom_site_pbe_bader_spin_density
 _atom_site_pbe_cm5_charge
 _atom_site_pbe_ddec_charge
 _atom_site_pbe_ddec_spin_density
 _atom_site_pbe_ddec_sum_bond_order
 _atom_site_pbe_magmom
Cd  Cd0  1  0.93956806  0.12570600  0.67037098  1  0  0.773651  0.885706  0  2.223191  0
Cd  Cd1  1  0.06043250  0.87429311  0.32962797  1  0  0.773648  0.885712  0  2.223144  0
H  H2  1  0.15799022  0.55601634  0.59617170  1  0  0.095263  0.092573  0  1.054562  0
H  H3  1  0.84200914  0.44398376  0.40382770  1  0  0.095262  0.092577  0  1.054571  0
H  H4  1  0.18705808  0.41545083  0.78773463  1  0  0.10093  0.108526  0  1.032328  0
H  H5  1  0.81294006  0.58455026  0.21226521  1  0  0.100926  0.108526  0  1.032305  0
H  H6  1  0.16950457  0.51983797  0.00168010  1  0  0.102835  0.106337  0  1.011915  0
H  H7  1  0.83049817  0.48016408  0.99831595  1  0  0.1028  0.106301  0  1.011946  0
H  H8  1  0.08345876  0.89975499  0.84591959  1  0  0.10722  0.122417  0  1.032543  0
H  H9  1  0.91653938  0.10024610  0.15408119  1  0  0.10723  0.122446  0  1.032491  0
H  H10  1  0.79416141  0.91567761  0.92445797  1  0  0.124985  0.105751  0  1.008282  0
H  H11  1  0.20583329  0.08432253  0.07554233  1  0  0.124999  0.105759  0  1.008183  0
H  H12  1  0.63556650  0.06561191  0.63463057  1  0  0.116487  0.088249  0  1.014959  0
H  H13  1  0.36443057  0.93438723  0.36536977  1  0  0.116487  0.088242  0  1.014918  0
H  H14  1  0.41326817  0.91344712  0.72688534  1  0  0.111489  0.119002  0  0.997018  0
H  H15  1  0.58672882  0.08655398  0.27311496  1  0  0.111491  0.119069  0  0.996978  0
H  H16  1  0.39412866  0.75045021  0.91569235  1  0  0.110619  0.102723  0  1.048031  0
H  H17  1  0.60586721  0.24954992  0.08430843  1  0  0.110617  0.102699  0  1.048021  0
H  H18  1  0.24070862  0.51225646  0.25328544  1  0  0.119059  0.100918  0  0.986686  0
H  H19  1  0.75929087  0.48774069  0.74671498  1  0  0.119077  0.100954  0  0.986623  0
H  H20  1  0.55505633  0.42245495  0.38076951  1  0  0.107964  0.107815  0  1.043515  0
H  H21  1  0.44494772  0.57754413  0.61922995  1  0  0.107936  0.107798  0  1.043465  0
H  H22  1  0.51285027  0.25823525  0.57825180  1  0  0.108901  0.117498  0  1.006017  0
H  H23  1  0.48715262  0.74176384  0.42174908  1  0  0.108937  0.117568  0  1.005989  0
H  H24  1  0.26169536  0.14094332  0.68617652  1  0  0.120446  0.097522  0  0.992981  0
H  H25  1  0.73830749  0.85905676  0.31382530  1  0  0.120444  0.097509  0  0.992979  0
H  H26  1  0.09954188  0.34253766  0.42252955  1  0  0.115139  0.090225  0  1.02667  0
H  H27  1  0.90046217  0.65746142  0.57747183  1  0  0.115135  0.090224  0  1.026657  0
H  H28  1  0.36431530  0.67357711  0.10640158  1  0  0.305847  0.258868  0  1.023787  0
H  H29  1  0.63568303  0.32642005  0.89359930  1  0  0.305827  0.258856  0  1.023833  0
C  C30  1  0.12165847  0.81691373  0.58498953  1  0  0.198476  0.570594  0  4.228088  0
C  C31  1  0.87834204  0.18308637  0.41500939  1  0  0.198454  0.570541  0  4.228022  0
C  C32  1  0.12413706  0.73595299  0.70670798  1  0  -0.029771  -0.058564  0  4.000875  0
C  C33  1  0.87586340  0.26404808  0.29328997  1  0  -0.029751  -0.058571  0  4.000829  0
C  C34  1  0.14772945  0.59890213  0.69311180  1  0  -0.087694  -0.092438  0  3.96686  0
C  C35  1  0.85226986  0.40109896  0.30688757  1  0  -0.087693  -0.092413  0  3.966852  0
C  C36  1  0.16376374  0.52110407  0.79870090  1  0  -0.09006  -0.084096  0  4.004225  0
C  C37  1  0.83623668  0.47889799  0.20129799  1  0  -0.090052  -0.084123  0  4.004126  0
C  C38  1  0.15482707  0.57972038  0.91953873  1  0  -0.073789  -0.070729  0  3.941949  0
C  C39  1  0.84517447  0.42028265  0.08045967  1  0  -0.073785  -0.070708  0  3.941877  0
C  C40  1  0.12217350  0.71523948  0.93825660  1  0  -0.019318  -0.036427  0  3.969494  0
C  C41  1  0.87782920  0.28476355  0.06174038  1  0  -0.019327  -0.036473  0  3.969469  0
C  C42  1  0.10692533  0.79397977  0.83147445  1  0  -0.076282  -0.106448  0  3.906304  0
C  C43  1  0.89307625  0.20602228  0.16852397  1  0  -0.076286  -0.106435  0  3.906269  0
C  C44  1  0.10375519  0.77375550  0.07296131  1  0  0.194461  0.558574  0  4.214564  0
C  C45  1  0.89624653  0.22624360  0.92703814  1  0  0.194434  0.558584  0  4.214555  0
C  C46  1  0.70848251  0.91240736  0.88237004  1  0  0.058825  0.08152  0  3.888694  0
C  C47  1  0.29151448  0.08759374  0.11763026  1  0  0.058842  0.081615  0  3.888664  0
C  C48  1  0.61750323  0.99637595  0.72197559  1  0  0.050343  0.098817  0  3.937603  0
C  C49  1  0.38249254  0.00362614  0.27802515  1  0  0.050402  0.098987  0  3.937556  0
C  C50  1  0.49592037  0.91150462  0.77271561  1  0  -0.079625  -0.117729  0  3.961923  0
C  C51  1  0.50407438  0.08849453  0.22728471  1  0  -0.079726  -0.118064  0  3.961927  0
C  C52  1  0.48432903  0.82148749  0.88040765  1  0  -0.06141  -0.051809  0  3.932438  0
C  C53  1  0.51566795  0.17851361  0.11959169  1  0  -0.061332  -0.051557  0  3.932159  0
C  C54  1  0.59062309  0.82236468  0.93890496  1  0  -0.009706  -0.073627  0  3.969266  0
C  C55  1  0.40937273  0.17763643  0.06109675  1  0  -0.009718  -0.073691  0  3.969244  0
C  C56  1  0.59265812  0.73112654  0.05440458  1  0  0.237509  0.433873  0  4.149076  0
C  C57  1  0.40733887  0.26887456  0.94559571  1  0  0.237517  0.433888  0  4.149249  0
C  C58  1  0.33069964  0.39619304  0.38550967  1  0  -0.004861  0.028918  0  4.045862  0
C  C59  1  0.66930451  0.60380407  0.61449080  1  0  -0.004958  0.028847  0  4.045931  0
C  C60  1  0.34093990  0.49567026  0.27805111  1  0  0.057587  0.002919  0  3.932096  0
C  C61  1  0.65905838  0.50432788  0.72195261  1  0  0.057603  0.002896  0  3.932187  0
C  C62  1  0.44845776  0.36948265  0.43043580  1  0  -0.057923  -0.062436  0  3.892086  0
C  C63  1  0.55154633  0.63051545  0.56956369  1  0  -0.057884  -0.062427  0  3.892069  0
C  C64  1  0.42577453  0.27702656  0.53813729  1  0  -0.077985  -0.12127  0  3.972653  0
C  C65  1  0.57422831  0.72297352  0.46186357  1  0  -0.078029  -0.121358  0  3.972765  0
C  C66  1  0.28698998  0.21149162  0.59853663  1  0  0.052335  0.093203  0  3.920561  0
C  C67  1  0.71301295  0.78850649  0.40146333  1  0  0.052384  0.093275  0  3.920636  0
C  C68  1  0.19566173  0.32524002  0.45167960  1  0  0.047766  0.038044  0  3.907227  0
C  C69  1  0.80434121  0.67475809  0.54832226  1  0  0.047778  0.038054  0  3.907151  0
N  N70  1  0.72258412  0.99581006  0.77527778  1  0  -0.326965  -0.242954  0  3.518355  0
N  N71  1  0.27741180  0.00418908  0.22472207  1  0  -0.327034  -0.243137  0  3.518472  0
N  N72  1  0.46586121  0.65408819  0.11890770  1  0  -0.28856  -0.235958  0  3.636858  0
N  N73  1  0.53413698  0.34591192  0.88109311  1  0  -0.288549  -0.235993  0  3.636936  0
N  N74  1  0.46442134  0.56268666  0.21705051  1  0  -0.196174  -0.094324  0  3.345111  0
N  N75  1  0.53557690  0.43731247  0.78295032  1  0  -0.196144  -0.094265  0  3.345183  0
N  N76  1  0.17454259  0.23521010  0.55505262  1  0  -0.325056  -0.22533  0  3.504915  0
N  N77  1  0.82545918  0.76478802  0.44494875  1  0  -0.325053  -0.225351  0  3.504929  0
O  O78  1  0.10275521  0.94106531  0.59333349  1  0  -0.344843  -0.598898  0  2.358581  0
O  O79  1  0.89724410  0.05893577  0.40666492  1  0  -0.344828  -0.598854  0  2.358557  0
O  O80  1  0.14388915  0.75458436  0.47364471  1  0  -0.3348  -0.558582  0  2.264176  0
O  O81  1  0.85611258  0.24541474  0.52635569  1  0  -0.334802  -0.558587  0  2.264213  0
O  O82  1  0.02860917  0.88274364  0.11284412  1  0  -0.316869  -0.526842  0  2.185361  0
O  O83  1  0.97139149  0.11725351  0.88715774  1  0  -0.316828  -0.526829  0  2.185268  0
O  O84  1  0.16592965  0.70942623  0.14569158  1  0  -0.340604  -0.599107  0  2.259074  0
O  O85  1  0.83407105  0.29056993  0.85430935  1  0  -0.340607  -0.599114  0  2.259208  0
O  O86  1  0.70291160  0.72628974  0.08605268  1  0  -0.275846  -0.453004  0  2.157205  0
O  O87  1  0.29708654  0.27371135  0.91394810  1  0  -0.275838  -0.453001  0  2.157402  0
