# generated using pymatgen
data_CuH6C6BrN2
_symmetry_space_group_name_H-M   'P 1'
_cell_length_a   12.58067480
_cell_length_b   14.01143135
_cell_length_c   14.01140347
_cell_angle_alpha   78.38188660
_cell_angle_beta   63.33280449
_cell_angle_gamma   63.33306496
_symmetry_Int_Tables_number   1
_chemical_formula_structural   CuH6C6BrN2
_chemical_formula_sum   'Cu8 H48 C48 Br8 N16'
_cell_volume   1972.34593671
_cell_formula_units_Z   8
loop_
 _symmetry_equiv_pos_site_id
 _symmetry_equiv_pos_as_xyz
  1  'x, y, z'
loop_
 _atom_site_type_symbol
 _atom_site_label
 _atom_site_symmetry_multiplicity
 _atom_site_fract_x
 _atom_site_fract_y
 _atom_site_fract_z
 _atom_site_occupancy
 _atom_site_pbe_bader_charge
 _atom_site_pbe_bader_spin_density
 _atom_site_pbe_cm5_charge
 _atom_site_pbe_ddec_charge
 _atom_site_pbe_ddec_spin_density
 _atom_site_pbe_ddec_sum_bond_order
 _atom_site_pbe_magmom
Cu  Cu0  1  0.17960712  0.46810203  0.99867638  1  0.664074  0  0.456596  0.314782  0  2.620617  0
Cu  Cu1  1  0.64642355  0.53173423  0.00130198  1  0.661543  0  0.455783  0.31409  0  2.620168  0
Cu  Cu2  1  0.42829018  0.50132742  0.96820225  1  0.662405  0  0.456668  0.31505  0  2.620243  0
Cu  Cu3  1  0.89773146  0.49870620  0.03175752  1  0.661353  0  0.455016  0.313155  0  2.620615  0
Cu  Cu4  1  0.64643711  0.00129749  0.53171312  1  0.661551  0  0.455949  0.314226  0  2.620784  0
Cu  Cu5  1  0.17960438  0.99868652  0.46811919  1  0.664073  0  0.456685  0.314702  0  2.621434  0
Cu  Cu6  1  0.89773110  0.03174589  0.49870612  1  0.661435  0  0.455178  0.313158  0  2.621292  0
Cu  Cu7  1  0.42823491  0.96823583  0.50134323  1  0.662106  0  0.456768  0.315136  0  2.620795  0
H  H8  1  0.71956730  0.40242894  0.24754968  1  0.064329  0  0.099301  0.11288  0  0.957563  0
H  H9  1  0.79042404  0.35982495  0.11457066  1  0.109109  0  0.084448  0.100126  0  1.069215  0
H  H10  1  0.37018487  0.23143888  0.07444498  1  0.03326  0  0.099366  0.111685  0  0.952736  0
H  H11  1  0.30799886  0.36294773  0.11812540  1  0.093306  0  0.084199  0.098004  0  1.074685  0
H  H12  1  0.36950212  0.59758051  0.75251249  1  0.035795  0  0.099268  0.112946  0  0.956996  0
H  H13  1  0.26482898  0.64025053  0.88546011  1  0.112545  0  0.085093  0.101547  0  1.068121  0
H  H14  1  0.67611197  0.76856242  0.92556534  1  0.025914  0  0.099405  0.111971  0  0.952895  0
H  H15  1  0.78913508  0.63705596  0.88188624  1  0.102267  0  0.08452  0.09878  0  1.073612  0
H  H16  1  0.21703435  0.25250695  0.90235364  1  0.037711  0  0.099736  0.11352  0  0.956952  0
H  H17  1  0.15499267  0.38546718  0.85975460  1  0.108861  0  0.084856  0.101352  0  1.06961  0
H  H18  1  0.69472332  0.42557394  0.73144825  1  0.039888  0  0.099473  0.111854  0  0.953116  0
H  H19  1  0.67625412  0.38190380  0.86291692  1  0.103747  0  0.083816  0.096908  0  1.075875  0
H  H20  1  0.37191512  0.74751437  0.09762696  1  0.0463  0  0.099855  0.113921  0  0.956404  0
H  H21  1  0.40024852  0.61452035  0.14020044  1  0.105855  0  0.084846  0.100536  0  1.069414  0
H  H22  1  0.85156115  0.57444103  0.26858081  1  0.048945  0  0.099182  0.111126  0  0.953487  0
H  H23  1  0.92090268  0.61809359  0.13706954  1  0.096946  0  0.084246  0.097373  0  1.074565  0
H  H24  1  0.36949390  0.75252955  0.59757477  1  0.035823  0  0.099267  0.112981  0  0.956939  0
H  H25  1  0.26480745  0.88547903  0.64024439  1  0.112166  0  0.085093  0.101545  0  1.068175  0
H  H26  1  0.67611675  0.92558153  0.76853644  1  0.025706  0  0.099425  0.112016  0  0.952863  0
H  H27  1  0.78913898  0.88190830  0.63703416  1  0.102358  0  0.084464  0.098654  0  1.073884  0
H  H28  1  0.71957048  0.24752702  0.40244131  1  0.064669  0  0.099328  0.112936  0  0.957565  0
H  H29  1  0.79041895  0.11455252  0.35984563  1  0.109101  0  0.084442  0.100062  0  1.069252  0
H  H30  1  0.37017770  0.07443494  0.23146424  1  0.033547  0  0.099365  0.111729  0  0.952775  0
H  H31  1  0.30799689  0.11811216  0.36297250  1  0.094007  0  0.084277  0.09812  0  1.074613  0
H  H32  1  0.37193133  0.09761600  0.74750058  1  0.046399  0  0.099785  0.113849  0  0.956369  0
H  H33  1  0.40024937  0.14018463  0.61450301  1  0.105425  0  0.08486  0.100474  0  1.069374  0
H  H34  1  0.85157441  0.26856168  0.57442957  1  0.048969  0  0.099207  0.111114  0  0.953548  0
H  H35  1  0.92092714  0.13704932  0.61806966  1  0.096512  0  0.08415  0.09723  0  1.07478  0
H  H36  1  0.21701819  0.90235900  0.25252180  1  0.036649  0  0.099777  0.113504  0  0.956933  0
H  H37  1  0.15496865  0.85976617  0.38548734  1  0.10847  0  0.084801  0.101272  0  1.069645  0
H  H38  1  0.69470610  0.73146446  0.42559342  1  0.040354  0  0.09958  0.111986  0  0.953168  0
H  H39  1  0.67623641  0.86293370  0.38193324  1  0.10346  0  0.083718  0.096786  0  1.075933  0
H  H40  1  0.67793341  0.24617928  0.24619635  1  0.089501  0  0.093191  0.109384  0  0.981375  0
H  H41  1  0.84475017  0.17098806  0.17099554  1  0.037146  0  0.095483  0.096406  0  0.955134  0
H  H42  1  0.42712100  0.22378458  0.22379898  1  0.088442  0  0.092712  0.106954  0  0.980641  0
H  H43  1  0.26479614  0.30428775  0.30429247  1  0.024026  0  0.09627  0.098898  0  0.955162  0
H  H44  1  0.17030812  0.75381686  0.75381200  1  0.06165  0  0.092863  0.109221  0  0.981962  0
H  H45  1  0.18670364  0.82902805  0.82903275  1  0.051813  0  0.095455  0.096147  0  0.955705  0
H  H46  1  0.87482834  0.77623039  0.77620998  1  0.084  0  0.093331  0.107012  0  0.980794  0
H  H47  1  0.87345151  0.69573274  0.69572104  1  0.028454  0  0.096095  0.098396  0  0.955775  0
H  H48  1  0.17403987  0.25386426  0.74609336  1  0.059232  0  0.092779  0.107891  0  0.982153  0
H  H49  1  0.26566493  0.32904151  0.67092516  1  0.034722  0  0.0951  0.09537  0  0.95637  0
H  H50  1  0.90103481  0.27615213  0.72370059  1  0.075551  0  0.093208  0.107768  0  0.98067  0
H  H51  1  0.81912751  0.19572462  0.80424511  1  0.025816  0  0.096025  0.098616  0  0.957121  0
H  H52  1  0.17402936  0.74610063  0.25388154  1  0.059516  0  0.09267  0.107752  0  0.982158  0
H  H53  1  0.26566961  0.67092418  0.32904401  1  0.034739  0  0.095071  0.095265  0  0.95645  0
H  H54  1  0.90101502  0.72372076  0.27617737  1  0.075446  0  0.093215  0.10767  0  0.980556  0
H  H55  1  0.81911727  0.80425443  0.19574027  1  0.025937  0  0.096055  0.09869  0  0.956973  0
C  C56  1  0.92615945  0.32313624  0.18261657  1  0.526838  0  0.134091  0.223819  0  3.900694  0
C  C57  1  0.16531943  0.30074624  0.16004946  1  0.538596  0  0.133958  0.223476  0  3.89767  0
C  C58  1  0.79720865  0.33576834  0.19210146  1  -0.041946  0  -0.16317  -0.238399  0  3.958482  0
C  C59  1  0.29793181  0.28668427  0.14257345  1  -0.003531  0  -0.16295  -0.237174  0  3.958633  0
C  C60  1  0.43193700  0.67690549  0.81737816  1  0.513132  0  0.133873  0.223249  0  3.898077  0
C  C61  1  0.62624716  0.69922389  0.83992768  1  0.546377  0  0.134597  0.223171  0  3.900092  0
C  C62  1  0.32509315  0.66427087  0.80790374  1  -0.027864  0  -0.163841  -0.240035  0  3.958594  0
C  C63  1  0.72728653  0.71333214  0.85742627  1  -0.007383  0  -0.16266  -0.237573  0  3.95814  0
C  C64  1  0.35876979  0.31741596  0.82307375  1  0.551644  0  0.132652  0.220972  0  3.902787  0
C  C65  1  0.57544581  0.33995132  0.80077188  1  0.548897  0  0.13368  0.221082  0  3.90356  0
C  C66  1  0.23927649  0.30793336  0.83569435  1  -0.015394  0  -0.163856  -0.240533  0  3.959601  0
C  C67  1  0.69060462  0.35743394  0.78667444  1  -0.023728  0  -0.161701  -0.234319  0  3.959693  0
C  C68  1  0.49923098  0.68257616  0.17692950  1  0.52433  0  0.133783  0.223527  0  3.897099  0
C  C69  1  0.71604565  0.66008758  0.19923608  1  0.467387  0  0.134912  0.223999  0  3.89521  0
C  C70  1  0.38290644  0.69206821  0.16427785  1  -0.028551  0  -0.163537  -0.239441  0  3.958473  0
C  C71  1  0.83458657  0.64256659  0.21332644  1  -0.025727  0  -0.161975  -0.234401  0  3.955957  0
C  C72  1  0.43192572  0.81740481  0.67689125  1  0.513183  0  0.133941  0.223378  0  3.898045  0
C  C73  1  0.62624930  0.83994443  0.69920292  1  0.545542  0  0.134651  0.223237  0  3.900141  0
C  C74  1  0.32508353  0.80792480  0.66426380  1  -0.026987  0  -0.164007  -0.240378  0  3.958717  0
C  C75  1  0.72729079  0.85744529  0.71330274  1  -0.007834  0  -0.162637  -0.237519  0  3.958334  0
C  C76  1  0.92616119  0.18258981  0.32315524  1  0.526016  0  0.133863  0.22337  0  3.90106  0
C  C77  1  0.16531808  0.16004088  0.30076673  1  0.537874  0  0.133936  0.223555  0  3.897711  0
C  C78  1  0.79721080  0.19207847  0.33578639  1  -0.041826  0  -0.163068  -0.238194  0  3.958337  0
C  C79  1  0.29792620  0.14256235  0.28670984  1  -0.004608  0  -0.16296  -0.237301  0  3.958904  0
C  C80  1  0.49924568  0.17691312  0.68254957  1  0.524186  0  0.133572  0.223749  0  3.897141  0
C  C81  1  0.71606692  0.19921127  0.66006362  1  0.467233  0  0.134905  0.223978  0  3.895543  0
C  C82  1  0.38291780  0.16426857  0.69204847  1  -0.027391  0  -0.16332  -0.239316  0  3.958382  0
C  C83  1  0.83460404  0.21330431  0.64254791  1  -0.025237  0  -0.161967  -0.234261  0  3.956239  0
C  C84  1  0.35874572  0.82309257  0.31743758  1  0.551548  0  0.132633  0.220957  0  3.902902  0
C  C85  1  0.57542010  0.80079888  0.33997827  1  0.548563  0  0.133587  0.221027  0  3.903572  0
C  C86  1  0.23925894  0.83570425  0.30795408  1  -0.014378  0  -0.163818  -0.240365  0  3.959293  0
C  C87  1  0.69058802  0.78669303  0.35745727  1  -0.0238  0  -0.16171  -0.234382  0  3.959628  0
C  C88  1  0.98473654  0.24742462  0.24744151  1  0.020063  0  0.000461  -0.065524  0  4.000911  0
C  C89  1  0.10676735  0.23596495  0.23599070  1  -0.079381  0  0.000465  -0.064518  0  3.996792  0
C  C90  1  0.77626982  0.23299585  0.23301127  1  -0.051373  0  -0.159003  -0.115728  0  3.896219  0
C  C91  1  0.32552706  0.24214118  0.24215651  1  -0.027971  0  -0.157395  -0.113185  0  3.898247  0
C  C92  1  0.47963589  0.75260947  0.75259347  1  -0.014533  0  0.001541  -0.061433  0  4.00002  0
C  C93  1  0.57876789  0.76405118  0.76402396  1  -0.057265  0  7.9e-05  -0.065592  0  3.999897  0
C  C94  1  0.24225835  0.76701685  0.76700648  1  -0.018732  0  -0.158829  -0.115296  0  3.901117  0
C  C95  1  0.80992043  0.75788070  0.75785859  1  -0.017696  0  -0.159361  -0.114358  0  3.897209  0
C  C96  1  0.48218440  0.25260583  0.74737154  1  -0.08369  0  0.000325  -0.064487  0  4.00151  0
C  C97  1  0.59274880  0.26403900  0.73598880  1  0.034902  0  0.000993  -0.062113  0  3.999574  0
C  C98  1  0.25918433  0.26703886  0.73293249  1  -0.010209  0  -0.158667  -0.112796  0  3.899862  0
C  C99  1  0.81774076  0.25785044  0.74210007  1  -0.0125  0  -0.15886  -0.115977  0  3.898861  0
C  C100  1  0.48216460  0.74739863  0.25263066  1  -0.083625  0  0.000179  -0.06466  0  4.001905  0
C  C101  1  0.59272527  0.73601475  0.26406277  1  0.035179  0  0.001132  -0.061835  0  3.999985  0
C  C102  1  0.25917405  0.73294178  0.26705681  1  -0.010006  0  -0.158494  -0.112497  0  3.899507  0
C  C103  1  0.81771930  0.74211801  0.25787655  1  -0.011894  0  -0.158898  -0.115942  0  3.89859  0
Br  Br104  1  0.03136916  0.59839253  0.91583553  1  -0.57593  0  -0.286559  -0.436084  0  1.547858  0
Br  Br105  1  0.54538176  0.40155198  0.08434266  1  -0.578512  0  -0.287689  -0.43758  0  1.547635  0
Br  Br106  1  0.19711806  0.58420120  0.09840068  1  -0.578225  0  -0.287318  -0.437229  0  1.547427  0
Br  Br107  1  0.87971262  0.41586079  0.90145832  1  -0.577287  0  -0.286888  -0.436533  0  1.547816  0
Br  Br108  1  0.54536640  0.08432960  0.40157419  1  -0.578474  0  -0.287631  -0.437543  0  1.548205  0
Br  Br109  1  0.03138354  0.91583693  0.59836146  1  -0.575853  0  -0.286527  -0.436026  0  1.54835  0
Br  Br110  1  0.87970234  0.90148285  0.41584650  1  -0.577234  0  -0.28684  -0.436444  0  1.54826  0
Br  Br111  1  0.19707965  0.09841861  0.58420637  1  -0.578071  0  -0.287285  -0.437187  0  1.548029  0
N  N112  1  0.10376937  0.37339197  0.10326478  1  -0.713938  0  -0.253511  -0.147866  0  3.548546  0
N  N113  1  0.98466091  0.38364499  0.11359311  1  -0.74083  0  -0.25534  -0.149858  0  3.552963  0
N  N114  1  0.58054091  0.62658332  0.89668218  1  -0.726606  0  -0.253327  -0.146435  0  3.549055  0
N  N115  1  0.48197911  0.61635414  0.88637047  1  -0.71674  0  -0.256823  -0.152281  0  3.553026  0
N  N116  1  0.45708615  0.39671649  0.87342439  1  -0.7292  0  -0.254207  -0.148615  0  3.548477  0
N  N117  1  0.34830543  0.38638317  0.88363826  1  -0.726581  0  -0.254883  -0.148705  0  3.554163  0
N  N118  1  0.72711940  0.60329803  0.12658798  1  -0.717883  0  -0.254372  -0.149128  0  3.549174  0
N  N119  1  0.61825468  0.61358951  0.11636786  1  -0.707596  0  -0.255362  -0.15065  0  3.553847  0
N  N120  1  0.58054176  0.89670292  0.62655722  1  -0.726907  0  -0.253508  -0.146597  0  3.549112  0
N  N121  1  0.48196162  0.88640187  0.61634515  1  -0.716503  0  -0.256791  -0.152332  0  3.553049  0
N  N122  1  0.10376421  0.10325480  0.37341796  1  -0.713542  0  -0.253486  -0.147804  0  3.548076  0
N  N123  1  0.98466326  0.11357171  0.38366413  1  -0.741836  0  -0.255282  -0.149545  0  3.552808  0
N  N124  1  0.72713987  0.12656559  0.60327607  1  -0.717562  0  -0.254357  -0.14914  0  3.550028  0
N  N125  1  0.61827027  0.11635288  0.61356389  1  -0.708056  0  -0.255371  -0.150723  0  3.554013  0
N  N126  1  0.45706461  0.87344892  0.39673916  1  -0.729023  0  -0.254249  -0.148626  0  3.548571  0
N  N127  1  0.34828582  0.88365733  0.38640436  1  -0.726965  0  -0.254834  -0.148616  0  3.553927  0
