# generated using pymatgen
data_AlH18C24NO6
_symmetry_space_group_name_H-M   'P 1'
_cell_length_a   4.11943132
_cell_length_b   13.47836060
_cell_length_c   13.47852986
_cell_angle_alpha   119.99986441
_cell_angle_beta   90.00207898
_cell_angle_gamma   89.99941693
_symmetry_Int_Tables_number   1
_chemical_formula_structural   AlH18C24NO6
_chemical_formula_sum   'Al1 H18 C24 N1 O6'
_cell_volume   648.10905199
_cell_formula_units_Z   1
loop_
 _symmetry_equiv_pos_site_id
 _symmetry_equiv_pos_as_xyz
  1  'x, y, z'
loop_
 _atom_site_type_symbol
 _atom_site_label
 _atom_site_symmetry_multiplicity
 _atom_site_fract_x
 _atom_site_fract_y
 _atom_site_fract_z
 _atom_site_occupancy
 _atom_site_pbe_bader_charge
 _atom_site_pbe_bader_spin_density
 _atom_site_pbe_cm5_charge
 _atom_site_pbe_ddec_charge
 _atom_site_pbe_ddec_spin_density
 _atom_site_pbe_ddec_sum_bond_order
 _atom_site_pbe_magmom
Al  Al0  1  0.02516975  0.49999401  0.49999337  1  2.511486  0  0.43739  1.613624  0  2.55176  0
H  H1  1  0.23028484  0.81481822  0.78948593  1  0.070417  0  0.105887  0.110601  0  0.983472  0
H  H2  1  0.21553024  0.02615837  0.89686137  1  0.086518  0  0.101244  0.107502  0  1.032047  0
H  H3  1  0.78105160  0.03216046  0.63175788  1  0.069504  0  0.101  0.110772  0  1.036986  0
H  H4  1  0.78106993  0.09959710  0.96783836  1  0.073331  0  0.100985  0.110694  0  1.037026  0
H  H5  1  0.23025308  0.47466480  0.18515436  1  0.076378  0  0.105918  0.110639  0  0.983318  0
H  H6  1  0.21552656  0.37069472  0.97381531  1  0.076276  0  0.101255  0.107584  0  1.032014  0
H  H7  1  0.78104458  0.36824012  0.90040484  1  0.064952  0  0.100972  0.110748  0  1.036987  0
H  H8  1  0.23028200  0.21048463  0.52532071  1  0.081174  0  0.105912  0.110664  0  0.983263  0
H  H9  1  0.21551105  0.10311910  0.62929584  1  0.060635  0  0.101299  0.107682  0  1.031957  0
H  H10  1  0.74725762  0.83864131  0.43505576  1  0.029971  0  0.089571  0.123367  0  0.993878  0
H  H11  1  0.80890470  0.71312503  0.44475357  1  0.036218  0  0.095519  0.139916  0  1.012435  0
H  H12  1  0.10243238  0.82341206  0.50079182  1  0.053526  0  0.091685  0.13459  0  1.024793  0
H  H13  1  0.74723224  0.09641668  0.16137009  1  0.036722  0  0.089584  0.123378  0  0.993847  0
H  H14  1  0.80887198  0.23163790  0.28687637  1  0.037946  0  0.095558  0.14  0  1.012318  0
H  H15  1  0.10239763  0.17738164  0.17659848  1  0.053981  0  0.091727  0.134693  0  1.024851  0
H  H16  1  0.74727228  0.56494269  0.90358167  1  -0.003111  0  0.089536  0.123318  0  0.99387  0
H  H17  1  0.80886778  0.55523929  0.76836717  1  0.039678  0  0.095543  0.139945  0  1.012389  0
H  H18  1  0.10241997  0.49920748  0.82261265  1  0.054864  0  0.091689  0.134613  0  1.024869  0
C  C19  1  0.52547281  0.41238097  0.32432514  1  1.572797  0  0.28282  0.682655  0  4.046047  0
C  C20  1  0.52552447  0.41193725  0.58760838  1  1.572202  0  0.282837  0.682999  0  4.045913  0
C  C21  1  0.52550799  0.67565728  0.58804473  1  1.549508  0  0.282805  0.682837  0  4.046434  0
C  C22  1  0.35794779  0.86290921  0.75614794  1  -0.130492  0  -0.087518  -0.085381  0  4.019154  0
C  C23  1  0.34627292  0.98181722  0.81608576  1  0.039572  0  -0.100881  -0.185396  0  4.021138  0
C  C24  1  0.50185595  0.04502054  0.77267837  1  0.350471  0  0.092973  0.191451  0  4.03065  0
C  C25  1  0.66229089  0.98465560  0.66725315  1  0.026004  0  -0.100717  -0.246172  0  3.95846  0
C  C26  1  0.67275187  0.86502909  0.60477977  1  -0.040141  0  -0.004056  0.163438  0  3.975812  0
C  C27  1  0.52184396  0.80388845  0.65119656  1  0.034984  0  -0.01936  -0.115713  0  3.944739  0
C  C28  1  0.66228345  0.18259268  0.01533938  1  -0.093985  0  -0.10071  -0.245938  0  3.958243  0
C  C29  1  0.67270834  0.23974864  0.13496536  1  0.083608  0  -0.00408  0.163293  0  3.975897  0
C  C30  1  0.52179121  0.34730550  0.19609609  1  -0.000982  0  -0.019305  -0.115825  0  3.944429  0
C  C31  1  0.35789548  0.39323015  0.13706458  1  -0.061768  0  -0.087463  -0.084967  0  4.018783  0
C  C32  1  0.34626175  0.33426032  0.01815883  1  -0.030513  0  -0.100948  -0.18578  0  4.021634  0
C  C33  1  0.50183435  0.22764780  0.95496486  1  0.366183  0  0.093102  0.191535  0  4.030671  0
C  C34  1  0.66228126  0.33274369  0.81740676  1  -0.052347  0  -0.100686  -0.246014  0  3.958029  0
C  C35  1  0.67272010  0.39521593  0.76024828  1  0.0477  0  -0.004085  0.163294  0  3.975857  0
C  C36  1  0.52183703  0.34878547  0.65268604  1  -0.005696  0  -0.019323  -0.115927  0  3.944433  0
C  C37  1  0.35793242  0.24382922  0.60675812  1  -0.055497  0  -0.087448  -0.085066  0  4.018781  0
C  C38  1  0.34625803  0.18389215  0.66572613  1  0.021174  0  -0.100991  -0.185812  0  4.02144  0
C  C39  1  0.50184078  0.22731102  0.77234404  1  0.300104  0  0.093137  0.191591  0  4.030244  0
C  C40  1  0.84039799  0.80631832  0.49009019  1  -0.044878  0  -0.239997  -0.413012  0  3.949851  0
C  C41  1  0.84036688  0.18377398  0.19368508  1  -0.05796  0  -0.240121  -0.413184  0  3.949817  0
C  C42  1  0.84038536  0.50990826  0.81622577  1  -0.019502  0  -0.240007  -0.412944  0  3.949877  0
N  N43  1  0.49394616  0.16665934  0.83332947  1  -1.31105  0  -0.248749  -0.145877  0  3.614988  0
O  O44  1  0.76180466  0.62610191  0.60699683  1  -1.266803  0  -0.237607  -0.607733  0  2.351976  0
O  O45  1  0.76177415  0.48089208  0.37388152  1  -1.267719  0  -0.237721  -0.607808  0  2.351818  0
O  O46  1  0.76182043  0.39297634  0.51909904  1  -1.26526  0  -0.237592  -0.607734  0  2.351675  0
O  O47  1  0.29097978  0.62484792  0.51954213  1  -1.258325  0  -0.23352  -0.600391  0  2.37141  0
O  O48  1  0.29098956  0.48044018  0.60529196  1  -1.255452  0  -0.233618  -0.60055  0  2.371348  0
O  O49  1  0.29094610  0.39469598  0.37514165  1  -1.256403  0  -0.233443  -0.600197  0  2.371236  0
