# generated using pymatgen
data_AgH5C5IN
_symmetry_space_group_name_H-M   'P 1'
_cell_length_a   9.10349742
_cell_length_b   9.29178721
_cell_length_c   16.74110840
_cell_angle_alpha   90.00046777
_cell_angle_beta   89.99989154
_cell_angle_gamma   106.37884856
_symmetry_Int_Tables_number   1
_chemical_formula_structural   AgH5C5IN
_chemical_formula_sum   'Ag8 H40 C40 I8 N8'
_cell_volume   1358.62519032
_cell_formula_units_Z   8
loop_
 _symmetry_equiv_pos_site_id
 _symmetry_equiv_pos_as_xyz
  1  'x, y, z'
loop_
 _atom_site_type_symbol
 _atom_site_label
 _atom_site_symmetry_multiplicity
 _atom_site_fract_x
 _atom_site_fract_y
 _atom_site_fract_z
 _atom_site_occupancy
 _atom_site_hle17_bader_spin_density
 _atom_site_hle17_ddec_charge
 _atom_site_hle17_ddec_spin_density
 _atom_site_hle17_ddec_sum_bond_order
 _atom_site_hle17_magmom
 _atom_site_hse06_10hf_bader_spin_density
 _atom_site_hse06_10hf_ddec_charge
 _atom_site_hse06_10hf_ddec_spin_density
 _atom_site_hse06_10hf_ddec_sum_bond_order
 _atom_site_hse06_10hf_magmom
 _atom_site_hse06_bader_spin_density
 _atom_site_hse06_ddec_charge
 _atom_site_hse06_ddec_spin_density
 _atom_site_hse06_ddec_sum_bond_order
 _atom_site_hse06_magmom
 _atom_site_pbe_bader_spin_density
 _atom_site_pbe_cm5_charge
 _atom_site_pbe_ddec_charge
 _atom_site_pbe_ddec_spin_density
 _atom_site_pbe_ddec_sum_bond_order
 _atom_site_pbe_magmom
Ag  Ag0  1  0.35476017  0.93007049  0.95597750  1  0  0.274057  0  1.945757  0  0  0.172074  0  2.4636  0  0  0.19921  0  2.411425  0  0  0.215439  0.15392  0  2.498727  0
Ag  Ag1  1  0.14523047  0.56992843  0.45597882  1  0  0.274104  0  1.945717  0  0  0.172145  0  2.463519  0  0  0.199271  0  2.41136  0  0  0.215478  0.153983  0  2.498658  0
Ag  Ag2  1  0.64523316  0.06994982  0.04402022  1  0  0.274075  0  1.945881  0  0  0.172091  0  2.46372  0  0  0.199216  0  2.41156  0  0  0.215428  0.15393  0  2.49886  0
Ag  Ag3  1  0.85476913  0.43005261  0.54402010  1  0  0.274079  0  1.945782  0  0  0.172095  0  2.4636  0  0  0.199221  0  2.411441  0  0  0.215439  0.153935  0  2.498736  0
Ag  Ag4  1  0.85429577  0.93446346  0.95732603  1  0  0.275281  0  1.938925  0  0  0.173978  0  2.454635  0  0  0.201209  0  2.402275  0  0  0.215105  0.155757  0  2.489877  0
Ag  Ag5  1  0.64570577  0.56554169  0.45732375  1  0  0.275293  0  1.938842  0  0  0.174  0  2.454522  0  0  0.20123  0  2.402164  0  0  0.215099  0.155782  0  2.489756  0
Ag  Ag6  1  0.14568516  0.06553666  0.04267826  1  0  0.27532  0  1.938836  0  0  0.173997  0  2.454583  0  0  0.201234  0  2.402224  0  0  0.215151  0.155786  0  2.489807  0
Ag  Ag7  1  0.35429978  0.43445617  0.54267517  1  0  0.275364  0  1.938783  0  0  0.174058  0  2.454495  0  0  0.201294  0  2.402135  0  0  0.215137  0.155837  0  2.489738  0
H  H8  1  0.05368220  0.04971391  0.80074516  1  0  0.07287  0  0.948972  0  0  0.081266  0  1.015889  0  0  0.082972  0  1.015306  0  0  0.107953  0.079942  0  1.016465  0
H  H9  1  0.44632546  0.45029614  0.30074494  1  0  0.07285  0  0.948971  0  0  0.081233  0  1.015919  0  0  0.08294  0  1.015336  0  0  0.107949  0.079917  0  1.016496  0
H  H10  1  0.94631598  0.95028508  0.19925854  1  0  0.072804  0  0.948863  0  0  0.081201  0  1.015788  0  0  0.082908  0  1.015206  0  0  0.107924  0.079884  0  1.016362  0
H  H11  1  0.55367848  0.54971519  0.69925696  1  0  0.072811  0  0.948938  0  0  0.081184  0  1.015888  0  0  0.08289  0  1.015307  0  0  0.10794  0.079868  0  1.016464  0
H  H12  1  0.59004670  0.84123737  0.82510054  1  0  0.063607  0  0.981533  0  0  0.067252  0  1.059058  0  0  0.069511  0  1.05733  0  0  0.096141  0.065534  0  1.060433  0
H  H13  1  0.90996541  0.65876473  0.32509782  1  0  0.063466  0  0.981613  0  0  0.067192  0  1.059095  0  0  0.069454  0  1.05736  0  0  0.096094  0.065473  0  1.060468  0
H  H14  1  0.40995303  0.15875938  0.17489778  1  0  0.063588  0  0.981572  0  0  0.067287  0  1.05907  0  0  0.069552  0  1.057332  0  0  0.096139  0.06557  0  1.060444  0
H  H15  1  0.09003955  0.34123875  0.67489990  1  0  0.06356  0  0.981466  0  0  0.067279  0  1.058955  0  0  0.069545  0  1.057214  0  0  0.09611  0.065558  0  1.060332  0
H  H16  1  0.77402729  0.95631603  0.58826992  1  0  0.09255  0  0.957763  0  0  0.100076  0  1.024167  0  0  0.103089  0  1.021716  0  0  0.090446  0.097781  0  1.026119  0
H  H17  1  0.72597873  0.54368485  0.08826804  1  0  0.092588  0  0.957687  0  0  0.100098  0  1.024128  0  0  0.103112  0  1.02167  0  0  0.090462  0.097807  0  1.026089  0
H  H18  1  0.22598524  0.04369081  0.41173019  1  0  0.092575  0  0.957766  0  0  0.100098  0  1.024159  0  0  0.103115  0  1.021702  0  0  0.090454  0.097806  0  1.026116  0
H  H19  1  0.27402475  0.45630965  0.91173266  1  0  0.092587  0  0.957676  0  0  0.100095  0  1.024108  0  0  0.103112  0  1.021652  0  0  0.090451  0.097802  0  1.026065  0
H  H20  1  0.54903140  0.84242891  0.67641148  1  0  0.09609  0  0.990479  0  0  0.10283  0  1.057251  0  0  0.105177  0  1.058402  0  0  0.092998  0.101121  0  1.056652  0
H  H21  1  0.95097203  0.65757551  0.17640931  1  0  0.096055  0  0.990629  0  0  0.102792  0  1.057382  0  0  0.105141  0  1.058532  0  0  0.092984  0.101082  0  1.056782  0
H  H22  1  0.45097325  0.15757344  0.32358564  1  0  0.096021  0  0.990619  0  0  0.102818  0  1.057331  0  0  0.105169  0  1.058476  0  0  0.092995  0.10111  0  1.056732  0
H  H23  1  0.04902635  0.34242797  0.82359020  1  0  0.096118  0  0.990496  0  0  0.102877  0  1.057235  0  0  0.105227  0  1.058382  0  0  0.093009  0.101167  0  1.056639  0
H  H24  1  0.41464207  0.17154714  0.81531179  1  0  0.064481  0  0.978455  0  0  0.070646  0  1.050186  0  0  0.072493  0  1.049738  0  0  0.097377  0.069268  0  1.050591  0
H  H25  1  0.08535714  0.32844518  0.31531138  1  0  0.064485  0  0.978408  0  0  0.070635  0  1.050146  0  0  0.072484  0  1.049695  0  0  0.097353  0.069255  0  1.050551  0
H  H26  1  0.58535379  0.82845521  0.18468354  1  0  0.064472  0  0.978491  0  0  0.070639  0  1.050226  0  0  0.07248  0  1.049777  0  0  0.097365  0.069259  0  1.050634  0
H  H27  1  0.91464079  0.67154147  0.68468634  1  0  0.064453  0  0.978475  0  0  0.070612  0  1.05023  0  0  0.072458  0  1.049779  0  0  0.097344  0.069229  0  1.050641  0
H  H28  1  0.03142741  0.06153859  0.65163500  1  0  0.095303  0  0.985279  0  0  0.103547  0  1.05116  0  0  0.106116  0  1.051287  0  0  0.092308  0.101708  0  1.051197  0
H  H29  1  0.46857543  0.43846817  0.15163411  1  0  0.095375  0  0.985269  0  0  0.103597  0  1.051137  0  0  0.106168  0  1.051261  0  0  0.092342  0.101761  0  1.05117  0
H  H30  1  0.96858195  0.93846489  0.34836870  1  0  0.095323  0  0.985282  0  0  0.103576  0  1.051149  0  0  0.106145  0  1.051274  0  0  0.09234  0.101736  0  1.05118  0
H  H31  1  0.53142734  0.56153531  0.84836720  1  0  0.095337  0  0.985264  0  0  0.103581  0  1.051126  0  0  0.10615  0  1.051252  0  0  0.092312  0.101738  0  1.051167  0
H  H32  1  0.21900882  0.71201629  0.80922513  1  0  0.069361  0  0.964293  0  0  0.076602  0  1.033192  0  0  0.078338  0  1.032946  0  0  0.102843  0.075282  0  1.033469  0
H  H33  1  0.28098657  0.78797824  0.30923389  1  0  0.069271  0  0.964339  0  0  0.076481  0  1.033288  0  0  0.078225  0  1.03302  0  0  0.102786  0.075168  0  1.033568  0
H  H34  1  0.78099253  0.28798606  0.19077139  1  0  0.06932  0  0.964262  0  0  0.076557  0  1.033165  0  0  0.078294  0  1.032913  0  0  0.102806  0.075238  0  1.033447  0
H  H35  1  0.71900715  0.21201290  0.69077338  1  0  0.069376  0  0.964244  0  0  0.076549  0  1.033222  0  0  0.078282  0  1.032985  0  0  0.102824  0.07523  0  1.033497  0
H  H36  1  0.39424449  0.19170987  0.66621659  1  0  0.095389  0  0.993529  0  0  0.099777  0  1.065975  0  0  0.102834  0  1.065235  0  0  0.08993  0.097553  0  1.066677  0
H  H37  1  0.10576114  0.30829149  0.16621606  1  0  0.095338  0  0.993612  0  0  0.099736  0  1.06606  0  0  0.102791  0  1.065329  0  0  0.089899  0.097511  0  1.066767  0
H  H38  1  0.60575181  0.80829024  0.33377874  1  0  0.095392  0  0.993583  0  0  0.099764  0  1.066037  0  0  0.102815  0  1.065312  0  0  0.089914  0.09754  0  1.066738  0
H  H39  1  0.89424299  0.69170526  0.83378166  1  0  0.095355  0  0.993645  0  0  0.099732  0  1.066094  0  0  0.102782  0  1.065369  0  0  0.089903  0.097508  0  1.066795  0
H  H40  1  0.19171072  0.71290451  0.65989872  1  0  0.099179  0  0.962158  0  0  0.105696  0  1.031637  0  0  0.108283  0  1.031247  0  0  0.097531  0.103776  0  1.032159  0
H  H41  1  0.30828638  0.78709794  0.15990685  1  0  0.099289  0  0.962113  0  0  0.105805  0  1.03159  0  0  0.108394  0  1.031195  0  0  0.097566  0.103889  0  1.032092  0
H  H42  1  0.80829076  0.28709448  0.34009840  1  0  0.099229  0  0.96212  0  0  0.10575  0  1.031603  0  0  0.108337  0  1.031212  0  0  0.097571  0.103835  0  1.03211  0
H  H43  1  0.69170851  0.21290106  0.84009983  1  0  0.099195  0  0.962117  0  0  0.105732  0  1.031582  0  0  0.108324  0  1.031183  0  0  0.097537  0.103812  0  1.032103  0
H  H44  1  0.27973317  0.95795370  0.58723201  1  0  0.092431  0  0.956965  0  0  0.100238  0  1.023071  0  0  0.103249  0  1.020594  0  0  0.090347  0.097944  0  1.02505  0
H  H45  1  0.22026608  0.54204769  0.08723551  1  0  0.092438  0  0.956969  0  0  0.100209  0  1.023107  0  0  0.103221  0  1.02063  0  0  0.090307  0.097914  0  1.025088  0
H  H46  1  0.72026249  0.04204417  0.41276452  1  0  0.092435  0  0.956922  0  0  0.100251  0  1.023019  0  0  0.103265  0  1.02054  0  0  0.090336  0.097955  0  1.024999  0
H  H47  1  0.77973636  0.45795467  0.91276639  1  0  0.092421  0  0.956923  0  0  0.100217  0  1.023039  0  0  0.10323  0  1.02056  0  0  0.090318  0.097924  0  1.025022  0
C  C48  1  0.94368858  0.00545596  0.77081528  1  0  0.113455  0  3.699359  0  0  0.087968  0  3.942941  0  0  0.093885  0  3.963054  0  0  0.037283  0.084195  0  3.929251  0
C  C49  1  0.55632085  0.49455876  0.27081328  1  0  0.113425  0  3.699307  0  0  0.087902  0  3.942898  0  0  0.093819  0  3.96301  0  0  0.037262  0.084113  0  3.929227  0
C  C50  1  0.05631574  0.99454528  0.22918960  1  0  0.113458  0  3.699107  0  0  0.087986  0  3.942677  0  0  0.093902  0  3.96279  0  0  0.037285  0.084201  0  3.928995  0
C  C51  1  0.44367992  0.50544921  0.72918743  1  0  0.113605  0  3.699333  0  0  0.088141  0  3.942876  0  0  0.094059  0  3.96299  0  0  0.037347  0.084353  0  3.9292  0
C  C52  1  0.68474257  0.88889767  0.78425145  1  0  0.111871  0  3.706311  0  0  0.087602  0  3.947973  0  0  0.09302  0  3.968352  0  0  0.035267  0.084173  0  3.934132  0
C  C53  1  0.81526189  0.61111168  0.28425219  1  0  0.112164  0  3.706337  0  0  0.087782  0  3.948023  0  0  0.093201  0  3.968399  0  0  0.035354  0.084358  0  3.934173  0
C  C54  1  0.31525781  0.11110131  0.21574567  1  0  0.11177  0  3.706394  0  0  0.087423  0  3.948109  0  0  0.092841  0  3.968483  0  0  0.035186  0.083996  0  3.934269  0
C  C55  1  0.18474249  0.38889740  0.71575090  1  0  0.111943  0  3.706225  0  0  0.087584  0  3.947916  0  0  0.093003  0  3.96829  0  0  0.035278  0.084162  0  3.93407  0
C  C56  1  0.78771058  0.95302800  0.65287196  1  0  -0.01303  0  3.743478  0  0  -0.029668  0  3.987099  0  0  -0.02634  0  4.004752  0  0  -0.07516  -0.031647  0  3.975175  0
C  C57  1  0.71229005  0.54698168  0.15287011  1  0  -0.013052  0  3.743572  0  0  -0.029717  0  3.987177  0  0  -0.026387  0  4.004833  0  0  -0.075169  -0.031706  0  3.975265  0
C  C58  1  0.21229439  0.04697548  0.34712994  1  0  -0.013182  0  3.743525  0  0  -0.029827  0  3.987172  0  0  -0.026502  0  4.004832  0  0  -0.07523  -0.031814  0  3.975258  0
C  C59  1  0.28770691  0.45302067  0.84713000  1  0  -0.013066  0  3.74348  0  0  -0.029715  0  3.987103  0  0  -0.02639  0  4.004762  0  0  -0.075191  -0.0317  0  3.975183  0
C  C60  1  0.66237184  0.89008230  0.70192120  1  0  -0.126947  0  3.744105  0  0  -0.133321  0  3.982531  0  0  -0.140691  0  4.005871  0  0  -0.090545  -0.128579  0  3.966836  0
C  C61  1  0.83763509  0.60992697  0.20191892  1  0  -0.126977  0  3.744073  0  0  -0.133337  0  3.982537  0  0  -0.140709  0  4.005878  0  0  -0.090521  -0.12859  0  3.966839  0
C  C62  1  0.33763610  0.10992005  0.29807772  1  0  -0.126761  0  3.743859  0  0  -0.133181  0  3.982295  0  0  -0.140554  0  4.005639  0  0  -0.090474  -0.128442  0  3.966608  0
C  C63  1  0.16236833  0.39007875  0.79808059  1  0  -0.126994  0  3.744145  0  0  -0.133377  0  3.982588  0  0  -0.14075  0  4.005931  0  0  -0.090543  -0.128634  0  3.966895  0
C  C64  1  0.36623787  0.07257663  0.77845800  1  0  0.107915  0  3.716722  0  0  0.083935  0  3.957672  0  0  0.089636  0  3.977941  0  0  0.035341  0.080325  0  3.94389  0
C  C65  1  0.13376040  0.42741964  0.27845859  1  0  0.107888  0  3.716705  0  0  0.083935  0  3.95762  0  0  0.089637  0  3.977884  0  0  0.035346  0.080324  0  3.943838  0
C  C66  1  0.63375908  0.92742573  0.22153793  1  0  0.107888  0  3.716867  0  0  0.083868  0  3.957799  0  0  0.089577  0  3.978064  0  0  0.035363  0.080254  0  3.944022  0
C  C67  1  0.86623429  0.57257486  0.72153973  1  0  0.107988  0  3.716554  0  0  0.083988  0  3.957491  0  0  0.089692  0  3.977762  0  0  0.035384  0.080377  0  3.943712  0
C  C68  1  0.93102698  0.01161546  0.68808542  1  0  -0.128261  0  3.760696  0  0  -0.138085  0  4.004435  0  0  -0.145428  0  4.027646  0  0  -0.092268  -0.133368  0  3.98888  0
C  C69  1  0.56897878  0.48839693  0.18808397  1  0  -0.128365  0  3.760824  0  0  -0.138102  0  4.004526  0  0  -0.145445  0  4.027738  0  0  -0.092339  -0.133379  0  3.988973  0
C  C70  1  0.06897986  0.98838689  0.31191827  1  0  -0.128163  0  3.760786  0  0  -0.137993  0  4.004489  0  0  -0.145336  0  4.027699  0  0  -0.092245  -0.133267  0  3.988929  0
C  C71  1  0.43102354  0.51160879  0.81191614  1  0  -0.128391  0  3.76081  0  0  -0.138184  0  4.004501  0  0  -0.145527  0  4.027712  0  0  -0.092322  -0.133457  0  3.988938  0
C  C72  1  0.25692585  0.81587476  0.77510217  1  0  0.11143  0  3.703092  0  0  0.085754  0  3.94666  0  0  0.091617  0  3.966727  0  0  0.036414  0.082053  0  3.932974  0
C  C73  1  0.24306951  0.68411927  0.27510750  1  0  0.111606  0  3.702875  0  0  0.085956  0  3.946412  0  0  0.091811  0  3.966505  0  0  0.036514  0.082235  0  3.932735  0
C  C74  1  0.74307297  0.18412647  0.22489615  1  0  0.111531  0  3.703012  0  0  0.085852  0  3.946551  0  0  0.091716  0  3.966616  0  0  0.036467  0.082144  0  3.93287  0
C  C75  1  0.75692324  0.31586850  0.72489560  1  0  0.111513  0  3.703091  0  0  0.085852  0  3.946677  0  0  0.091715  0  3.966743  0  0  0.036398  0.082154  0  3.932977  0
C  C76  1  0.35375237  0.08345787  0.69589778  1  0  -0.123013  0  3.740248  0  0  -0.130106  0  3.980278  0  0  -0.137533  0  4.002848  0  0  -0.091811  -0.125344  0  3.965153  0
C  C77  1  0.14624585  0.41653719  0.19589951  1  0  -0.122953  0  3.740134  0  0  -0.130057  0  3.980131  0  0  -0.137487  0  4.0027  0  0  -0.091779  -0.125304  0  3.965018  0
C  C78  1  0.64624361  0.91654112  0.30409635  1  0  -0.122905  0  3.740211  0  0  -0.129967  0  3.980215  0  0  -0.137396  0  4.002782  0  0  -0.09173  -0.125211  0  3.965093  0
C  C79  1  0.85375072  0.58345619  0.80410120  1  0  -0.122852  0  3.740394  0  0  -0.129929  0  3.980402  0  0  -0.137356  0  4.002977  0  0  -0.091686  -0.125167  0  3.965277  0
C  C80  1  0.24063968  0.81693767  0.69237528  1  0  -0.126538  0  3.752181  0  0  -0.134829  0  3.995334  0  0  -0.14184  0  4.017763  0  0  -0.090209  -0.130351  0  3.98033  0
C  C81  1  0.25935615  0.68306076  0.19238297  1  0  -0.126668  0  3.752082  0  0  -0.134958  0  3.995232  0  0  -0.141972  0  4.017662  0  0  -0.090162  -0.130473  0  3.980223  0
C  C82  1  0.75935740  0.18306132  0.30762125  1  0  -0.12664  0  3.752231  0  0  -0.13495  0  3.99541  0  0  -0.141962  0  4.017837  0  0  -0.090267  -0.130479  0  3.980412  0
C  C83  1  0.74063777  0.31693486  0.80762131  1  0  -0.126613  0  3.752085  0  0  -0.134907  0  3.995229  0  0  -0.14192  0  4.017656  0  0  -0.090205  -0.130429  0  3.980223  0
C  C84  1  0.29008344  0.95336078  0.65198935  1  0  -0.010829  0  3.742081  0  0  -0.027458  0  3.983836  0  0  -0.023994  0  4.001654  0  0  -0.073859  -0.029493  0  3.971781  0
C  C85  1  0.20991476  0.54664155  0.15199289  1  0  -0.010849  0  3.741977  0  0  -0.02746  0  3.983749  0  0  -0.023994  0  4.001567  0  0  -0.073888  -0.029486  0  3.971684  0
C  C86  1  0.70991429  0.04664046  0.34800598  1  0  -0.010858  0  3.742012  0  0  -0.027515  0  3.983789  0  0  -0.02405  0  4.001606  0  0  -0.073873  -0.029536  0  3.971721  0
C  C87  1  0.79008504  0.45336305  0.84800782  1  0  -0.010899  0  3.74219  0  0  -0.027531  0  3.983966  0  0  -0.024067  0  4.001784  0  0  -0.0739  -0.029568  0  3.971914  0
I  I88  1  0.54878183  0.75501773  0.00306100  1  0  -0.361906  0  1.519387  0  0  -0.286989  0  1.961444  0  0  -0.308409  0  1.926655  0  0  -0.165472  -0.272048  0  1.984849  0
I  I89  1  0.95122212  0.74498640  0.50306769  1  0  -0.361862  0  1.519307  0  0  -0.286969  0  1.961396  0  0  -0.308389  0  1.926611  0  0  -0.165458  -0.272027  0  1.984799  0
I  I90  1  0.45121680  0.24499809  0.99693970  1  0  -0.361925  0  1.519361  0  0  -0.286973  0  1.961351  0  0  -0.308455  0  1.926673  0  0  -0.165461  -0.272035  0  1.984756  0
I  I91  1  0.04878297  0.25499464  0.49693720  1  0  -0.361904  0  1.519297  0  0  -0.286955  0  1.961277  0  0  -0.308436  0  1.926602  0  0  -0.165451  -0.272011  0  1.984673  0
I  I92  1  0.04774019  0.75323510  0.99801329  1  0  -0.36372  0  1.508384  0  0  -0.289312  0  1.946697  0  0  -0.311211  0  1.912932  0  0  -0.172513  -0.274062  0  1.969424  0
I  I93  1  0.45225972  0.74676219  0.49801392  1  0  -0.363766  0  1.508377  0  0  -0.289378  0  1.946697  0  0  -0.311273  0  1.912933  0  0  -0.172525  -0.274115  0  1.969419  0
I  I94  1  0.95225851  0.24676950  0.00198741  1  0  -0.363741  0  1.5085  0  0  -0.289345  0  1.94684  0  0  -0.311237  0  1.913072  0  0  -0.172512  -0.27408  0  1.969554  0
I  I95  1  0.54774221  0.25323456  0.50198380  1  0  -0.363787  0  1.508473  0  0  -0.289405  0  1.946824  0  0  -0.311296  0  1.913055  0  0  -0.172544  -0.274145  0  1.969547  0
N  N96  1  0.31953216  0.94122349  0.81770474  1  0  -0.291485  0  3.287227  0  0  -0.216356  0  3.559734  0  0  -0.234353  0  3.57707  0  0  -0.341032  -0.204262  0  3.54776  0
N  N97  1  0.18046214  0.55877117  0.31770896  1  0  -0.291526  0  3.287196  0  0  -0.216397  0  3.559672  0  0  -0.2344  0  3.577014  0  0  -0.341085  -0.204295  0  3.547702  0
N  N98  1  0.68046195  0.05877663  0.18229119  1  0  -0.291535  0  3.287267  0  0  -0.216349  0  3.559713  0  0  -0.234347  0  3.577047  0  0  -0.341083  -0.204245  0  3.547737  0
N  N99  1  0.81952951  0.44121661  0.68229235  1  0  -0.291585  0  3.287221  0  0  -0.216395  0  3.559661  0  0  -0.234387  0  3.576985  0  0  -0.341031  -0.204299  0  3.547689  0
N  N100  1  0.82273913  0.94528562  0.81848760  1  0  -0.289588  0  3.280854  0  0  -0.213151  0  3.549596  0  0  -0.230848  0  3.566808  0  0  -0.339889  -0.201217  0  3.537672  0
N  N101  1  0.67727117  0.55472536  0.31848642  1  0  -0.289601  0  3.280961  0  0  -0.213127  0  3.549708  0  0  -0.230824  0  3.566919  0  0  -0.339859  -0.201197  0  3.537793  0
N  N102  1  0.17726312  0.05471225  0.18151311  1  0  -0.289477  0  3.280941  0  0  -0.213034  0  3.54968  0  0  -0.23073  0  3.56689  0  0  -0.339829  -0.201103  0  3.537762  0
N  N103  1  0.32273399  0.44528261  0.68151309  1  0  -0.289597  0  3.280855  0  0  -0.213167  0  3.549618  0  0  -0.230864  0  3.566828  0  0  -0.339849  -0.201236  0  3.537703  0
