# generated using pymatgen
data_Hf3H13C13NO16
_symmetry_space_group_name_H-M   'P 1'
_cell_length_a   11.93032775
_cell_length_b   13.73659927
_cell_length_c   23.15725577
_cell_angle_alpha   82.12935814
_cell_angle_beta   75.09848718
_cell_angle_gamma   64.22449700
_symmetry_Int_Tables_number   1
_chemical_formula_structural   Hf3H13C13NO16
_chemical_formula_sum   'Hf12 H52 C52 N4 O64'
_cell_volume   3301.16266940
_cell_formula_units_Z   4
loop_
 _symmetry_equiv_pos_site_id
 _symmetry_equiv_pos_as_xyz
  1  'x, y, z'
loop_
 _atom_site_type_symbol
 _atom_site_label
 _atom_site_symmetry_multiplicity
 _atom_site_fract_x
 _atom_site_fract_y
 _atom_site_fract_z
 _atom_site_occupancy
 _atom_site_pbe_bader_charge
 _atom_site_pbe_bader_spin_density
 _atom_site_pbe_cm5_charge
 _atom_site_pbe_ddec_charge
 _atom_site_pbe_ddec_spin_density
 _atom_site_pbe_ddec_sum_bond_order
 _atom_site_pbe_magmom
Hf  Hf0  1  0.27453960  0.38523194  0.55572102  1  2.599515  0  1.468204  2.128987  0  3.309316  0
Hf  Hf1  1  0.45310182  0.65202201  0.51390626  1  2.598485  0  1.455285  2.095795  0  3.371712  0
Hf  Hf2  1  0.51800797  0.41675598  0.44311427  1  2.611678  0  1.43152  2.141545  0  3.385435  0
Hf  Hf3  1  0.20933317  0.62244847  0.62650144  1  2.621388  0  1.443652  2.149205  0  3.349199  0
Hf  Hf4  1  0.52282284  0.40847466  0.59916493  1  2.602609  0  1.421991  2.136979  0  3.371032  0
Hf  Hf5  1  0.20406815  0.62984088  0.47311482  1  2.608181  0  1.437985  2.159633  0  3.271846  0
Hf  Hf6  1  0.65419752  0.16882916  0.01297880  1  2.598073  0  1.467995  2.128199  0  3.308836  0
Hf  Hf7  1  0.05834404  0.90184056  0.05454623  1  2.599867  0  1.455063  2.094984  0  3.37184  0
Hf  Hf8  1  0.81681978  0.13684641  0.12560656  1  2.610453  0  1.431893  2.141566  0  3.386434  0
Hf  Hf9  1  0.89713282  0.93181991  0.94196082  1  2.618162  0  1.443364  2.149328  0  3.348476  0
Hf  Hf10  1  0.96917519  0.14555212  0.96955169  1  2.600196  0  1.422393  2.137882  0  3.369948  0
Hf  Hf11  1  0.74637595  0.92391617  0.09533972  1  2.607971  0  1.438617  2.160553  0  3.268873  0
H  H12  1  0.46357499  0.21189171  0.24275104  1  0.146044  0  0.119463  0.148794  0  1.001072  0
H  H13  1  0.33739666  0.17520486  0.17127643  1  0.090364  0  0.116221  0.133291  0  1.006579  0
H  H14  1  0.28928251  0.41169270  0.67220521  1  0.596822  0  0.339864  0.425371  0  0.846502  0
H  H15  1  0.68723776  0.45918723  0.50136329  1  0.606608  0  0.336037  0.422044  0  0.850124  0
H  H16  1  0.19463544  0.79192441  0.54378427  1  0.621226  0  0.339635  0.423796  0  0.848492  0
H  H17  1  0.28332712  0.42572173  0.42901814  1  0.59839  0  0.324269  0.400908  0  0.889348  0
H  H18  1  0.70522349  0.20238303  0.56731184  1  0.621091  0  0.325631  0.406142  0  0.87873  0
H  H19  1  0.53974337  0.45001499  0.32587391  1  0.587059  0  0.307318  0.394565  0  0.903346  0
H  H20  1  0.27229914  0.66935718  0.35151880  1  0.602564  0  0.325297  0.407438  0  0.876819  0
H  H21  1  0.52662667  0.45291802  0.70637120  1  0.63465  0  0.312725  0.404126  0  0.901803  0
H  H22  1  0.17149692  0.58801186  0.74657571  1  0.611138  0  0.311344  0.402651  0  0.889355  0
H  H23  1  0.95898938  0.73608590  0.64749483  1  0.604432  0  0.308701  0.397347  0  0.901058  0
H  H24  1  0.99779300  0.83500960  0.49818426  1  0.607576  0  0.32586  0.401926  0  0.879985  0
H  H25  1  0.75284239  0.38372626  0.60810151  1  0.606344  0  0.297083  0.399992  0  0.898504  0
H  H26  1  0.68355858  0.67298930  0.50255678  1  0.639482  0  0.34251  0.427818  0  0.848893  0
H  H27  1  0.10707255  0.35469477  0.50029209  1  0.603348  0  0.323764  0.399317  0  0.888421  0
H  H28  1  0.07661464  0.57310517  0.41504226  1  0.583421  0  0.280198  0.358293  0  0.97923  0
H  H29  1  0.37184452  0.50391627  0.71078805  1  0.659096  0  0.289835  0.399635  0  0.943296  0
H  H30  1  0.57849466  0.73917904  0.55767579  1  0.652302  0  0.335724  0.417789  0  0.873965  0
H  H31  1  0.71830326  0.23242331  0.42275545  1  0.5928  0  0.302645  0.391199  0  0.910528  0
H  H32  1  0.71170795  0.27281675  0.50439771  1  0.655951  0  0.282535  0.396593  0  0.950453  0
H  H33  1  0.01290462  0.76233989  0.56299456  1  0.651562  0  0.281339  0.402262  0  0.944831  0
H  H34  1  0.35526652  0.53804341  0.36124703  1  0.641108  0  0.283957  0.400368  0  0.9469  0
H  H35  1  0.07729939  0.48693083  0.49171408  1  0.653322  0  0.281714  0.401106  0  0.94491  0
H  H36  1  0.22953623  0.86133277  0.83029978  1  0.134447  0  0.122264  0.156717  0  0.994451  0
H  H37  1  0.31848331  0.92677094  0.90828652  1  0.095347  0  0.119597  0.151117  0  0.99708  0
H  H38  1  0.36045881  0.69197462  0.73789994  1  0.162105  0  0.122688  0.157137  0  0.994343  0
H  H39  1  0.59336818  0.62728905  0.66040238  1  0.135734  0  0.119262  0.149935  0  0.996866  0
H  H40  1  0.81147219  0.14269941  0.89644880  1  0.605056  0  0.339421  0.42374  0  0.848513  0
H  H41  1  0.08682016  0.09446689  0.06729689  1  0.598705  0  0.33584  0.421788  0  0.850445  0
H  H42  1  0.96978580  0.76201981  0.02454315  1  0.636953  0  0.339711  0.423863  0  0.848912  0
H  H43  1  0.57717876  0.12802350  0.13963197  1  0.607638  0  0.324623  0.402052  0  0.88658  0
H  H44  1  0.91360811  0.35135749  0.00171507  1  0.600358  0  0.325817  0.406151  0  0.879779  0
H  H45  1  0.75404019  0.10383625  0.24286551  1  0.606395  0  0.307586  0.395245  0  0.902347  0
H  H46  1  0.73345887  0.88401255  0.21685450  1  0.605582  0  0.324773  0.407116  0  0.876593  0
H  H47  1  0.12450925  0.10122590  0.86227601  1  0.639357  0  0.312759  0.404307  0  0.901  0
H  H48  1  0.94428804  0.96660099  0.82189921  1  0.614779  0  0.311859  0.404094  0  0.88733  0
H  H49  1  0.78152539  0.81840012  0.92084576  1  0.595285  0  0.30871  0.396823  0  0.901753  0
H  H50  1  0.77076558  0.71896945  0.07002446  1  0.607129  0  0.325467  0.401261  0  0.881093  0
H  H51  1  0.18347146  0.17009588  0.96066534  1  0.594466  0  0.297148  0.39999  0  0.898542  0
H  H52  1  0.29824369  0.88104089  0.06613591  1  0.659757  0  0.342821  0.428426  0  0.84747  0
H  H53  1  0.40075908  0.19921088  0.06847037  1  0.610504  0  0.323989  0.399659  0  0.888281  0
H  H54  1  0.50442017  0.98050611  0.15363002  1  0.602666  0  0.280653  0.358859  0  0.978231  0
H  H55  1  0.02499959  0.05058072  0.85776692  1  0.651177  0  0.289971  0.399856  0  0.942733  0
H  H56  1  0.31507172  0.81501438  0.01084113  1  0.635794  0  0.336063  0.418076  0  0.87295  0
H  H57  1  0.81292944  0.32078424  0.14634154  1  0.599071  0  0.302761  0.391792  0  0.909688  0
H  H58  1  0.92780883  0.28070382  0.06456753  1  0.637746  0  0.282783  0.396477  0  0.950434  0
H  H59  1  0.77755035  0.79184878  0.00524886  1  0.640817  0  0.281387  0.402437  0  0.944636  0
H  H60  1  0.69390114  0.01541914  0.20729019  1  0.642334  0  0.28401  0.400026  0  0.947192  0
H  H61  1  0.49495106  0.06700566  0.07700623  1  0.649505  0  0.281892  0.401448  0  0.944677  0
H  H62  1  0.35691516  0.34156155  0.32639988  1  0.143232  0  0.119232  0.148092  0  1.001332  0
H  H63  1  0.12224524  0.37885761  0.39758904  1  0.091578  0  0.115976  0.132198  0  1.007522  0
C  C64  1  0.39091993  0.10992791  0.30818205  1  0.339755  0  0.093987  0.15469  0  4.056779  0
C  C65  1  0.40960177  0.16299833  0.25334800  1  0.061965  0  -0.083533  -0.157262  0  3.963649  0
C  C66  1  0.34649363  0.14230772  0.21596279  1  0.010852  0  -0.095313  -0.199918  0  3.98238  0
C  C67  1  0.29136950  0.07371005  0.24688021  1  0.368822  0  0.103  0.170449  0  4.0678  0
C  C68  1  0.44686806  0.20712548  0.63920183  1  1.646218  0  0.245554  0.711132  0  4.174271  0
C  C69  1  0.03881576  0.48046314  0.66675058  1  1.679923  0  0.249419  0.704403  0  4.169849  0
C  C70  1  0.42726375  0.22093506  0.44860580  1  1.666351  0  0.236977  0.688279  0  4.20465  0
C  C71  1  0.67694486  0.56594384  0.39390288  1  1.689997  0  0.242342  0.693014  0  4.203637  0
C  C72  1  0.29312858  0.82433300  0.42385949  1  1.651113  0  0.242577  0.70965  0  4.181847  0
C  C73  1  0.31102997  0.81048211  0.62514660  1  1.655984  0  0.236555  0.683158  0  4.202461  0
C  C74  1  0.33066526  0.94088271  0.76252517  1  0.365148  0  0.090948  0.146821  0  4.079638  0
C  C75  1  0.28934247  0.90523581  0.81981133  1  0.032496  0  -0.078626  -0.157573  0  3.941982  0
C  C76  1  0.33602904  0.93810834  0.86009626  1  0.049662  0  -0.086179  -0.179847  0  3.947527  0
C  C77  1  0.40650071  0.99426580  0.82788090  1  0.401802  0  0.104653  0.172905  0  4.062457  0
C  C78  1  0.47288431  0.61267393  0.80599779  1  0.388424  0  0.09078  0.144748  0  4.081727  0
C  C79  1  0.45358267  0.64825700  0.74862540  1  -0.033587  0  -0.078633  -0.158523  0  3.943155  0
C  C80  1  0.57369131  0.61575508  0.70858075  1  0.012614  0  -0.085295  -0.175242  0  3.945337  0
C  C81  1  0.66787259  0.55976600  0.74102386  1  0.42226  0  0.103963  0.16986  0  4.064158  0
C  C82  1  0.73171155  0.34709907  0.92973495  1  1.636532  0  0.246056  0.712944  0  4.178321  0
C  C83  1  0.62405845  0.07384178  0.90203134  1  1.697833  0  0.249042  0.703574  0  4.172533  0
C  C84  1  0.53569743  0.33287088  0.12026353  1  1.660877  0  0.236054  0.686371  0  4.205926  0
C  C85  1  0.07575234  0.98751534  0.17476957  1  1.697932  0  0.242521  0.693537  0  4.20489  0
C  C86  1  0.98132354  0.72947666  0.14453130  1  1.67754  0  0.244375  0.712931  0  4.177998  0
C  C87  1  0.18571779  0.74356239  0.94328840  1  1.634272  0  0.237312  0.68472  0  4.202225  0
C  C88  1  0.24816364  0.44386265  0.26082469  1  0.377963  0  0.093872  0.157339  0  4.057813  0
C  C89  1  0.26471345  0.39076704  0.31570848  1  0.034048  0  -0.083079  -0.155211  0  3.962917  0
C  C90  1  0.14334029  0.41182108  0.35294779  1  0.021251  0  -0.09535  -0.198558  0  3.981191  0
C  C91  1  0.05073587  0.48066910  0.32190236  1  0.380833  0  0.103673  0.175141  0  4.068386  0
C  C92  1  0.69278573  0.43586942  0.88766578  1  0.380283  0  -0.043193  -0.251936  0  3.963464  0
C  C93  1  0.65829673  0.49416395  0.84528493  1  0.009385  0  0.10143  0.096772  0  4.165458  0
C  C94  1  0.02272208  0.63971845  0.18566874  1  0.326818  0  -0.042133  -0.249841  0  3.97634  0
C  C95  1  0.06239172  0.57276072  0.22410698  1  0.047438  0  0.099055  0.09364  0  4.17259  0
C  C96  1  0.33800704  0.42970991  0.20697248  1  -0.374763  0  -0.027245  -0.061212  0  4.129794  0
C  C97  1  0.42484656  0.40053266  0.16250191  1  0.122612  0  -0.036716  -0.173442  0  3.912921  0
C  C98  1  0.29745162  0.67255074  0.90385326  1  0.195464  0  -0.0412  -0.189047  0  3.942174  0
C  C99  1  0.38489504  0.63696021  0.86028348  1  -0.398152  0  -0.020144  -0.043265  0  4.139912  0
C  C100  1  0.15726901  0.00014315  0.20737221  1  0.294844  0  -0.029434  -0.156913  0  3.905408  0
C  C101  1  0.22031894  0.03064319  0.22811804  1  -0.507039  0  -0.025686  -0.063583  0  4.12758  0
C  C102  1  0.28532662  0.91442307  0.38291656  1  0.290026  0  -0.041208  -0.247819  0  3.977373  0
C  C103  1  0.29677163  0.98146744  0.34463015  1  0.075304  0  0.098359  0.0873  0  4.168441  0
C  C104  1  0.80354289  0.55372150  0.36125424  1  -0.0133  0  -0.028711  -0.155557  0  3.903528  0
C  C105  1  0.91777616  0.52379837  0.34049392  1  -0.211693  0  -0.026663  -0.065146  0  4.128311  0
C  C106  1  0.80033870  0.51634164  0.72055744  1  -0.521706  0  -0.018471  -0.047499  0  4.111689  0
C  C107  1  0.91359571  0.48795156  0.69786450  1  0.306087  0  -0.025566  -0.155226  0  3.891542  0
C  C108  1  0.43590802  0.05998733  0.72362799  1  0.059422  0  0.100269  0.097085  0  4.161318  0
C  C109  1  0.45429459  0.11856599  0.68139761  1  0.321035  0  -0.042411  -0.251369  0  3.95773  0
C  C110  1  0.47471282  0.03774679  0.84861107  1  -0.459216  0  -0.018508  -0.04833  0  4.11131  0
C  C111  1  0.53703763  0.06612482  0.87121616  1  0.254458  0  -0.02515  -0.15395  0  3.892851  0
C  C112  1  0.31294981  0.88108865  0.66462997  1  0.156335  0  -0.040593  -0.187914  0  3.940979  0
C  C113  1  0.32153904  0.91659547  0.70815031  1  -0.365706  0  -0.020144  -0.04416  0  4.137747  0
C  C114  1  0.41291190  0.12388879  0.36204485  1  -0.418979  0  -0.027179  -0.061665  0  4.131153  0
C  C115  1  0.42619789  0.15315881  0.40647401  1  0.199875  0  -0.037554  -0.174803  0  3.91363  0
N  N116  1  0.31888196  0.05327330  0.30383077  1  -1.228707  0  -0.194953  0.027934  0  3.787949  0
N  N117  1  0.40278844  0.99718049  0.76745185  1  -1.24863  0  -0.197428  0.006122  0  3.808182  0
N  N118  1  0.60626038  0.55668963  0.80134736  1  -1.220191  0  -0.197688  0.007605  0  3.808136  0
N  N119  1  0.11511796  0.50095823  0.26503363  1  -1.237585  0  -0.195907  0.012344  0  3.809756  0
O  O120  1  0.10029558  0.41537771  0.52024055  1  -1.253285  0  -0.592364  -0.795948  0  2.081417  0
O  O121  1  0.36012165  0.23744673  0.60957613  1  -1.144734  0  -0.330702  -0.564156  0  2.247667  0
O  O122  1  0.33843211  0.24647183  0.49616653  1  -1.175964  0  -0.339277  -0.593503  0  2.238952  0
O  O123  1  0.06110109  0.55984052  0.67482838  1  -1.165543  0  -0.326072  -0.601275  0  2.293599  0
O  O124  1  0.51331579  0.25615136  0.43115035  1  -1.165633  0  -0.323246  -0.580244  0  2.283975  0
O  O125  1  0.11246089  0.40004714  0.63375939  1  -1.164119  0  -0.329294  -0.56402  0  2.24329  0
O  O126  1  0.52437729  0.24983072  0.63652753  1  -1.160394  0  -0.335258  -0.588121  0  2.261328  0
O  O127  1  0.45378799  0.37763981  0.53117965  1  -1.219576  0  -0.759535  -1.091134  0  2.216393  0
O  O128  1  0.31391527  0.43945181  0.63245569  1  -1.228901  0  -0.65768  -0.986873  0  2.363334  0
O  O129  1  0.30990245  0.44913149  0.45879030  1  -1.238248  0  -0.653053  -0.950019  0  2.320201  0
O  O130  1  0.19174160  0.55169770  0.55448884  1  -1.198629  0  -0.744218  -1.034601  0  2.08302  0
O  O131  1  0.02887449  0.74934513  0.62089027  1  -1.240162  0  -0.635304  -0.881863  0  1.968703  0
O  O132  1  0.70809400  0.27021156  0.55018685  1  -1.277014  0  -0.592804  -0.799332  0  2.075629  0
O  O133  1  0.40811255  0.57457130  0.59170709  1  -1.225165  0  -0.740229  -1.04667  0  2.085014  0
O  O134  1  0.59633716  0.47797906  0.50960824  1  -1.251653  0  -0.629204  -0.93589  0  2.198923  0
O  O135  1  0.40096002  0.58021992  0.46222412  1  -1.216227  0  -0.760556  -1.083135  0  2.216613  0
O  O136  1  0.24213457  0.71450413  0.53901596  1  -1.250717  0  -0.662894  -0.988419  0  2.381374  0
O  O137  1  0.70312625  0.29847767  0.44044295  1  -1.234271  0  -0.650551  -0.898013  0  1.943668  0
O  O138  1  0.64126725  0.49727307  0.38331890  1  -1.152523  0  -0.312327  -0.563254  0  2.28548  0
O  O139  1  0.61779956  0.63926070  0.43293129  1  -1.16887  0  -0.329088  -0.598739  0  2.267099  0
O  O140  1  0.06599045  0.58491287  0.45695018  1  -1.236844  0  -0.645671  -0.88991  0  1.966734  0
O  O141  1  0.37713838  0.79579542  0.45470487  1  -1.137597  0  -0.326566  -0.553611  0  2.256985  0
O  O142  1  0.47323529  0.44172667  0.35788210  1  -1.231439  0  -0.633758  -0.890864  0  1.987047  0
O  O143  1  0.26369692  0.60516946  0.37165013  1  -1.246465  0  -0.593955  -0.80874  0  2.084281  0
O  O144  1  0.01693310  0.76230566  0.51501836  1  -1.259792  0  -0.599267  -0.800778  0  2.053666  0
O  O145  1  0.21684812  0.78072477  0.42489912  1  -1.171361  0  -0.340163  -0.617449  0  2.252777  0
O  O146  1  0.62261293  0.66832000  0.53902487  1  -1.238171  0  -0.560322  -0.744559  0  2.069878  0
O  O147  1  0.23583269  0.59634502  0.71344664  1  -1.253707  0  -0.642915  -0.904963  0  1.960521  0
O  O148  1  0.39191159  0.79010837  0.57419671  1  -1.195454  0  -0.351471  -0.623626  0  2.265986  0
O  O149  1  0.23093560  0.77008533  0.64567620  1  -1.148782  0  -0.313489  -0.542017  0  2.283416  0
O  O150  1  0.45829039  0.43845306  0.69899259  1  -1.278081  0  -0.600361  -0.781821  0  2.101231  0
O  O151  1  0.66307678  0.42132254  0.62635089  1  -1.246535  0  -0.683411  -0.946447  0  1.901212  0
O  O152  1  0.47477122  0.13857482  0.04852463  1  -1.258122  0  -0.592513  -0.796372  0  2.08229  0
O  O153  1  0.64566297  0.31678788  0.95924315  1  -1.157654  0  -0.330791  -0.564839  0  2.250463  0
O  O154  1  0.51972896  0.30747258  0.07271002  1  -1.166396  0  -0.338813  -0.592793  0  2.237864  0
O  O155  1  0.73399699  0.99456903  0.89377786  1  -1.178352  0  -0.325948  -0.601348  0  2.292031  0
O  O156  1  0.63973507  0.29767621  0.13757652  1  -1.164123  0  -0.323157  -0.579692  0  2.28489  0
O  O157  1  0.58448390  0.15426849  0.93497522  1  -1.161805  0  -0.329313  -0.564341  0  2.244035  0
O  O158  1  0.84932339  0.30429417  0.93238897  1  -1.159879  0  -0.335749  -0.588874  0  2.262081  0
O  O159  1  0.80137753  0.17624915  0.03754328  1  -1.219627  0  -0.759196  -1.090944  0  2.216493  0
O  O160  1  0.82435388  0.11483096  0.93617248  1  -1.235463  0  -0.657497  -0.984891  0  2.362373  0
O  O161  1  0.65687540  0.10464455  0.10983688  1  -1.246879  0  -0.653428  -0.951477  0  2.318578  0
O  O162  1  0.73692830  0.00239801  0.01404482  1  -1.198495  0  -0.74422  -1.033727  0  2.081875  0
O  O163  1  0.83819374  0.80493631  0.94744655  1  -1.229037  0  -0.635434  -0.881104  0  1.970475  0
O  O164  1  0.96723767  0.28342265  0.01877512  1  -1.237545  0  -0.593434  -0.799279  0  2.077417  0
O  O165  1  0.01325761  0.97951010  0.97680785  1  -1.222984  0  -0.740219  -1.047561  0  2.086845  0
O  O166  1  0.02291447  0.07573315  0.05906106  1  -1.241866  0  -0.629244  -0.936128  0  2.200304  0
O  O167  1  0.88267776  0.97344436  0.10630686  1  -1.217218  0  -0.760515  -1.082038  0  2.214382  0
O  O168  1  0.93494143  0.83941716  0.02938982  1  -1.269338  0  -0.662825  -0.988543  0  2.380004  0
O  O169  1  0.88128304  0.25475401  0.12849068  1  -1.239813  0  -0.650263  -0.898383  0  1.944006  0
O  O170  1  0.96056888  0.05577044  0.18547478  1  -1.167136  0  -0.31338  -0.563978  0  2.286763  0
O  O171  1  0.12931985  0.91438791  0.13562721  1  -1.175326  0  -0.328368  -0.598044  0  2.267499  0
O  O172  1  0.54713542  0.96887477  0.11167685  1  -1.255066  0  -0.646268  -0.891001  0  1.96505  0
O  O173  1  0.06754776  0.75795769  0.11361485  1  -1.151345  0  -0.327383  -0.554356  0  2.256672  0
O  O174  1  0.71154157  0.11194983  0.21074388  1  -1.249074  0  -0.633852  -0.891362  0  1.986741  0
O  O175  1  0.68029805  0.94814513  0.19683364  1  -1.250061  0  -0.5938  -0.808343  0  2.082359  0
O  O176  1  0.73366541  0.79171666  0.05327196  1  -1.246998  0  -0.599031  -0.800511  0  2.053378  0
O  O177  1  0.86246482  0.77282861  0.14337127  1  -1.186681  0  -0.340332  -0.618496  0  2.249819  0
O  O178  1  0.26915919  0.88573429  0.02962954  1  -1.240114  0  -0.560357  -0.744881  0  2.068863  0
O  O179  1  0.98397109  0.95816682  0.85502172  1  -1.255852  0  -0.64352  -0.906976  0  1.958276  0
O  O180  1  0.19562665  0.76411860  0.99411662  1  -1.190842  0  -0.352339  -0.624435  0  2.265618  0
O  O181  1  0.08563286  0.78410536  0.92276998  1  -1.149731  0  -0.313378  -0.54244  0  2.284797  0
O  O182  1  0.03427413  0.11586589  0.86966041  1  -1.275353  0  -0.600337  -0.781949  0  2.099519  0
O  O183  1  0.14942509  0.13270690  0.94235927  1  -1.23536  0  -0.683665  -0.946673  0  1.901346  0
