# generated using pymatgen
data_PrH5C10O9
_symmetry_space_group_name_H-M   'P 1'
_cell_length_a   6.36975032
_cell_length_b   9.37845261
_cell_length_c   9.66186035
_cell_angle_alpha   88.12019225
_cell_angle_beta   74.61185530
_cell_angle_gamma   76.99153615
_symmetry_Int_Tables_number   1
_chemical_formula_structural   PrH5C10O9
_chemical_formula_sum   'Pr2 H10 C20 O18'
_cell_volume   541.98807754
_cell_formula_units_Z   2
loop_
 _symmetry_equiv_pos_site_id
 _symmetry_equiv_pos_as_xyz
  1  'x, y, z'
loop_
 _atom_site_type_symbol
 _atom_site_label
 _atom_site_symmetry_multiplicity
 _atom_site_fract_x
 _atom_site_fract_y
 _atom_site_fract_z
 _atom_site_occupancy
 _atom_site_hle17_bader_spin_density
 _atom_site_hle17_ddec_charge
 _atom_site_hle17_ddec_spin_density
 _atom_site_hle17_ddec_sum_bond_order
 _atom_site_hle17_magmom
 _atom_site_hse06_10hf_bader_spin_density
 _atom_site_hse06_10hf_ddec_charge
 _atom_site_hse06_10hf_ddec_spin_density
 _atom_site_hse06_10hf_ddec_sum_bond_order
 _atom_site_hse06_10hf_magmom
 _atom_site_hse06_bader_spin_density
 _atom_site_hse06_ddec_charge
 _atom_site_hse06_ddec_spin_density
 _atom_site_hse06_ddec_sum_bond_order
 _atom_site_hse06_magmom
 _atom_site_pbe_bader_spin_density
 _atom_site_pbe_cm5_charge
 _atom_site_pbe_ddec_charge
 _atom_site_pbe_ddec_spin_density
 _atom_site_pbe_ddec_sum_bond_order
 _atom_site_pbe_magmom
Pr  Pr0  1  0.85314390  0.44094860  0.72026016  1  0  2.332936  0  1.608037  0  0  2.219091  0  1.979632  0  0  2.257739  0  1.936742  0  0  1.520841  2.144538  0  2.097085  0
Pr  Pr1  1  0.14686727  0.55904925  0.27973667  1  0  2.332894  0  1.608128  0  0  2.21905  0  1.979743  0  0  2.257701  0  1.936849  0  0  1.520839  2.144502  0  2.0972  0
H  H2  1  0.72045675  0.48972099  0.22034181  1  0  0.458017  0  0.814399  0  0  0.43164  0  0.873176  0  0  0.441343  0  0.858795  0  0  0.323798  0.424558  0  0.883541  0
H  H3  1  0.27954266  0.51027792  0.77965913  1  0  0.458026  0  0.814403  0  0  0.431643  0  0.87318  0  0  0.441346  0  0.858798  0  0  0.323784  0.424559  0  0.883547  0
H  H4  1  0.72833963  0.42634751  0.37223757  1  0  0.455203  0  0.835175  0  0  0.424053  0  0.899093  0  0  0.433823  0  0.884802  0  0  0.313326  0.417144  0  0.909028  0
H  H5  1  0.27165979  0.57365139  0.62776440  1  0  0.455228  0  0.835144  0  0  0.42408  0  0.899059  0  0  0.433849  0  0.88477  0  0  0.313329  0.417169  0  0.908996  0
H  H6  1  0.68184518  0.16010860  0.10504755  1  0  0.131002  0  0.934501  0  0  0.139162  0  0.993934  0  0  0.143751  0  0.990406  0  0  0.119328  0.135424  0  0.997623  0
H  H7  1  0.31815348  0.83989250  0.89495450  1  0  0.131025  0  0.934496  0  0  0.139182  0  0.993929  0  0  0.143773  0  0.990398  0  0  0.119324  0.135444  0  0.997617  0
H  H8  1  0.79855992  0.93508747  0.62530171  1  0  0.117844  0  0.924334  0  0  0.131847  0  0.975993  0  0  0.13548  0  0.974233  0  0  0.118515  0.129184  0  0.977562  0
H  H9  1  0.20144236  0.06491254  0.37469869  1  0  0.117818  0  0.924376  0  0  0.131856  0  0.975993  0  0  0.135489  0  0.974233  0  0  0.118509  0.129193  0  0.977564  0
H  H10  1  0.01632182  0.92585915  0.26043138  1  0  0.423995  0  0.86887  0  0  0.392039  0  0.945055  0  0  0.404676  0  0.927082  0  0  0.318603  0.383284  0  0.957381  0
H  H11  1  0.98367884  0.07414085  0.73957034  1  0  0.423989  0  0.868895  0  0  0.392015  0  0.945096  0  0  0.404655  0  0.927119  0  0  0.318604  0.383259  0  0.957423  0
C  C12  1  0.60241967  0.09078552  0.05711144  1  0  -0.073136  0  3.664842  0  0  -0.112746  0  3.927027  0  0  -0.112266  0  3.944273  0  0  -0.070363  -0.112631  0  3.916618  0
C  C13  1  0.39757811  0.90921338  0.94288979  1  0  -0.073193  0  3.664815  0  0  -0.1128  0  3.926991  0  0  -0.11232  0  3.944237  0  0  -0.070368  -0.112688  0  3.916582  0
C  C14  1  0.34178804  0.29553474  0.41548182  1  0  0.700036  0  3.885936  0  0  0.646211  0  4.193494  0  0  0.681463  0  4.180764  0  0  0.22108  0.624089  0  4.1939  0
C  C15  1  0.65821375  0.70446199  0.58451670  1  0  0.699901  0  3.88609  0  0  0.646107  0  4.193584  0  0  0.681357  0  4.180855  0  0  0.221013  0.623981  0  4.193987  0
C  C16  1  0.42707687  0.14621086  0.46521192  1  0  -0.027218  0  3.678663  0  0  -0.014326  0  3.91753  0  0  -0.016582  0  3.934518  0  0  0.011357  -0.014128  0  3.907095  0
C  C17  1  0.57292702  0.85378917  0.53478406  1  0  -0.02722  0  3.678572  0  0  -0.014272  0  3.91743  0  0  -0.016527  0  3.934418  0  0  0.01131  -0.014064  0  3.906979  0
C  C18  1  0.60922192  0.67908194  0.02493806  1  0  0.754436  0  3.843236  0  0  0.705741  0  4.141679  0  0  0.741432  0  4.127314  0  0  0.251052  0.68119  0  4.148697  0
C  C19  1  0.39077998  0.32091917  0.97506134  1  0  0.754292  0  3.843401  0  0  0.705713  0  4.141656  0  0  0.7414  0  4.127301  0  0  0.251018  0.681161  0  4.148674  0
C  C20  1  0.70302498  0.22054738  0.57988369  1  0  0.674711  0  3.878026  0  0  0.622164  0  4.175284  0  0  0.656239  0  4.165692  0  0  0.21575  0.599833  0  4.177137  0
C  C21  1  0.29697164  0.77945483  0.42011352  1  0  0.674743  0  3.877886  0  0  0.622246  0  4.175136  0  0  0.656319  0  4.165543  0  0  0.21581  0.599914  0  4.176992  0
C  C22  1  0.59750454  0.10923900  0.53594132  1  0  -0.05435  0  3.702366  0  0  -0.043207  0  3.941711  0  0  -0.047903  0  3.960413  0  0  -0.002036  -0.041119  0  3.930718  0
C  C23  1  0.40249648  0.89075992  0.46405727  1  0  -0.054274  0  3.70218  0  0  -0.043289  0  3.941726  0  0  -0.047985  0  3.960429  0  0  -0.001999  -0.041203  0  3.930732  0
C  C24  1  0.66777369  0.96325502  0.56951957  1  0  -0.067439  0  3.676476  0  0  -0.105464  0  3.934364  0  0  -0.105525  0  3.952403  0  0  -0.069287  -0.104955  0  3.924115  0
C  C25  1  0.33222657  0.03674609  0.43047909  1  0  -0.06743  0  3.676437  0  0  -0.105436  0  3.934374  0  0  -0.105496  0  3.952409  0  0  -0.069291  -0.104926  0  3.92413  0
C  C26  1  0.83271237  0.87768554  0.14874217  1  0  0.690378  0  3.773212  0  0  0.638806  0  4.074206  0  0  0.672706  0  4.064599  0  0  0.253125  0.615089  0  4.07981  0
C  C27  1  0.16729105  0.12231119  0.85125813  1  0  0.690464  0  3.773082  0  0  0.638812  0  4.074195  0  0  0.672716  0  4.064586  0  0  0.253114  0.615093  0  4.079795  0
C  C28  1  0.66085457  0.93844121  0.07174491  1  0  -0.074588  0  3.71267  0  0  -0.062939  0  3.953099  0  0  -0.069689  0  3.974602  0  0  -0.004842  -0.058439  0  3.940525  0
C  C29  1  0.33914446  0.06155880  0.92825503  1  0  -0.074541  0  3.712588  0  0  -0.062888  0  3.953068  0  0  -0.06964  0  3.974569  0  0  -0.004818  -0.058385  0  3.94049  0
C  C30  1  0.55748600  0.84498933  0.01435988  1  0  -0.028845  0  3.634462  0  0  -0.01855  0  3.872066  0  0  -0.020245  0  3.889444  0  0  0.011225  -0.018867  0  3.861983  0
C  C31  1  0.44251265  0.15501177  0.98564113  1  0  -0.028775  0  3.634402  0  0  -0.018514  0  3.871984  0  0  -0.020207  0  3.889361  0  0  0.01124  -0.018833  0  3.861901  0
O  O32  1  0.45241534  0.34025550  0.30076435  1  0  -0.662947  0  2.0084  0  0  -0.616707  0  2.248373  0  0  -0.640479  0  2.238785  0  0  -0.351422  -0.596171  0  2.254547  0
O  O33  1  0.54759231  0.65974781  0.69923501  1  0  -0.662894  0  2.008458  0  0  -0.616652  0  2.248389  0  0  -0.640421  0  2.2388  0  0  -0.351375  -0.596115  0  2.254562  0
O  O34  1  0.84829654  0.18024862  0.65154619  1  0  -0.736848  0  2.132557  0  0  -0.684094  0  2.380817  0  0  -0.710224  0  2.37141  0  0  -0.367781  -0.662168  0  2.38664  0
O  O35  1  0.15169235  0.81975245  0.34845759  1  0  -0.736889  0  2.132538  0  0  -0.684129  0  2.380766  0  0  -0.710262  0  2.371363  0  0  -0.367826  -0.662205  0  2.386591  0
O  O36  1  0.64702541  0.35430597  0.54969297  1  0  -0.662157  0  2.020805  0  0  -0.606001  0  2.253089  0  0  -0.628703  0  2.243302  0  0  -0.328937  -0.586929  0  2.259  0
O  O37  1  0.35297286  0.64569623  0.45030807  1  0  -0.662174  0  2.020691  0  0  -0.606023  0  2.252976  0  0  -0.62872  0  2.24318  0  0  -0.328961  -0.586949  0  2.258889  0
O  O38  1  0.89883382  0.74334297  0.16037208  1  0  -0.648394  0  2.015972  0  0  -0.606558  0  2.260991  0  0  -0.626257  0  2.249237  0  0  -0.333373  -0.58736  0  2.27082  0
O  O39  1  0.10116484  0.25665813  0.83962997  1  0  -0.648534  0  2.015807  0  0  -0.60666  0  2.26086  0  0  -0.626364  0  2.249115  0  0  -0.333463  -0.587458  0  2.270676  0
O  O40  1  0.14542566  0.36770779  0.48136841  1  0  -0.794434  0  2.088795  0  0  -0.748302  0  2.351825  0  0  -0.771991  0  2.339317  0  0  -0.416732  -0.721214  0  2.358326  0
O  O41  1  0.85457371  0.63229115  0.51862530  1  0  -0.794395  0  2.088901  0  0  -0.748272  0  2.351911  0  0  -0.771966  0  2.339414  0  0  -0.416706  -0.721185  0  2.35841  0
O  O42  1  0.76454085  0.60646228  0.92661211  1  0  -0.707936  0  2.006037  0  0  -0.66613  0  2.252745  0  0  -0.689677  0  2.238734  0  0  -0.386231  -0.642058  0  2.263813  0
O  O43  1  0.23545782  0.39353881  0.07339201  1  0  -0.707927  0  2.005989  0  0  -0.666156  0  2.25264  0  0  -0.689703  0  2.238634  0  0  -0.386245  -0.642084  0  2.263709  0
O  O44  1  0.90840639  0.97702755  0.20370038  1  0  -0.534069  0  2.082545  0  0  -0.482532  0  2.294835  0  0  -0.505202  0  2.279362  0  0  -0.310114  -0.466734  0  2.305828  0
O  O45  1  0.09159589  0.02297246  0.79630002  1  0  -0.534073  0  2.08257  0  0  -0.482489  0  2.294875  0  0  -0.505166  0  2.279405  0  0  -0.310078  -0.46669  0  2.30586  0
O  O46  1  0.48756368  0.62377677  0.12939999  1  0  -0.756046  0  2.03228  0  0  -0.71298  0  2.28727  0  0  -0.737256  0  2.273495  0  0  -0.388095  -0.688719  0  2.29831  0
O  O47  1  0.51243296  0.37622542  0.87060134  1  0  -0.755987  0  2.032398  0  0  -0.712943  0  2.28728  0  0  -0.737215  0  2.27351  0  0  -0.388061  -0.688683  0  2.29832  0
O  O48  1  0.18118917  0.53879310  0.71606318  1  0  -0.910128  0  1.853352  0  0  -0.870217  0  2.045639  0  0  -0.886649  0  2.013593  0  0  -0.648741  -0.852841  0  2.071147  0
O  O49  1  0.81880947  0.46120800  0.28393680  1  0  -0.910095  0  1.853376  0  0  -0.870182  0  2.045676  0  0  -0.886616  0  2.01363  0  0  -0.648748  -0.852807  0  2.07118  0
