# generated using pymatgen
data_ZnH14C14N8O3
_symmetry_space_group_name_H-M   'P 1'
_cell_length_a   8.74004488
_cell_length_b   10.14893678
_cell_length_c   18.82579368
_cell_angle_alpha   89.99996435
_cell_angle_beta   89.99987444
_cell_angle_gamma   90.00000431
_symmetry_Int_Tables_number   1
_chemical_formula_structural   ZnH14C14N8O3
_chemical_formula_sum   'Zn4 H56 C56 N32 O12'
_cell_volume   1669.88861909
_cell_formula_units_Z   4
loop_
 _symmetry_equiv_pos_site_id
 _symmetry_equiv_pos_as_xyz
  1  'x, y, z'
loop_
 _atom_site_type_symbol
 _atom_site_label
 _atom_site_symmetry_multiplicity
 _atom_site_fract_x
 _atom_site_fract_y
 _atom_site_fract_z
 _atom_site_occupancy
 _atom_site_pbe_bader_charge
 _atom_site_pbe_bader_spin_density
 _atom_site_pbe_cm5_charge
 _atom_site_pbe_ddec_charge
 _atom_site_pbe_ddec_spin_density
 _atom_site_pbe_ddec_sum_bond_order
 _atom_site_pbe_magmom
Zn  Zn0  1  0.13759402  0.02926776  0.59813832  1  1.218885  0  0.728855  0.70253  0  2.541292  0
Zn  Zn1  1  0.63759538  0.97072907  0.40186144  1  1.218881  0  0.72883  0.702514  0  2.541309  0
Zn  Zn2  1  0.13759405  0.47072808  0.09813861  1  1.21886  0  0.728835  0.702522  0  2.541348  0
Zn  Zn3  1  0.63759420  0.52926875  0.90186063  1  1.218827  0  0.728845  0.702531  0  2.541307  0
H  H4  1  0.82748311  0.95224529  0.53388128  1  0.136184  0  0.128737  0.086674  0  1.029899  0
H  H5  1  0.32748122  0.04775253  0.46611775  1  0.13618  0  0.128737  0.086668  0  1.029902  0
H  H6  1  0.82748082  0.54775197  0.03388065  1  0.136186  0  0.128739  0.086668  0  1.02992  0
H  H7  1  0.32748122  0.45224684  0.96611838  1  0.136154  0  0.128731  0.086642  0  1.029937  0
H  H8  1  0.25755501  0.38573872  0.38453445  1  0.108735  0  0.114991  0.057228  0  1.040333  0
H  H9  1  0.75755077  0.61426008  0.61546412  1  0.108767  0  0.115014  0.057287  0  1.040296  0
H  H10  1  0.25755269  0.11426271  0.88453467  1  0.108747  0  0.114994  0.057215  0  1.040371  0
H  H11  1  0.75755194  0.88573905  0.11546338  1  0.108769  0  0.115013  0.057307  0  1.040277  0
H  H12  1  0.82930522  0.31073588  0.26022493  1  0.508677  0  0.299924  0.321003  0  0.977795  0
H  H13  1  0.32930212  0.68926293  0.73977463  1  0.508685  0  0.299901  0.321021  0  0.977779  0
H  H14  1  0.82930405  0.18926376  0.76022512  1  0.50869  0  0.299915  0.321017  0  0.977775  0
H  H15  1  0.32930442  0.81073505  0.23977497  1  0.508696  0  0.299908  0.321009  0  0.977787  0
H  H16  1  0.71352766  0.20131552  0.30975015  1  0.525158  0  0.297784  0.306658  0  0.99441  0
H  H17  1  0.21352594  0.79868427  0.69024954  1  0.525131  0  0.297794  0.30666  0  0.994444  0
H  H18  1  0.71352651  0.29868406  0.80975030  1  0.525141  0  0.297787  0.306663  0  0.99435  0
H  H19  1  0.21352710  0.70131376  0.19025045  1  0.525134  0  0.297808  0.306678  0  0.994475  0
H  H20  1  0.96617880  0.68263272  0.69916778  1  0.133776  0  0.115602  0.129649  0  1.015708  0
H  H21  1  0.46617884  0.31737102  0.30083324  1  0.133777  0  0.115592  0.129608  0  1.015688  0
H  H22  1  0.96617882  0.81737027  0.19916653  1  0.133829  0  0.115596  0.129623  0  1.015676  0
H  H23  1  0.46617653  0.18262658  0.80083183  1  0.13379  0  0.115616  0.129661  0  1.015606  0
H  H24  1  0.84857851  0.52395496  0.78491777  1  0.110986  0  0.118914  0.08665  0  1.003599  0
H  H25  1  0.34857782  0.47604779  0.21508124  1  0.110966  0  0.118939  0.086688  0  1.003544  0
H  H26  1  0.84858084  0.97604694  0.28491753  1  0.110959  0  0.118931  0.086663  0  1.003556  0
H  H27  1  0.34857436  0.02394990  0.71508149  1  0.110939  0  0.118985  0.086705  0  1.00354  0
H  H28  1  0.59767913  0.82312220  0.88219502  1  0.138337  0  0.121305  0.097177  0  1.011069  0
H  H29  1  0.09768573  0.17687167  0.11780425  1  0.13838  0  0.121322  0.097196  0  1.01105  0
H  H30  1  0.59768486  0.67687563  0.38219488  1  0.138376  0  0.121322  0.097183  0  1.01107  0
H  H31  1  0.09768343  0.32312316  0.61780280  1  0.138331  0  0.121349  0.097183  0  1.011104  0
H  H32  1  0.70410212  0.99169261  0.80087991  1  0.10404  0  0.114127  0.122737  0  1.017647  0
H  H33  1  0.20411176  0.00830618  0.19912138  1  0.104025  0  0.114086  0.122718  0  1.017675  0
H  H34  1  0.70410669  0.50830827  0.30087929  1  0.104067  0  0.114106  0.122737  0  1.017656  0
H  H35  1  0.20410948  0.49169053  0.69911774  1  0.104066  0  0.114108  0.122726  0  1.017668  0
H  H36  1  0.78677402  0.03905775  0.97520840  1  0.467479  0  0.311045  0.275619  0  0.963143  0
H  H37  1  0.28676739  0.96095189  0.02479439  1  0.467509  0  0.311068  0.275693  0  0.963116  0
H  H38  1  0.78677291  0.46094459  0.47520710  1  0.467496  0  0.311049  0.275638  0  0.963121  0
H  H39  1  0.28676621  0.53905224  0.52479357  1  0.467533  0  0.311053  0.275684  0  0.963142  0
H  H40  1  0.36474871  0.19884547  0.00006511  1  0.492955  0  0.287518  0.244976  0  1.055287  0
H  H41  1  0.86474270  0.80116418  0.99993601  1  0.492816  0  0.287568  0.245046  0  1.055259  0
H  H42  1  0.36474755  0.30115443  0.50006420  1  0.492947  0  0.287521  0.245011  0  1.055242  0
H  H43  1  0.86474157  0.69884241  0.49993533  1  0.492893  0  0.287532  0.245032  0  1.05527  0
H  H44  1  0.51238840  0.21992249  0.12392435  1  0.056904  0  0.094596  0.068875  0  1.018056  0
H  H45  1  0.01238467  0.78008319  0.87607820  1  0.05696  0  0.094631  0.068994  0  1.018021  0
H  H46  1  0.51238838  0.28007629  0.62392345  1  0.056936  0  0.094617  0.068908  0  1.018056  0
H  H47  1  0.01238468  0.71992249  0.37607698  1  0.056931  0  0.094624  0.068934  0  1.018072  0
H  H48  1  0.56782763  0.33603716  0.05763865  1  0.025314  0  0.090986  0.062824  0  1.002129  0
H  H49  1  0.06782015  0.66397247  0.94236596  1  0.025384  0  0.091012  0.062934  0  1.002103  0
H  H50  1  0.56782761  0.16396269  0.55763673  1  0.025304  0  0.090996  0.062852  0  1.002114  0
H  H51  1  0.06782475  0.83603314  0.44236470  1  0.025296  0  0.091017  0.062915  0  1.002109  0
H  H52  1  0.81131834  0.23256228  0.06914988  1  0.07687  0  0.100116  0.081959  0  1.002758  0
H  H53  1  0.31131321  0.76744441  0.93085661  1  0.077035  0  0.100096  0.08185  0  1.002744  0
H  H54  1  0.81131947  0.26743757  0.56914738  1  0.076871  0  0.10012  0.081936  0  1.002696  0
H  H55  1  0.31131437  0.73255631  0.43085326  1  0.076997  0  0.100141  0.081901  0  1.002756  0
H  H56  1  0.73143079  0.08527294  0.10404037  1  0.023301  0  0.098172  0.071335  0  1.005938  0
H  H57  1  0.23142927  0.91473079  0.89596301  1  0.023537  0  0.098201  0.071326  0  1.005927  0
H  H58  1  0.73143193  0.41472588  0.60403942  1  0.023332  0  0.098189  0.071337  0  1.005911  0
H  H59  1  0.23142584  0.58526996  0.39596184  1  0.023534  0  0.098168  0.071294  0  1.005946  0
C  C60  1  0.87974833  0.02756815  0.50071097  1  1.014073  0  0.140205  0.173894  0  3.997377  0
C  C61  1  0.37974751  0.97243164  0.49928801  1  1.014068  0  0.140178  0.173892  0  3.997448  0
C  C62  1  0.87974722  0.47243080  0.00071178  1  1.01406  0  0.140199  0.173915  0  3.997433  0
C  C63  1  0.37974633  0.52756703  0.99928773  1  1.014042  0  0.140217  0.173955  0  3.997311  0
C  C64  1  0.15894451  0.32182758  0.39403584  1  1.047513  0  0.15171  0.234875  0  4.075668  0
C  C65  1  0.65894146  0.67817121  0.60596337  1  1.047519  0  0.15165  0.234725  0  4.075805  0
C  C66  1  0.15894449  0.17817087  0.89403656  1  1.0475  0  0.151708  0.234839  0  4.075706  0
C  C67  1  0.65894149  0.82182694  0.10596265  1  1.047546  0  0.151649  0.234719  0  4.075775  0
C  C68  1  0.92534913  0.24377414  0.35223589  1  1.109512  0  0.234106  0.404049  0  4.143371  0
C  C69  1  0.42534646  0.75622665  0.64776304  1  1.109451  0  0.234062  0.403999  0  4.143486  0
C  C70  1  0.92534683  0.25622540  0.85223659  1  1.109489  0  0.234053  0.403959  0  4.143549  0
C  C71  1  0.42534648  0.74377242  0.14776182  1  1.109442  0  0.23405  0.403963  0  4.143448  0
C  C72  1  0.92074260  0.16190937  0.41329575  1  0.376804  0  0.071438  -0.045769  0  4.018085  0
C  C73  1  0.42073908  0.83808944  0.58670319  1  0.376871  0  0.071512  -0.04571  0  4.018141  0
C  C74  1  0.92074031  0.33808813  0.91329642  1  0.376793  0  0.071474  -0.045685  0  4.018102  0
C  C75  1  0.42073909  0.66190871  0.08670305  1  0.376866  0  0.071508  -0.045668  0  4.018049  0
C  C76  1  0.04259826  0.17173694  0.46187848  1  0.942549  0  0.201768  0.292412  0  4.128218  0
C  C77  1  0.54259669  0.82826283  0.53812085  1  0.942499  0  0.20176  0.292346  0  4.128275  0
C  C78  1  0.04259596  0.32826143  0.96187916  1  0.942551  0  0.201767  0.292325  0  4.128285  0
C  C79  1  0.54259670  0.67173736  0.03812017  1  0.942515  0  0.201749  0.292261  0  4.128272  0
C  C80  1  0.91512989  0.94759447  0.69375604  1  1.588182  0  0.211587  0.569223  0  4.204473  0
C  C81  1  0.41513560  0.05240632  0.30624450  1  1.588283  0  0.211583  0.569235  0  4.204451  0
C  C82  1  0.91513332  0.55240655  0.19375594  1  1.58825  0  0.211633  0.569295  0  4.204519  0
C  C83  1  0.41513332  0.44759226  0.80624194  1  1.588267  0  0.211581  0.569257  0  4.204622  0
C  C84  1  0.88711962  0.71708458  0.73985614  1  0.001276  0  -0.070519  -0.133541  0  3.931887  0
C  C85  1  0.38712213  0.28291719  0.26014390  1  0.001228  0  -0.07052  -0.133535  0  3.931835  0
C  C86  1  0.88712192  0.78291639  0.23985596  1  0.001371  0  -0.070517  -0.133569  0  3.93182  0
C  C87  1  0.38711868  0.21707947  0.76014248  1  0.001198  0  -0.070523  -0.133529  0  3.93174  0
C  C88  1  0.84591731  0.85011329  0.74433616  1  -0.092975  0  0.009008  0.01566  0  3.93851  0
C  C89  1  0.34592098  0.14988847  0.25566498  1  -0.093064  0  0.009038  0.015793  0  3.938339  0
C  C90  1  0.84591846  0.64988866  0.24433497  1  -0.093253  0  0.009088  0.015889  0  3.938527  0
C  C91  1  0.34592097  0.35010917  0.75566246  1  -0.09297  0  0.008997  0.015692  0  3.938415  0
C  C92  1  0.82118621  0.62881816  0.78676311  1  0.487245  0  0.052974  0.09722  0  3.931883  0
C  C93  1  0.32118666  0.37118163  0.21323593  1  0.487264  0  0.052946  0.097163  0  3.931889  0
C  C94  1  0.82118738  0.87118275  0.28676290  1  0.487234  0  0.052969  0.097209  0  3.931844  0
C  C95  1  0.32118434  0.12881606  0.71323508  1  0.487302  0  0.052925  0.097136  0  3.931945  0
C  C96  1  0.67944196  0.79530355  0.84109606  1  0.411281  0  0.05845  0.105094  0  3.902012  0
C  C97  1  0.17944609  0.20469328  0.15890366  1  0.411296  0  0.058434  0.105115  0  3.901989  0
C  C98  1  0.67944426  0.70469532  0.34109590  1  0.411243  0  0.058402  0.105102  0  3.901927  0
C  C99  1  0.17944379  0.29530347  0.65890222  1  0.411303  0  0.05841  0.10502  0  3.902107  0
C  C100  1  0.73942003  0.88941885  0.79538001  1  0.100234  0  -0.06641  -0.119349  0  3.905822  0
C  C101  1  0.23942736  0.11057896  0.20462018  1  0.100239  0  -0.066392  -0.119373  0  3.905778  0
C  C102  1  0.73942461  0.61058204  0.29537936  1  0.100208  0  -0.066427  -0.11947  0  3.905986  0
C  C103  1  0.23942393  0.38941774  0.70461764  1  0.100248  0  -0.066381  -0.119281  0  3.905767  0
C  C104  1  0.55939858  0.23014822  0.07021132  1  0.3059  0  -0.061344  -0.007412  0  3.8781  0
C  C105  1  0.05939345  0.76986140  0.92979277  1  0.305302  0  -0.061586  -0.00801  0  3.878463  0
C  C106  1  0.55939742  0.26985161  0.57020936  1  0.305719  0  -0.061383  -0.007504  0  3.878098  0
C  C107  1  0.05939461  0.73014422  0.42979102  1  0.305779  0  -0.061496  -0.007768  0  3.878311  0
C  C108  1  0.56046856  0.09848664  0.96821810  1  1.819012  0  0.311973  0.616751  0  4.231374  0
C  C109  1  0.06046419  0.90151609  0.03177802  1  1.819052  0  0.311961  0.616585  0  4.231484  0
C  C110  1  0.56046859  0.40151078  0.46821735  1  1.818943  0  0.311939  0.616712  0  4.231529  0
C  C111  1  0.06046187  0.59848210  0.53178196  1  1.818948  0  0.311915  0.616602  0  4.231648  0
C  C112  1  0.71670327  0.16234803  0.06356770  1  0.33078  0  -0.058068  -0.014696  0  3.876962  0
C  C113  1  0.21669812  0.83766062  0.93643729  1  0.330383  0  -0.058035  -0.014381  0  3.876865  0
C  C114  1  0.71670212  0.33765281  0.56356572  1  0.330729  0  -0.058049  -0.014585  0  3.876781  0
C  C115  1  0.21669813  0.66234205  0.43643503  1  0.330499  0  -0.058035  -0.014361  0  3.876842  0
N  N116  1  0.01394038  0.08602153  0.51711549  1  -1.286008  0  -0.381132  -0.392306  0  3.579569  0
N  N117  1  0.51393907  0.91397726  0.48288387  1  -1.286032  0  -0.381143  -0.392325  0  3.579692  0
N  N118  1  0.01393927  0.41397636  0.01711633  1  -1.286017  0  -0.381147  -0.392328  0  3.579683  0
N  N119  1  0.51393904  0.58602144  0.98288303  1  -1.286027  0  -0.381136  -0.392274  0  3.579513  0
N  N120  1  0.16579216  0.25052944  0.45406997  1  -1.255902  0  -0.342682  -0.409789  0  3.331704  0
N  N121  1  0.66579054  0.74947034  0.54592923  1  -1.255883  0  -0.342658  -0.409699  0  3.331758  0
N  N122  1  0.16578985  0.24946994  0.95407120  1  -1.255877  0  -0.342688  -0.40973  0  3.3317  0
N  N123  1  0.66579056  0.75052985  0.04592853  1  -1.255922  0  -0.342675  -0.409716  0  3.331855  0
N  N124  1  0.81865954  0.06878728  0.43918689  1  -1.250683  0  -0.371924  -0.331722  0  3.568729  0
N  N125  1  0.31865729  0.93121251  0.56081162  1  -1.250709  0  -0.371944  -0.331742  0  3.568823  0
N  N126  1  0.81865725  0.43121314  0.93918806  1  -1.250676  0  -0.371922  -0.331736  0  3.568754  0
N  N127  1  0.31865614  0.56878468  0.06081205  1  -1.250757  0  -0.371961  -0.331765  0  3.568789  0
N  N128  1  0.04864313  0.32360809  0.34461859  1  -1.224979  0  -0.350366  -0.427727  0  3.266323  0
N  N129  1  0.54864100  0.67639070  0.65538126  1  -1.224944  0  -0.350349  -0.427657  0  3.266289  0
N  N130  1  0.04864196  0.17639140  0.84461878  1  -1.224938  0  -0.350368  -0.427678  0  3.26629  0
N  N131  1  0.54864102  0.82360739  0.15538054  1  -1.224888  0  -0.350309  -0.427633  0  3.266302  0
N  N132  1  0.81737727  0.24463238  0.30108538  1  -1.331164  0  -0.567232  -0.605245  0  3.324026  0
N  N133  1  0.31737550  0.75536741  0.69891313  1  -1.331114  0  -0.567201  -0.605272  0  3.324183  0
N  N134  1  0.81737725  0.25536820  0.80108714  1  -1.331155  0  -0.567199  -0.605241  0  3.324085  0
N  N135  1  0.31737552  0.74463159  0.19891350  1  -1.331101  0  -0.567233  -0.605267  0  3.324171  0
N  N136  1  0.72056876  0.66768427  0.83683169  1  -1.245953  0  -0.337986  -0.231278  0  3.630516  0
N  N137  1  0.22057287  0.33231256  0.16316745  1  -1.24593  0  -0.337993  -0.231304  0  3.630634  0
N  N138  1  0.72057336  0.83231461  0.33683150  1  -1.245935  0  -0.337974  -0.231286  0  3.630524  0
N  N139  1  0.22056942  0.16768419  0.66316765  1  -1.246021  0  -0.338007  -0.231247  0  3.6306  0
N  N140  1  0.70883274  0.10645199  0.99218727  1  -1.212376  0  -0.439307  -0.416542  0  3.468969  0
N  N141  1  0.20882046  0.89356060  0.00781667  1  -1.21202  0  -0.439366  -0.416595  0  3.469385  0
N  N142  1  0.70883162  0.39355132  0.49218599  1  -1.212346  0  -0.439346  -0.416577  0  3.469012  0
N  N143  1  0.20882615  0.60644551  0.50781477  1  -1.212362  0  -0.439377  -0.416736  0  3.469107  0
N  N144  1  0.46707537  0.15993006  0.01751931  1  -1.204828  0  -0.446588  -0.436937  0  3.455829  0
N  N145  1  0.96706487  0.84008157  0.98248277  1  -1.204721  0  -0.44636  -0.436539  0  3.45583  0
N  N146  1  0.46707307  0.34007180  0.51751839  1  -1.204595  0  -0.446578  -0.436961  0  3.455814  0
N  N147  1  0.96706831  0.65992406  0.48248157  1  -1.204588  0  -0.446485  -0.436789  0  3.455793  0
O  O148  1  0.03407499  0.90220251  0.66007665  1  -1.180863  0  -0.327601  -0.541704  0  2.35761  0
O  O149  1  0.53407885  0.09779825  0.33992322  1  -1.180946  0  -0.327577  -0.541711  0  2.357688  0
O  O150  1  0.03407843  0.59779652  0.16007706  1  -1.18091  0  -0.327612  -0.541731  0  2.357608  0
O  O151  1  0.53407771  0.40220030  0.83992175  1  -1.180902  0  -0.327577  -0.541732  0  2.357579  0
O  O152  1  0.85919881  0.05960293  0.68558445  1  -1.17203  0  -0.310327  -0.536823  0  2.129596  0
O  O153  1  0.35919884  0.94039883  0.31441668  1  -1.171971  0  -0.310341  -0.536859  0  2.129527  0
O  O154  1  0.85919884  0.44039975  0.18558369  1  -1.171962  0  -0.310354  -0.536891  0  2.129676  0
O  O155  1  0.35920110  0.55959906  0.81441372  1  -1.172063  0  -0.310365  -0.536876  0  2.129757  0
O  O156  1  0.51681560  0.04484459  0.91224493  1  -1.204176  0  -0.334395  -0.574249  0  2.102113  0
O  O157  1  0.01679952  0.95517882  0.08775815  1  -1.204089  0  -0.334456  -0.574329  0  2.101496  0
O  O158  1  0.51681220  0.45516076  0.41224416  1  -1.2042  0  -0.334368  -0.574247  0  2.102162  0
O  O159  1  0.01680407  0.54483901  0.58775679  1  -1.204295  0  -0.334357  -0.574157  0  2.102128  0
