# generated using pymatgen
data_YbH11C16N2O5
_symmetry_space_group_name_H-M   'P 1'
_cell_length_a   8.23334240
_cell_length_b   13.92331596
_cell_length_c   13.92094774
_cell_angle_alpha   84.99789055
_cell_angle_beta   72.81622141
_cell_angle_gamma   72.79733584
_symmetry_Int_Tables_number   1
_chemical_formula_structural   YbH11C16N2O5
_chemical_formula_sum   'Yb4 H44 C64 N8 O20'
_cell_volume   1456.39547713
_cell_formula_units_Z   4
loop_
 _symmetry_equiv_pos_site_id
 _symmetry_equiv_pos_as_xyz
  1  'x, y, z'
loop_
 _atom_site_type_symbol
 _atom_site_label
 _atom_site_symmetry_multiplicity
 _atom_site_fract_x
 _atom_site_fract_y
 _atom_site_fract_z
 _atom_site_occupancy
 _atom_site_hle17_bader_spin_density
 _atom_site_hle17_ddec_charge
 _atom_site_hle17_ddec_spin_density
 _atom_site_hle17_ddec_sum_bond_order
 _atom_site_hle17_magmom
 _atom_site_hse06_10hf_bader_spin_density
 _atom_site_hse06_10hf_ddec_charge
 _atom_site_hse06_10hf_ddec_spin_density
 _atom_site_hse06_10hf_ddec_sum_bond_order
 _atom_site_hse06_10hf_magmom
 _atom_site_hse06_bader_spin_density
 _atom_site_hse06_ddec_charge
 _atom_site_hse06_ddec_spin_density
 _atom_site_hse06_ddec_sum_bond_order
 _atom_site_hse06_magmom
 _atom_site_pbe_bader_spin_density
 _atom_site_pbe_cm5_charge
 _atom_site_pbe_ddec_charge
 _atom_site_pbe_ddec_spin_density
 _atom_site_pbe_ddec_sum_bond_order
 _atom_site_pbe_magmom
C  C0  1  0.84500038  0.15261457  0.72009522  1  0  -0.095254  0  3.717237  0  0  -0.075857  0  3.948681  0  0  -0.08026  0  3.964732  0  0  -0.010936  -0.072602  0  3.936564  0
C  C1  1  0.43581172  0.72044292  0.84730767  1  0  -0.099351  0  3.718343  0  0  -0.079533  0  3.949456  0  0  -0.084047  0  3.965654  0  0  -0.012269  -0.076073  0  3.937061  0
C  C2  1  0.71674412  0.84726174  0.27973814  1  0  -0.09837  0  3.718535  0  0  -0.079105  0  3.948947  0  0  -0.083643  0  3.965149  0  0  -0.01219  -0.075654  0  3.936572  0
C  C3  1  0.00334737  0.27962689  0.15270145  1  0  -0.095472  0  3.71954  0  0  -0.07703  0  3.951153  0  0  -0.081345  0  3.967227  0  0  -0.010967  -0.073718  0  3.93884  0
C  C4  1  0.70987152  0.11087649  0.76962442  1  0  -0.08241  0  3.748064  0  0  -0.109543  0  4.002911  0  0  -0.109559  0  4.021503  0  0  -0.088758  -0.109189  0  3.989759  0
C  C5  1  0.52136802  0.76998091  0.88911246  1  0  -0.079503  0  3.744668  0  0  -0.106627  0  3.999731  0  0  -0.106596  0  4.018158  0  0  -0.087954  -0.10633  0  3.986659  0
C  C6  1  0.58937945  0.88916798  0.23021300  1  0  -0.080641  0  3.746785  0  0  -0.108575  0  4.002377  0  0  -0.108528  0  4.020869  0  0  -0.089083  -0.108297  0  3.98925  0
C  C7  1  0.18021955  0.23015455  0.11084225  1  0  -0.078091  0  3.744716  0  0  -0.105096  0  3.999743  0  0  -0.105079  0  4.018185  0  0  -0.087052  -0.104776  0  3.986626  0
C  C8  1  0.74450626  0.02168923  0.82637617  1  0  -0.073803  0  3.800651  0  0  -0.088671  0  4.058906  0  0  -0.091527  0  4.080095  0  0  -0.094636  -0.086738  0  4.04447  0
C  C9  1  0.42978809  0.82671480  0.97833383  1  0  -0.077493  0  3.79957  0  0  -0.092936  0  4.058594  0  0  -0.095742  0  4.079787  0  0  -0.097767  -0.091026  0  4.04414  0
C  C10  1  0.59170471  0.97843318  0.17360822  1  0  -0.073331  0  3.799663  0  0  -0.088461  0  4.058177  0  0  -0.091285  0  4.07941  0  0  -0.094034  -0.086532  0  4.043717  0
C  C11  1  0.23463335  0.17368482  0.02144686  1  0  -0.077465  0  3.804185  0  0  -0.092881  0  4.063143  0  0  -0.095704  0  4.084341  0  0  -0.097063  -0.090962  0  4.048682  0
C  C12  1  0.91484062  0.97305293  0.82997235  1  0  -0.105545  0  3.728076  0  0  -0.126768  0  3.9746  0  0  -0.127382  0  3.994912  0  0  -0.090391  -0.126238  0  3.96082  0
C  C13  1  0.25591014  0.83026162  0.02694748  1  0  -0.10508  0  3.724825  0  0  -0.12622  0  3.971243  0  0  -0.126827  0  3.991495  0  0  -0.089334  -0.125687  0  3.957482  0
C  C14  1  0.71703214  0.02699438  0.17008846  1  0  -0.106496  0  3.727461  0  0  -0.12828  0  3.974195  0  0  -0.128844  0  3.994554  0  0  -0.091462  -0.127784  0  3.960384  0
C  C15  1  0.11291140  0.17015370  0.97280417  1  0  -0.103597  0  3.727866  0  0  -0.124994  0  3.974544  0  0  -0.125573  0  3.994815  0  0  -0.090105  -0.124476  0  3.960762  0
C  C16  1  0.05721298  0.01305039  0.77863515  1  0  0.047686  0  3.799108  0  0  0.06667  0  4.022248  0  0  0.06591  0  4.045419  0  0  -0.00963  0.067121  0  4.006574  0
C  C17  1  0.16493470  0.77890336  0.98688622  1  0  0.048904  0  3.796926  0  0  0.067713  0  4.020677  0  0  0.06699  0  4.043832  0  0  -0.009751  0.068137  0  4.005025  0
C  C18  1  0.84815178  0.98681930  0.22138686  1  0  0.045354  0  3.800708  0  0  0.064323  0  4.023392  0  0  0.063561  0  4.046603  0  0  -0.011051  0.064756  0  4.007735  0
C  C19  1  0.93048010  0.22139411  0.01297336  1  0  0.048353  0  3.798459  0  0  0.067026  0  4.021987  0  0  0.066251  0  4.045225  0  0  -0.008184  0.067484  0  4.006275  0
C  C20  1  0.23435145  0.96419262  0.77951215  1  0  -0.107404  0  3.741271  0  0  -0.125457  0  3.983447  0  0  -0.126851  0  4.004292  0  0  -0.090244  -0.124362  0  3.969178  0
C  C21  1  0.98693309  0.77967463  0.03564010  1  0  -0.107835  0  3.73891  0  0  -0.125797  0  3.980989  0  0  -0.127225  0  4.001842  0  0  -0.089587  -0.124674  0  3.966706  0
C  C22  1  0.97735424  0.03559341  0.22066169  1  0  -0.105971  0  3.740207  0  0  -0.123895  0  3.982135  0  0  -0.125306  0  4.002977  0  0  -0.089258  -0.122777  0  3.96786  0
C  C23  1  0.80198720  0.22055929  0.96423495  1  0  -0.110058  0  3.741666  0  0  -0.128202  0  3.98394  0  0  -0.129629  0  4.00481  0  0  -0.091081  -0.127075  0  3.969629  0
C  C24  1  0.36986968  0.00593953  0.73207002  1  0  -0.080116  0  3.781567  0  0  -0.09274  0  4.02949  0  0  -0.095327  0  4.050546  0  0  -0.097602  -0.090929  0  4.015063  0
C  C25  1  0.89899117  0.73225428  0.99372466  1  0  -0.078824  0  3.78182  0  0  -0.091395  0  4.02952  0  0  -0.093973  0  4.050597  0  0  -0.096305  -0.089566  0  4.015053  0
C  C26  1  0.10724678  0.99367286  0.26805752  1  0  -0.07843  0  3.784353  0  0  -0.091363  0  4.032251  0  0  -0.093923  0  4.053346  0  0  -0.096626  -0.089567  0  4.017797  0
C  C27  1  0.62474098  0.26802908  0.00609478  1  0  -0.077745  0  3.784579  0  0  -0.089923  0  4.032092  0  0  -0.09253  0  4.053175  0  0  -0.09567  -0.088084  0  4.017663  0
C  C28  1  0.33334397  0.09955506  0.68239449  1  0  -0.075956  0  3.795512  0  0  -0.089259  0  4.046423  0  0  -0.090753  0  4.068433  0  0  -0.097248  -0.088021  0  4.031166  0
C  C29  1  0.98537488  0.68264837  0.90006667  1  0  -0.079578  0  3.797835  0  0  -0.093233  0  4.04916  0  0  -0.094741  0  4.07118  0  0  -0.100435  -0.091965  0  4.033877  0
C  C30  1  0.11470190  0.89993857  0.31750631  1  0  -0.077235  0  3.797266  0  0  -0.090522  0  4.048564  0  0  -0.092089  0  4.0706  0  0  -0.097127  -0.089252  0  4.03326  0
C  C31  1  0.56785748  0.31770935  0.09971110  1  0  -0.077423  0  3.798832  0  0  -0.090871  0  4.049574  0  0  -0.092484  0  4.071624  0  0  -0.098787  -0.089561  0  4.034285  0
C  C32  1  0.16354245  0.14782547  0.67763165  1  0  -0.118269  0  3.73002  0  0  -0.139648  0  3.982013  0  0  -0.142773  0  4.002736  0  0  -0.09682  -0.137323  0  3.967271  0
C  C33  1  0.15990221  0.67798682  0.85192044  1  0  -0.117724  0  3.732336  0  0  -0.138952  0  3.984397  0  0  -0.142035  0  4.005091  0  0  -0.096884  -0.136669  0  3.969684  0
C  C34  1  0.98833953  0.85176746  0.32211790  1  0  -0.117713  0  3.733552  0  0  -0.13974  0  3.985083  0  0  -0.142868  0  4.005873  0  0  -0.097431  -0.137408  0  3.97032  0
C  C35  1  0.68956901  0.32229491  0.14793491  1  0  -0.120277  0  3.732409  0  0  -0.141288  0  3.984123  0  0  -0.144471  0  4.004821  0  0  -0.097483  -0.138937  0  3.96944  0
C  C36  1  0.02184875  0.10590089  0.72466454  1  0  0.0274  0  3.780653  0  0  0.037957  0  4.003926  0  0  0.038399  0  4.026795  0  0  -0.009015  0.037838  0  3.988077  0
C  C37  1  0.25443969  0.72500291  0.89400915  1  0  0.030528  0  3.780995  0  0  0.040675  0  4.004354  0  0  0.041113  0  4.027246  0  0  -0.006478  0.040522  0  3.98847  0
C  C38  1  0.85156065  0.89389298  0.27520719  1  0  0.028511  0  3.783334  0  0  0.039923  0  4.004874  0  0  0.040367  0  4.027794  0  0  -0.007209  0.039774  0  3.988972  0
C  C39  1  0.87317660  0.27523955  0.10589922  1  0  0.028631  0  3.784496  0  0  0.039471  0  4.007422  0  0  0.039874  0  4.030344  0  0  -0.008241  0.039341  0  3.991524  0
C  C40  1  0.80901578  0.24727950  0.65984162  1  0  0.738647  0  3.839838  0  0  0.691765  0  4.133493  0  0  0.728627  0  4.124765  0  0  0.23729  0.667314  0  4.142424  0
C  C41  1  0.53165174  0.66008906  0.75264963  1  0  0.738205  0  3.841472  0  0  0.691164  0  4.135156  0  0  0.728092  0  4.126393  0  0  0.235755  0.666618  0  4.144142  0
C  C42  1  0.71544505  0.75257454  0.33999438  1  0  0.736659  0  3.841743  0  0  0.690761  0  4.133344  0  0  0.727787  0  4.124438  0  0  0.236664  0.666195  0  4.142341  0
C  C43  1  0.94427114  0.33984904  0.24744967  1  0  0.73272  0  3.844387  0  0  0.687303  0  4.135577  0  0  0.72402  0  4.127139  0  0  0.23402  0.662939  0  4.144283  0
C  C44  1  0.43024518  0.24468495  0.40142547  1  0  0.049723  0  3.726211  0  0  0.0563  0  3.968203  0  0  0.053397  0  3.989614  0  0  0.1178  0.057936  0  3.955945  0
C  C45  1  0.16812433  0.40144554  0.75529337  1  0  0.048792  0  3.729376  0  0  0.055523  0  3.971702  0  0  0.052652  0  3.99304  0  0  0.116789  0.05714  0  3.959463  0
C  C46  1  0.07648711  0.75508600  0.59855138  1  0  0.051691  0  3.727819  0  0  0.05843  0  3.970475  0  0  0.055499  0  3.991878  0  0  0.119597  0.060075  0  3.958191  0
C  C47  1  0.32425789  0.59863332  0.24479802  1  0  0.054218  0  3.725264  0  0  0.061562  0  3.966552  0  0  0.058705  0  3.987951  0  0  0.119266  0.063189  0  3.95426  0
C  C48  1  0.34596900  0.17480912  0.38934726  1  0  0.069785  0  3.666891  0  0  0.040977  0  3.922838  0  0  0.044382  0  3.936947  0  0  0.058685  0.039063  0  3.912392  0
C  C49  1  0.26424651  0.38937360  0.82531189  1  0  0.075013  0  3.66684  0  0  0.045556  0  3.922539  0  0  0.048667  0  3.93721  0  0  0.061499  0.043754  0  3.911872  0
C  C50  1  0.91025282  0.82490423  0.61052832  1  0  0.070496  0  3.664899  0  0  0.040745  0  3.921814  0  0  0.044203  0  3.935926  0  0  0.057699  0.038852  0  3.911342  0
C  C51  1  0.47810916  0.61085172  0.17479165  1  0  0.072537  0  3.665539  0  0  0.043712  0  3.921105  0  0  0.046956  0  3.93554  0  0  0.060037  0.04178  0  3.910657  0
C  C52  1  0.54591572  0.04997460  0.44571476  1  0  0.087042  0  3.681177  0  0  0.060339  0  3.948611  0  0  0.062892  0  3.964669  0  0  0.064252  0.058845  0  3.937163  0
C  C53  1  0.00777779  0.44585349  0.94998201  1  0  0.085473  0  3.682207  0  0  0.059236  0  3.949348  0  0  0.061812  0  3.965336  0  0  0.063851  0.057728  0  3.937948  0
C  C54  1  0.04157217  0.94980015  0.55445062  1  0  0.085837  0  3.680805  0  0  0.058425  0  3.948904  0  0  0.060967  0  3.964948  0  0  0.063234  0.056937  0  3.937467  0
C  C55  1  0.40257846  0.55447575  0.05008920  1  0  0.086798  0  3.679719  0  0  0.060194  0  3.946935  0  0  0.062739  0  3.96297  0  0  0.063735  0.058712  0  3.935496  0
C  C56  1  0.63237687  0.11902484  0.45782689  1  0  0.108861  0  3.654757  0  0  0.082209  0  3.915495  0  0  0.084971  0  3.93364  0  0  0.070228  0.080252  0  3.905762  0
C  C57  1  0.90942221  0.45793773  0.88080810  1  0  0.109602  0  3.656953  0  0  0.082726  0  3.917653  0  0  0.085543  0  3.935811  0  0  0.069238  0.080728  0  3.907916  0
C  C58  1  0.20923491  0.88078722  0.54234273  1  0  0.107904  0  3.657001  0  0  0.081616  0  3.917419  0  0  0.084424  0  3.935627  0  0  0.071363  0.079618  0  3.907651  0
C  C59  1  0.24736289  0.54220168  0.11929163  1  0  0.109857  0  3.654209  0  0  0.083049  0  3.914692  0  0  0.085811  0  3.932855  0  0  0.070755  0.081089  0  3.904965  0
C  C60  1  0.36645684  0.35525244  0.37922131  1  0  0.688692  0  3.89248  0  0  0.637837  0  4.191629  0  0  0.674523  0  4.183141  0  0  0.231966  0.613627  0  4.199542  0
C  C61  1  0.25437341  0.37921281  0.64473651  1  0  0.688684  0  3.892254  0  0  0.637571  0  4.192039  0  0  0.674361  0  4.183424  0  0  0.231883  0.613327  0  4.199999  0
C  C62  1  0.10106719  0.64456396  0.62085952  1  0  0.684213  0  3.892067  0  0  0.632219  0  4.193588  0  0  0.668971  0  4.185059  0  0  0.230172  0.607996  0  4.201481  0
C  C63  1  0.27793724  0.62076120  0.35536149  1  0  0.683543  0  3.893445  0  0  0.631585  0  4.19424  0  0  0.66828  0  4.18581  0  0  0.229211  0.607412  0  4.202061  0
H  H64  1  0.50021172  0.47056624  0.65274271  1  0  0.436909  0  0.855407  0  0  0.412331  0  0.909503  0  0  0.421626  0  0.89674  0  0  0.30921  0.405946  0  0.918952  0
H  H65  1  0.84701129  0.65273423  0.52947970  1  0  0.43735  0  0.854405  0  0  0.412632  0  0.909137  0  0  0.421935  0  0.89635  0  0  0.309218  0.406243  0  0.918591  0
H  H66  1  0.62318505  0.52939591  0.34738555  1  0  0.437721  0  0.85445  0  0  0.413149  0  0.908472  0  0  0.422467  0  0.895676  0  0  0.309562  0.406758  0  0.917931  0
H  H67  1  0.02922245  0.34733100  0.47059836  1  0  0.437215  0  0.854481  0  0  0.41235  0  0.90946  0  0  0.421649  0  0.89669  0  0  0.308989  0.405965  0  0.918906  0
H  H68  1  0.57529186  0.14766080  0.76549773  1  0  0.092164  0  0.954267  0  0  0.104558  0  1.014825  0  0  0.10727  0  1.013735  0  0  0.102058  0.10264  0  1.015541  0
H  H69  1  0.66004865  0.76590491  0.85241174  1  0  0.091898  0  0.954441  0  0  0.104173  0  1.014972  0  0  0.106922  0  1.013905  0  0  0.102134  0.102214  0  1.015694  0
H  H70  1  0.48734972  0.85251126  0.23426939  1  0  0.092669  0  0.955053  0  0  0.105299  0  1.015308  0  0  0.108029  0  1.014239  0  0  0.102584  0.10337  0  1.016016  0
H  H71  1  0.27808577  0.23411124  0.14765237  1  0  0.090808  0  0.953992  0  0  0.103346  0  1.014465  0  0  0.106075  0  1.01339  0  0  0.101315  0.101412  0  1.015157  0
H  H72  1  0.63547531  0.99078026  0.86620138  1  0  0.081052  0  0.957235  0  0  0.094504  0  1.015645  0  0  0.097069  0  1.014933  0  0  0.097081  0.092691  0  1.016206  0
H  H73  1  0.49885072  0.86655089  0.00938243  1  0  0.082792  0  0.956958  0  0  0.09651  0  1.014991  0  0  0.098991  0  1.014385  0  0  0.098949  0.094746  0  1.015493  0
H  H74  1  0.49151924  0.00950583  0.13382349  1  0  0.081987  0  0.959039  0  0  0.095799  0  1.016801  0  0  0.098309  0  1.016178  0  0  0.098513  0.094006  0  1.01732  0
H  H75  1  0.37458491  0.13386250  0.99044879  1  0  0.082141  0  0.958597  0  0  0.095887  0  1.016334  0  0  0.098358  0  1.015771  0  0  0.098652  0.094124  0  1.016819  0
H  H76  1  0.94246207  0.90339977  0.87230413  1  0  0.093151  0  0.981625  0  0  0.102488  0  1.046388  0  0  0.104294  0  1.047507  0  0  0.097005  0.101182  0  1.045679  0
H  H77  1  0.18588274  0.87254654  0.09664158  1  0  0.09281  0  0.981847  0  0  0.102317  0  1.04648  0  0  0.104131  0  1.047587  0  0  0.096369  0.101009  0  1.045777  0
H  H78  1  0.71734823  0.09670843  0.12787578  1  0  0.092842  0  0.981408  0  0  0.102597  0  1.045925  0  0  0.104342  0  1.047096  0  0  0.096292  0.101337  0  1.045188  0
H  H79  1  0.15487061  0.12792068  0.90308121  1  0  0.092317  0  0.981804  0  0  0.10192  0  1.04643  0  0  0.103725  0  1.047542  0  0  0.096464  0.100614  0  1.045725  0
H  H80  1  0.26154719  0.89268663  0.81840349  1  0  0.085666  0  1.019239  0  0  0.093923  0  1.085344  0  0  0.095306  0  1.087218  0  0  0.09432  0.092924  0  1.084065  0
H  H81  1  0.92074443  0.81840414  0.10724997  1  0  0.08565  0  1.017829  0  0  0.09385  0  1.084245  0  0  0.095254  0  1.086084  0  0  0.094254  0.092838  0  1.082991  0
H  H82  1  0.97188716  0.10719881  0.18194076  1  0  0.085841  0  1.017454  0  0  0.093932  0  1.083884  0  0  0.095332  0  1.085729  0  0  0.094038  0.092924  0  1.082613  0
H  H83  1  0.84614152  0.18172964  0.89268548  1  0  0.086032  0  1.018261  0  0  0.094445  0  1.084219  0  0  0.095832  0  1.086088  0  0  0.094107  0.093447  0  1.082934  0
H  H84  1  0.50570770  0.96717864  0.73261390  1  0  0.088618  0  0.96036  0  0  0.099  0  1.023462  0  0  0.101606  0  1.022664  0  0  0.098329  0.097155  0  1.024057  0
H  H85  1  0.76264102  0.73270385  0.03243070  1  0  0.088408  0  0.960309  0  0  0.099127  0  1.022882  0  0  0.101747  0  1.022066  0  0  0.098019  0.097251  0  1.023517  0
H  H86  1  0.20490819  0.03236715  0.26761901  1  0  0.087646  0  0.961882  0  0  0.098361  0  1.024581  0  0  0.100955  0  1.023794  0  0  0.098199  0.096506  0  1.025205  0
H  H87  1  0.52752746  0.26748297  0.96741719  1  0  0.088341  0  0.96164  0  0  0.098469  0  1.02484  0  0  0.101143  0  1.023946  0  0  0.097711  0.096555  0  1.025532  0
H  H88  1  0.43974682  0.13380761  0.64754698  1  0  0.087825  0  0.968921  0  0  0.09893  0  1.029587  0  0  0.101458  0  1.029008  0  0  0.098441  0.097175  0  1.0299  0
H  H89  1  0.91394926  0.64778136  0.86569447  1  0  0.089836  0  0.968122  0  0  0.101128  0  1.02851  0  0  0.103596  0  1.028053  0  0  0.099716  0.099373  0  1.028811  0
H  H90  1  0.22053663  0.86556437  0.35235049  1  0  0.089032  0  0.96903  0  0  0.100027  0  1.029675  0  0  0.102598  0  1.029059  0  0  0.098522  0.098277  0  1.029965  0
H  H91  1  0.42721705  0.35260779  0.13404754  1  0  0.089062  0  0.969693  0  0  0.100267  0  1.030079  0  0  0.102908  0  1.029371  0  0  0.099106  0.098492  0  1.030358  0
H  H92  1  0.13647335  0.21945323  0.63852303  1  0  0.09926  0  0.978095  0  0  0.108646  0  1.041497  0  0  0.111758  0  1.040659  0  0  0.101318  0.106574  0  1.041875  0
H  H93  1  0.22612880  0.63887011  0.78030375  1  0  0.098268  0  0.979935  0  0  0.107666  0  1.043444  0  0  0.110806  0  1.04253  0  0  0.101055  0.105587  0  1.043871  0
H  H94  1  0.99379857  0.78011698  0.36115764  1  0  0.098393  0  0.979593  0  0  0.108165  0  1.042739  0  0  0.111334  0  1.041789  0  0  0.100808  0.10607  0  1.043151  0
H  H95  1  0.64507059  0.36135764  0.21959942  1  0  0.099395  0  0.978374  0  0  0.10846  0  1.04209  0  0  0.111697  0  1.041068  0  0  0.101098  0.106326  0  1.042551  0
H  H96  1  0.22928206  0.19902156  0.36141695  1  0  0.098905  0  0.921804  0  0  0.106031  0  0.982357  0  0  0.109952  0  0.978997  0  0  0.123117  0.103319  0  0.984443  0
H  H97  1  0.40885096  0.36137335  0.80123403  1  0  0.097026  0  0.92189  0  0  0.10508  0  0.98157  0  0  0.109073  0  0.978104  0  0  0.122348  0.102317  0  0.983733  0
H  H98  1  0.78988465  0.80066978  0.63837999  1  0  0.098348  0  0.92076  0  0  0.106354  0  0.980273  0  0  0.110223  0  0.976962  0  0  0.124195  0.103607  0  0.982411  0
H  H99  1  0.57067423  0.63881834  0.19888424  1  0  0.096665  0  0.921555  0  0  0.103947  0  0.98191  0  0  0.107888  0  0.978528  0  0  0.123038  0.101232  0  0.984012  0
H  H100  1  0.59403445  0.97108811  0.46510572  1  0  0.088909  0  0.927872  0  0  0.09452  0  0.992252  0  0  0.097844  0  0.989724  0  0  0.119468  0.092135  0  0.994045  0
H  H101  1  0.94015568  0.46531140  0.02885703  1  0  0.090059  0  0.927058  0  0  0.095238  0  0.991746  0  0  0.098565  0  0.98924  0  0  0.119714  0.092852  0  0.993528  0
H  H102  1  0.03007480  0.02871496  0.53518781  1  0  0.089944  0  0.926553  0  0  0.095732  0  0.990898  0  0  0.099055  0  0.988363  0  0  0.120027  0.093349  0  0.992691  0
H  H103  1  0.43315120  0.53511674  0.97120221  1  0  0.089692  0  0.927779  0  0  0.095193  0  0.992067  0  0  0.098533  0  0.989548  0  0  0.120307  0.092799  0  0.993857  0
H  H104  1  0.74650872  0.09627273  0.48764906  1  0  0.10008  0  0.934243  0  0  0.102209  0  1.00547  0  0  0.106137  0  1.001762  0  0  0.126306  0.099384  0  1.008146  0
H  H105  1  0.76548977  0.48777459  0.90347040  1  0  0.099491  0  0.934901  0  0  0.10206  0  1.005361  0  0  0.105887  0  1.001805  0  0  0.126354  0.099322  0  1.007894  0
H  H106  1  0.33038518  0.90357042  0.51260656  1  0  0.098903  0  0.935095  0  0  0.10117  0  1.00605  0  0  0.105017  0  1.00244  0  0  0.125062  0.098396  0  1.008678  0
H  H107  1  0.15598641  0.51227510  0.09667266  1  0  0.098599  0  0.935748  0  0  0.101028  0  1.006586  0  0  0.10496  0  1.002873  0  0  0.125556  0.098205  0  1.009271  0
N  N108  1  0.57291468  0.21644485  0.43714237  1  0  -0.353814  0  3.226646  0  0  -0.309629  0  3.486158  0  0  -0.328263  0  3.505503  0  0  -0.344336  -0.303711  0  3.475097  0
N  N109  1  0.98977622  0.43718969  0.78341213  1  0  -0.353781  0  3.228722  0  0  -0.309579  0  3.48812  0  0  -0.328183  0  3.507389  0  0  -0.344551  -0.303692  0  3.477112  0
N  N110  1  0.22656832  0.78335334  0.56293921  1  0  -0.353769  0  3.229044  0  0  -0.309668  0  3.488432  0  0  -0.328271  0  3.507754  0  0  -0.346359  -0.303762  0  3.47739  0
N  N111  1  0.20978547  0.56284629  0.21670500  1  0  -0.356226  0  3.227408  0  0  -0.312403  0  3.48692  0  0  -0.331093  0  3.506249  0  0  -0.347497  -0.306484  0  3.475879  0
N  N112  1  0.40182170  0.07727891  0.41254517  1  0  -0.256308  0  3.042245  0  0  -0.225669  0  3.315156  0  0  -0.233694  0  3.331174  0  0  -0.297628  -0.220006  0  3.303805  0
N  N113  1  0.18502174  0.41262826  0.92282263  1  0  -0.257607  0  3.042547  0  0  -0.22724  0  3.316038  0  0  -0.235202  0  3.332055  0  0  -0.297206  -0.221593  0  3.304674  0
N  N114  1  0.89167460  0.92245296  0.58743982  1  0  -0.255209  0  3.040007  0  0  -0.224269  0  3.313381  0  0  -0.232292  0  3.329405  0  0  -0.297081  -0.218598  0  3.301992  0
N  N115  1  0.51944643  0.58770261  0.07725568  1  0  -0.257607  0  3.041522  0  0  -0.227377  0  3.31501  0  0  -0.23535  0  3.330993  0  0  -0.298274  -0.221715  0  3.303666  0
O  O116  1  0.78426610  0.23924088  0.57514801  1  0  -0.723817  0  1.996537  0  0  -0.674636  0  2.24918  0  0  -0.712554  0  2.233531  0  0  -0.401177  -0.656814  0  2.256753  0
O  O117  1  0.64074543  0.57529079  0.76071844  1  0  -0.723474  0  1.996433  0  0  -0.674399  0  2.249162  0  0  -0.712364  0  2.233493  0  0  -0.400536  -0.656602  0  2.256801  0
O  O118  1  0.59829547  0.76059980  0.42478040  1  0  -0.722723  0  1.996916  0  0  -0.673848  0  2.24887  0  0  -0.711831  0  2.233203  0  0  -0.400679  -0.655989  0  2.256465  0
O  O119  1  0.97665607  0.42462611  0.23947940  1  0  -0.721828  0  1.997747  0  0  -0.672891  0  2.249322  0  0  -0.710873  0  2.233848  0  0  -0.400429  -0.655094  0  2.256805  0
O  O120  1  0.80902709  0.32778861  0.69652698  1  0  -0.739623  0  2.016234  0  0  -0.693655  0  2.268903  0  0  -0.732458  0  2.254383  0  0  -0.400162  -0.676056  0  2.276184  0
O  O121  1  0.49495131  0.69675953  0.67213023  1  0  -0.738863  0  2.016633  0  0  -0.692871  0  2.269177  0  0  -0.731622  0  2.254651  0  0  -0.39958  -0.675243  0  2.276482  0
O  O122  1  0.83268790  0.67208473  0.30328881  1  0  -0.738041  0  2.016323  0  0  -0.692332  0  2.268213  0  0  -0.731249  0  2.25362  0  0  -0.399157  -0.674674  0  2.275536  0
O  O123  1  0.86369638  0.30314423  0.32791031  1  0  -0.736429  0  2.016764  0  0  -0.690887  0  2.268486  0  0  -0.729613  0  2.254043  0  0  -0.398252  -0.67334  0  2.275805  0
O  O124  1  0.45774121  0.40991610  0.39216266  1  0  -0.712219  0  2.066202  0  0  -0.666631  0  2.328917  0  0  -0.703263  0  2.315817  0  0  -0.387627  -0.649523  0  2.336269  0
O  O125  1  0.15028957  0.39226670  0.58996524  1  0  -0.71412  0  2.065212  0  0  -0.668716  0  2.328515  0  0  -0.705412  0  2.315356  0  0  -0.388985  -0.651606  0  2.335879  0
O  O126  1  0.25995424  0.58991443  0.60797769  1  0  -0.712245  0  2.066531  0  0  -0.666188  0  2.32987  0  0  -0.702822  0  2.316699  0  0  -0.388752  -0.649063  0  2.337225  0
O  O127  1  0.13209237  0.60780294  0.41012667  1  0  -0.711141  0  2.065681  0  0  -0.664726  0  2.328561  0  0  -0.701487  0  2.315545  0  0  -0.387313  -0.647592  0  2.33587  0
O  O128  1  0.23005822  0.38535136  0.34840789  1  0  -0.705957  0  2.061571  0  0  -0.655987  0  2.317153  0  0  -0.692333  0  2.304473  0  0  -0.368639  -0.637843  0  2.322758  0
O  O129  1  0.42159065  0.34830404  0.61475454  1  0  -0.704769  0  2.060976  0  0  -0.654888  0  2.316676  0  0  -0.691157  0  2.303807  0  0  -0.367154  -0.636718  0  2.322245  0
O  O130  1  0.96394682  0.61451336  0.65171773  1  0  -0.70236  0  2.061719  0  0  -0.651969  0  2.317986  0  0  -0.688268  0  2.30514  0  0  -0.365807  -0.633846  0  2.323631  0
O  O131  1  0.38445845  0.65149773  0.38534268  1  0  -0.703573  0  2.062684  0  0  -0.65363  0  2.318846  0  0  -0.689849  0  2.306116  0  0  -0.366293  -0.635531  0  2.324448  0
O  O132  1  0.59603383  0.48395519  0.59805803  1  0  -1.22357  0  1.96466  0  0  -1.153763  0  2.199194  0  0  -1.215261  0  2.165811  0  0  -0.833475  -1.13457  0  2.214895  0
O  O133  1  0.80588476  0.59803381  0.51609473  1  0  -1.224006  0  1.964379  0  0  -1.154345  0  2.198546  0  0  -1.215917  0  2.165081  0  0  -0.833445  -1.135205  0  2.214417  0
O  O134  1  0.67784584  0.51595166  0.40203875  1  0  -1.22468  0  1.96523  0  0  -1.154838  0  2.199915  0  0  -1.216454  0  2.166557  0  0  -0.833586  -1.135548  0  2.215521  0
O  O135  1  0.91996581  0.40200640  0.48402874  1  0  -1.223868  0  1.963959  0  0  -1.153866  0  2.198469  0  0  -1.215452  0  2.165052  0  0  -0.833552  -1.134737  0  2.214335  0
Yb  Yb136  1  0.66736087  0.36432445  0.47814724  1  0  2.283607  0  1.667065  0  0  2.136796  0  2.130894  0  0  2.274842  0  1.930356  0  0  1.571002  2.100849  0  2.161516  0
Yb  Yb137  1  0.85454606  0.47811474  0.63564674  1  0  2.283525  0  1.669167  0  0  2.136696  0  2.133298  0  0  2.274906  0  1.932409  0  0  1.57166  2.100863  0  2.16377  0
Yb  Yb138  1  0.50982244  0.63554749  0.52194904  1  0  2.283708  0  1.668254  0  0  2.137059  0  2.131934  0  0  2.274987  0  1.931528  0  0  1.571423  2.101117  0  2.162542  0
Yb  Yb139  1  0.96803468  0.52186866  0.36447947  1  0  2.283171  0  1.668916  0  0  2.135834  0  2.133427  0  0  2.274369  0  1.932101  0  0  1.571681  2.099832  0  2.164159  0
