# generated using pymatgen
data_CuH6C14N2(ClO4)2
_symmetry_space_group_name_H-M   'P 1'
_cell_length_a   5.06342371
_cell_length_b   11.81951520
_cell_length_c   13.89416198
_cell_angle_alpha   84.46247135
_cell_angle_beta   85.44616116
_cell_angle_gamma   85.54058904
_symmetry_Int_Tables_number   1
_chemical_formula_structural   CuH6C14N2(ClO4)2
_chemical_formula_sum   'Cu2 H12 C28 N4 Cl4 O16'
_cell_volume   822.97236271
_cell_formula_units_Z   2
loop_
 _symmetry_equiv_pos_site_id
 _symmetry_equiv_pos_as_xyz
  1  'x, y, z'
loop_
 _atom_site_type_symbol
 _atom_site_label
 _atom_site_symmetry_multiplicity
 _atom_site_fract_x
 _atom_site_fract_y
 _atom_site_fract_z
 _atom_site_occupancy
 _atom_site_hle17_ddec_charge
 _atom_site_hle17_ddec_spin_density
 _atom_site_hle17_ddec_sum_bond_order
 _atom_site_hle17_magmom
 _atom_site_hse06_10hf_ddec_charge
 _atom_site_hse06_10hf_ddec_spin_density
 _atom_site_hse06_10hf_ddec_sum_bond_order
 _atom_site_hse06_10hf_magmom
 _atom_site_hse06_ddec_charge
 _atom_site_hse06_ddec_spin_density
 _atom_site_hse06_ddec_sum_bond_order
 _atom_site_hse06_magmom
 _atom_site_pbe_cm5_charge
 _atom_site_pbe_ddec_charge
 _atom_site_pbe_ddec_spin_density
 _atom_site_pbe_ddec_sum_bond_order
 _atom_site_pbe_magmom
Cu  Cu0  1  0.20836847  0.05004712  0.47239731  1  0.909682  -0.677491  1.837072  -0.484  0.909013  -0.790088  2.237521  -0.624  1.005763  -0.880225  2.161032  -0.723  0.694723  0.844996  -0.6888  2.295933  -0.531
Cu  Cu1  1  0.79164671  0.94994694  0.52760138  1  0.909862  0.677523  1.837215  0.484  0.909135  0.790103  2.23773  0.624  1.005897  0.880232  2.161237  0.723  0.694845  0.845093  0.688822  2.29621  0.531
H  H2  1  0.13784458  0.49546511  0.41346452  1  0.12574  -3.2e-05  0.957523  0.0  0.127459  -3.3e-05  1.028392  0.0  0.131126  -1.9e-05  1.02488  0.0  0.115339  0.124884  -4.2e-05  1.030899  0.0
H  H3  1  0.86214768  0.50453577  0.58654003  1  0.125596  3.4e-05  0.957707  0.0  0.12742  3.3e-05  1.028467  0.0  0.131088  1.9e-05  1.024959  0.0  0.115314  0.124846  4.2e-05  1.030979  0.0
H  H4  1  0.11206811  0.49985748  0.23452722  1  0.110243  -0.0  0.967504  0.0  0.115532  1e-05  1.035298  0.0  0.118882  6e-06  1.034158  0.0  0.098016  0.113077  1.3e-05  1.036358  0.0
H  H5  1  0.88792203  0.50014424  0.76547732  1  0.110191  -5e-06  0.967555  0.0  0.115451  -1e-05  1.035378  0.0  0.118802  -6e-06  1.034224  0.0  0.097983  0.112997  -1.3e-05  1.036438  0.0
H  H6  1  0.69439010  0.21303883  0.22664799  1  0.137733  -7e-06  0.93149  0.0  0.14283  -5e-06  0.996897  0.0  0.147279  -2e-06  0.993515  0.0  0.113544  0.139605  -5e-06  0.999627  0.0
H  H7  1  0.30561377  0.78696375  0.77335393  1  0.137782  7e-06  0.93143  0.0  0.142822  5e-06  0.996924  0.0  0.147274  2e-06  0.993538  0.0  0.113548  0.139596  4e-06  0.999655  0.0
H  H8  1  0.27181180  0.91111169  0.00624467  1  0.122793  9.1e-05  0.961076  0.0  0.127936  8.6e-05  1.027702  0.0  0.131558  5.6e-05  1.025712  0.0  0.110184  0.125361  0.000107  1.029213  0.0
H  H9  1  0.72819407  0.08889089  0.99375215  1  0.122888  -9.3e-05  0.961035  0.0  0.127983  -8.6e-05  1.027702  0.0  0.131601  -5.6e-05  1.025716  0.0  0.110231  0.125407  -0.000107  1.029213  0.0
H  H10  1  0.02259827  0.74033705  0.99325765  1  0.114709  4.1e-05  0.953634  0.0  0.119669  8e-06  1.021473  0.0  0.123362  5e-06  1.018881  0.0  0.101685  0.11702  1.1e-05  1.023417  0.0
H  H11  1  0.97740732  0.25966723  0.00673976  1  0.114649  -3.8e-05  0.95356  0.0  0.119621  -8e-06  1.021401  0.0  0.123318  -5e-06  1.018795  0.0  0.101675  0.116968  -1.1e-05  1.023358  0.0
H  H12  1  0.77993845  0.73113632  0.29877818  1  0.133696  0.000217  0.956249  0.0  0.134096  0.000167  1.02882  0.0  0.138587  0.000111  1.024727  0.0  0.111142  0.130985  0.000201  1.031705  0.0
H  H13  1  0.22008623  0.26886030  0.70121571  1  0.133879  -0.000223  0.956061  0.0  0.134175  -0.000167  1.028732  0.0  0.138666  -0.000111  1.024642  0.0  0.111195  0.131065  -0.000201  1.031615  0.0
C  C14  1  0.43153069  0.35343409  0.41852808  1  0.064698  0.000423  3.67729  0.0  0.034815  6.6e-05  3.936878  0.0  0.031788  0.000148  3.958267  0.0  0.081979  0.036331  1.9e-05  3.922834  0.0
C  C15  1  0.56845038  0.64656252  0.58147714  1  0.064763  -0.000369  3.677354  0.0  0.034892  -7.1e-05  3.936901  0.0  0.031871  -0.000145  3.958281  0.0  0.081916  0.036405  -2e-05  3.922851  0.0
C  C16  1  0.25891941  0.43462908  0.37184476  1  -0.043396  -0.001252  3.680734  -0.001  -0.075589  -0.000483  3.951855  0.0  -0.072619  -0.00036  3.967415  0.0  -0.067925  -0.077263  -0.000563  3.941328  0.0
C  C17  1  0.74105769  0.56536754  0.62816272  1  -0.043422  0.001188  3.681017  0.001  -0.075766  0.000485  3.952195  0.0  -0.072799  0.000354  3.967757  0.0  -0.068027  -0.077445  0.000562  3.941659  0.0
C  C18  1  0.24520959  0.43714383  0.27237046  1  -0.110661  0.000621  3.709163  0.001  -0.133639  0.000222  3.962142  0.0  -0.138192  0.000252  3.981669  0.0  -0.088549  -0.131045  0.000214  3.949457  0.0
C  C19  1  0.75478607  0.56286045  0.72763371  1  -0.110395  -0.000548  3.709107  -0.001  -0.13338  -0.000221  3.962141  0.0  -0.137925  -0.000247  3.981669  0.0  -0.088401  -0.130793  -0.000215  3.949457  0.0
C  C20  1  0.40627485  0.35850835  0.22097293  1  0.171159  -0.000197  3.770431  0.0  0.178938  -8.3e-05  4.040606  0.0  0.18472  -0.000126  4.06024  0.0  0.027632  0.174999  -6.1e-05  4.027558  0.0
C  C21  1  0.59369645  0.64148742  0.77903407  1  0.171012  0.000144  3.770564  0.0  0.17892  8.1e-05  4.040545  0.0  0.184702  0.000122  4.060176  0.0  0.027631  0.174982  6e-05  4.027491  0.0
C  C22  1  0.57633143  0.27566760  0.26758343  1  -0.118406  0.000299  3.647315  0.0  -0.15206  0.00025  3.897014  0.0  -0.155226  0.00031  3.914791  0.0  -0.079491  -0.150577  0.000211  3.885859  0.0
C  C23  1  0.42366650  0.72433498  0.73241865  1  -0.118473  -0.000244  3.647256  0.0  -0.152157  -0.000249  3.896954  0.0  -0.155323  -0.000306  3.914724  0.0  -0.079538  -0.150682  -0.000212  3.885798  0.0
C  C24  1  0.58867461  0.27266954  0.36766589  1  -0.032155  -0.003336  3.681515  -0.004  -0.021304  -0.001388  3.923411  -0.002  -0.025761  -0.000985  3.941294  -0.001  0.008895  -0.017879  -0.001457  3.911693  -0.002
C  C25  1  0.41133409  0.72733986  0.63233533  1  -0.032017  0.003263  3.681398  0.004  -0.021104  0.00139  3.923144  0.002  -0.025555  0.000981  3.941014  0.001  0.008993  -0.01768  0.001455  3.911415  0.002
C  C26  1  0.75455494  0.17677042  0.41680437  1  0.679721  0.003503  3.849072  0.005  0.636897  0.001476  4.149795  0.003  0.680828  0.001582  4.136795  0.003  0.23033  0.606951  0.001256  4.157174  0.003
C  C27  1  0.24543138  0.82323045  0.58319818  1  0.679708  -0.003491  3.849095  -0.005  0.636944  -0.001477  4.149688  -0.003  0.680876  -0.001581  4.136673  -0.003  0.230408  0.606997  -0.001254  4.157052  -0.003
C  C28  1  0.02671873  0.91120811  0.34033967  1  0.65683  7.4e-05  3.84266  0.0  0.617783  9.2e-05  4.140987  0.0  0.660071  8.9e-05  4.13277  0.0  0.220817  0.589114  8.4e-05  4.14567  0.0
C  C29  1  0.97327439  0.08878766  0.65965879  1  0.657072  -6.5e-05  3.84214  0.0  0.617941  -9.3e-05  4.140594  0.0  0.660267  -8.9e-05  4.132308  0.0  0.220844  0.589271  -8.1e-05  4.145287  0.0
C  C30  1  0.02417651  0.86727495  0.24285496  1  -0.053277  0.000392  3.684398  0.0  -0.040846  0.000279  3.921358  0.0  -0.04822  0.000303  3.939815  0.0  0.001914  -0.035419  0.000246  3.908967  0.0
C  C31  1  0.97585665  0.13271825  0.75714257  1  -0.053446  -0.00045  3.684423  0.0  -0.040932  -0.000281  3.921351  0.0  -0.048315  -0.000303  3.939786  0.0  0.001913  -0.03551  -0.000249  3.908974  0.0
C  C32  1  0.15865970  0.91666242  0.15900220  1  0.080941  -0.00011  3.67008  0.0  0.054804  0.000257  3.920268  0.001  0.056598  0.000154  3.939539  0.0  0.08554  0.053266  0.000275  3.907705  0.001
C  C33  1  0.84134646  0.08333846  0.84099043  1  0.08106  0.000143  3.670384  0.0  0.054875  -0.00026  3.920546  -0.001  0.056674  -0.00015  3.939808  0.0  0.085577  0.053339  -0.000274  3.907981  -0.001
C  C34  1  0.16398657  0.87112726  0.07003573  1  -0.090599  0.001114  3.709496  0.001  -0.115195  0.000466  3.972114  0.001  -0.117511  0.000373  3.991464  0.0  -0.080589  -0.11356  0.000503  3.959074  0.001
C  C35  1  0.83601392  0.12887191  0.92995792  1  -0.090797  -0.001116  3.709613  -0.001  -0.115382  -0.000465  3.972309  -0.001  -0.117697  -0.000372  3.991654  0.0  -0.080694  -0.113749  -0.000504  3.959272  -0.001
C  C36  1  0.02410958  0.77578187  0.06263988  1  -0.100358  -0.001403  3.724741  -0.001  -0.128833  -0.000579  3.982997  -0.001  -0.129711  -0.000444  4.001315  0.0  -0.087369  -0.128245  -0.000687  3.970739  -0.001
C  C37  1  0.97589910  0.22421560  0.93735943  1  -0.100179  0.001402  3.724451  0.001  -0.128642  0.00058  3.982654  0.001  -0.129524  0.000444  4.000996  0.0  -0.087329  -0.128055  0.000688  3.970394  0.001
C  C38  1  0.88387536  0.72760115  0.14517365  1  0.140085  -0.000363  3.78587  0.0  0.150766  -0.000258  4.054639  0.0  0.153238  -7.7e-05  4.075981  0.0  0.019103  0.148878  -0.000401  4.04025  0.0
C  C39  1  0.11612443  0.27240228  0.85482400  1  0.139955  0.00034  3.785777  0.0  0.150625  0.000256  4.05455  0.0  0.153093  7.7e-05  4.075895  0.0  0.019069  0.14874  0.000401  4.040158  0.0
C  C40  1  0.88563292  0.77122862  0.23474623  1  -0.100336  -0.00109  3.659901  -0.001  -0.134211  -0.000787  3.908774  -0.001  -0.134202  -0.000646  3.926101  -0.001  -0.076453  -0.134257  -0.00084  3.897208  -0.001
C  C41  1  0.11439120  0.22877141  0.76525027  1  -0.100429  0.001149  3.659781  0.001  -0.134192  0.00079  3.908604  0.001  -0.134184  0.000646  3.925929  0.001  -0.076474  -0.134234  0.000841  3.897038  0.001
N  N42  1  0.44919833  0.35404208  0.52243888  1  0.475736  -2.3e-05  3.937265  0.0  0.528033  -2.1e-05  4.200739  0.0  0.550004  -1.4e-05  4.208059  0.0  0.055126  0.513242  -2.9e-05  4.196072  0.0
N  N43  1  0.55079067  0.64595453  0.47756467  1  0.475608  -1.2e-05  3.937445  0.0  0.527977  2.3e-05  4.200812  0.0  0.549962  1.2e-05  4.208117  0.0  0.055113  0.513186  2.9e-05  4.196146  0.0
N  N44  1  0.28494788  0.02497949  0.15853129  1  0.481209  -0.000323  3.949926  0.0  0.545659  -0.00023  4.201383  0.0  0.567915  -0.000147  4.205916  0.0  0.065263  0.530537  -0.000299  4.198526  0.0
N  N45  1  0.71504809  0.97502310  0.84146222  1  0.481062  0.000314  3.95001  0.0  0.545561  0.000232  4.201429  0.0  0.567819  0.000148  4.20595  0.0  0.06518  0.530439  0.000299  4.198574  0.0
Cl  Cl46  1  0.39714949  0.36525887  0.09692581  1  -0.088016  -3.2e-05  1.407503  0.0  -0.07816  -1.1e-05  1.64805  0.0  -0.081993  -1.7e-05  1.640935  0.0  0.011279  -0.075129  -4e-06  1.652933  0.0
Cl  Cl47  1  0.60285594  0.63474626  0.90307802  1  -0.087997  2.8e-05  1.407643  0.0  -0.078181  1e-05  1.648136  0.0  -0.082015  1.7e-05  1.641025  0.0  0.011275  -0.075152  4e-06  1.653014  0.0
Cl  Cl48  1  0.70441409  0.61056687  0.13711421  1  -0.08078  -0.000453  1.406349  -0.001  -0.065009  -0.000254  1.644836  0.0  -0.070268  -0.000127  1.640906  0.0  0.013386  -0.060922  -0.000382  1.647557  0.0
Cl  Cl49  1  0.29560579  0.38943485  0.86288228  1  -0.080774  0.000452  1.406255  0.001  -0.064995  0.000253  1.644719  0.0  -0.070256  0.000127  1.64079  0.0  0.013375  -0.06091  0.000382  1.647439  0.0
O  O50  1  0.37167246  0.90757515  0.54376029  1  -0.610124  -0.061044  2.215277  -0.079  -0.586494  -0.042706  2.519314  -0.06  -0.633086  -0.035263  2.506606  -0.052  -0.314844  -0.553702  -0.044563  2.527539  -0.06
O  O51  1  0.62833083  0.09241891  0.45623874  1  -0.610206  0.061036  2.215238  0.079  -0.586539  0.042706  2.519318  0.06  -0.633126  0.035261  2.506589  0.052  -0.314875  -0.553736  0.044552  2.527551  0.06
O  O52  1  0.00331193  0.18191228  0.40935477  1  -0.531922  -0.089705  2.098319  -0.118  -0.508988  -0.058705  2.371989  -0.085  -0.551844  -0.046886  2.366232  -0.072  -0.286882  -0.480117  -0.060873  2.375791  -0.085
O  O53  1  0.99667214  0.81809031  0.59064123  1  -0.532012  0.089694  2.098354  0.118  -0.50914  0.058704  2.372119  0.085  -0.551997  0.046888  2.366355  0.072  -0.286979  -0.480261  0.060879  2.375917  0.085
O  O54  1  0.63410741  0.29519244  0.56055027  1  -0.330447  4.4e-05  1.771699  0.0  -0.317042  2e-05  1.964178  0.0  -0.329286  4.5e-05  1.960846  0.0  -0.115123  -0.309464  -1.6e-05  1.966953  0.0
O  O55  1  0.36589080  0.70480844  0.43945123  1  -0.330415  -6.2e-05  1.771765  0.0  -0.317018  -1.6e-05  1.964208  0.0  -0.329309  -5.6e-05  1.960906  0.0  -0.115138  -0.309451  1.6e-05  1.966989  0.0
O  O56  1  0.28071949  0.41443744  0.56841112  1  -0.36062  0.000144  1.78115  0.0  -0.348777  4e-06  1.981551  0.0  -0.361583  2.3e-05  1.977978  0.0  -0.128144  -0.340315  -1.5e-05  1.984178  0.0
O  O57  1  0.71927700  0.58556172  0.43159417  1  -0.360586  -8.5e-05  1.781061  0.0  -0.348788  -1.1e-05  1.981456  0.0  -0.361584  -8e-06  1.977868  0.0  -0.128141  -0.340318  1.5e-05  1.984069  0.0
O  O58  1  0.21377445  0.97344928  0.35235671  1  -0.553463  -0.081012  2.083488  -0.106  -0.535507  -0.053053  2.361296  -0.077  -0.578106  -0.042278  2.353816  -0.065  -0.306044  -0.507156  -0.056092  2.366555  -0.078
O  O59  1  0.78622279  0.02654564  0.64763378  1  -0.553629  0.080995  2.083375  0.106  -0.535618  0.053045  2.361225  0.077  -0.57823  0.042271  2.353717  0.065  -0.306131  -0.507255  0.05608  2.366497  0.078
O  O60  1  0.15974948  0.11784953  0.59747616  1  -0.544305  -0.082671  2.077584  -0.108  -0.524608  -0.054246  2.354151  -0.078  -0.568105  -0.042961  2.347797  -0.066  -0.303173  -0.495606  -0.057777  2.358461  -0.08
O  O61  1  0.84023996  0.88215646  0.40252589  1  -0.54432  0.082666  2.077759  0.108  -0.524593  0.054243  2.354286  0.078  -0.568071  0.042958  2.347928  0.066  -0.303226  -0.495583  0.057772  2.358602  0.08
O  O62  1  0.13926577  0.11071849  0.17541992  1  -0.317653  -0.000153  1.765807  0.0  -0.318616  -8.8e-05  1.956916  0.0  -0.332465  1.9e-05  1.954367  0.0  -0.111977  -0.308986  -0.00022  1.958657  0.0
O  O63  1  0.86073243  0.88928238  0.82458374  1  -0.31759  0.000137  1.765872  0.0  -0.318539  8.7e-05  1.956939  0.0  -0.332416  -2.4e-05  1.954435  0.0  -0.111919  -0.308908  0.000219  1.958678  0.0
O  O64  1  0.52727527  0.02395366  0.13634379  1  -0.338468  -6.4e-05  1.769008  0.0  -0.33939  -0.000126  1.963546  0.0  -0.353589  -0.000103  1.960625  0.0  -0.119282  -0.32963  -0.000156  1.965649  0.0
O  O65  1  0.47272281  0.97604807  0.86365476  1  -0.33839  8.4e-05  1.76894  0.0  -0.339337  0.000127  1.963459  0.0  -0.353535  0.000104  1.960538  0.0  -0.119261  -0.329579  0.000157  1.965563  0.0
