# generated using pymatgen
data_CdH7C4N3Cl2
_symmetry_space_group_name_H-M   'P 1'
_cell_length_a   8.36800416
_cell_length_b   8.84927565
_cell_length_c   10.85068536
_cell_angle_alpha   89.97350168
_cell_angle_beta   87.37133991
_cell_angle_gamma   80.22706767
_symmetry_Int_Tables_number   1
_chemical_formula_structural   CdH7C4N3Cl2
_chemical_formula_sum   'Cd4 H28 C16 N12 Cl8'
_cell_volume   790.98631514
_cell_formula_units_Z   4
loop_
 _symmetry_equiv_pos_site_id
 _symmetry_equiv_pos_as_xyz
  1  'x, y, z'
loop_
 _atom_site_type_symbol
 _atom_site_label
 _atom_site_symmetry_multiplicity
 _atom_site_fract_x
 _atom_site_fract_y
 _atom_site_fract_z
 _atom_site_occupancy
 _atom_site_pbe_bader_spin_density
 _atom_site_pbe_cm5_charge
 _atom_site_pbe_ddec_charge
 _atom_site_pbe_ddec_spin_density
 _atom_site_pbe_ddec_sum_bond_order
 _atom_site_pbe_magmom
Cd  Cd0  1  0.21472362  0.75306868  0.24239675  1  0  0.594402  0.742416  0  2.461039  0
Cd  Cd1  1  0.78527476  0.24693275  0.75760546  1  0  0.594432  0.742503  0  2.460929  0
Cd  Cd2  1  0.99999737  0.00000230  0.49999690  1  0  0.60473  0.777504  0  2.392947  0
Cd  Cd3  1  0.00000065  0.00000551  0.99999974  1  0  0.629695  0.787194  0  2.396249  0
H  H4  1  0.58528188  0.17972359  0.34685802  1  0  0.345416  0.323429  0  0.870897  0
H  H5  1  0.41471553  0.82026868  0.65314360  1  0  0.345385  0.323449  0  0.870867  0
H  H6  1  0.70293635  0.50910084  0.06367953  1  0  0.330156  0.317337  0  0.90035  0
H  H7  1  0.29707030  0.49091354  0.93630799  1  0  0.330073  0.317345  0  0.90036  0
H  H8  1  0.41409406  0.31028456  0.57297345  1  0  0.092886  0.153538  0  1.024831  0
H  H9  1  0.58590422  0.68971816  0.42703242  1  0  0.092876  0.153524  0  1.024862  0
H  H10  1  0.20124675  0.31115318  0.55533582  1  0  0.091352  0.156744  0  1.028759  0
H  H11  1  0.79873174  0.68884372  0.44465932  1  0  0.091349  0.156748  0  1.028878  0
H  H12  1  0.31742668  0.40259279  0.44517289  1  0  0.090127  0.154884  0  1.02543  0
H  H13  1  0.68257696  0.59740209  0.55481171  1  0  0.090161  0.154908  0  1.025398  0
H  H14  1  0.72550789  0.88820230  0.24912288  1  0  0.086699  0.154878  0  1.035199  0
H  H15  1  0.27449926  0.11179146  0.75089108  1  0  0.086715  0.154903  0  1.035131  0
H  H16  1  0.60367800  0.95852339  0.12637946  1  0  0.087198  0.154239  0  1.036852  0
H  H17  1  0.39632835  0.04147193  0.87361697  1  0  0.087207  0.154268  0  1.036872  0
H  H18  1  0.57257947  0.78391574  0.19995279  1  0  0.085096  0.144558  0  1.059185  0
H  H19  1  0.42741663  0.21607115  0.80005645  1  0  0.085134  0.144609  0  1.059214  0
H  H20  1  0.69274546  0.66181126  0.83283713  1  0  0.082456  0.154494  0  1.054149  0
H  H21  1  0.30726375  0.33818188  0.16716289  1  0  0.082471  0.154538  0  1.0541  0
H  H22  1  0.77152747  0.83884127  0.84136689  1  0  0.090177  0.148887  0  1.039069  0
H  H23  1  0.22848992  0.16118238  0.15862806  1  0  0.090248  0.148978  0  1.039089  0
H  H24  1  0.59083741  0.81302934  0.92794261  1  0  0.090417  0.160461  0  1.022441  0
H  H25  1  0.40915805  0.18698372  0.07206309  1  0  0.090397  0.160497  0  1.022485  0
H  H26  1  0.94569974  0.32901941  0.21780103  1  0  0.088937  0.15596  0  1.033439  0
H  H27  1  0.05429711  0.67096528  0.78218333  1  0  0.088917  0.155995  0  1.033598  0
H  H28  1  0.80595226  0.45673224  0.31072276  1  0  0.095751  0.161613  0  1.004063  0
H  H29  1  0.19402879  0.54327300  0.68928120  1  0  0.095742  0.161617  0  1.004193  0
H  H30  1  0.01667862  0.46347804  0.31604813  1  0  0.096699  0.161037  0  1.000798  0
H  H31  1  0.98333566  0.53652736  0.68394663  1  0  0.096694  0.161036  0  1.000777  0
C  C32  1  0.35561360  0.15992637  0.43366828  1  0  0.237082  0.410473  0  3.949767  0
C  C33  1  0.64439523  0.84006236  0.56633559  1  0  0.237211  0.41072  0  3.949843  0
C  C34  1  0.31987311  0.30339773  0.50677697  1  0  -0.241499  -0.48369  0  3.907298  0
C  C35  1  0.68012626  0.69660478  0.49322423  1  0  -0.241518  -0.483714  0  3.90765  0
C  C36  1  0.48224538  0.98319420  0.30304236  1  0  0.237085  0.410489  0  3.968594  0
C  C37  1  0.51776140  0.01679750  0.69694955  1  0  0.237015  0.410516  0  3.968502  0
C  C38  1  0.60306354  0.89781737  0.21466293  1  0  -0.253767  -0.497954  0  3.928453  0
C  C39  1  0.39695061  0.10216633  0.78533250  1  0  -0.25388  -0.498147  0  3.928525  0
C  C40  1  0.81084906  0.69779023  0.99718780  1  0  0.240279  0.413699  0  3.95306  0
C  C41  1  0.18914381  0.30221591  0.00281549  1  0  0.240349  0.413856  0  3.952682  0
C  C42  1  0.71171698  0.75623079  0.89317684  1  0  -0.249509  -0.494235  0  3.909221  0
C  C43  1  0.28829056  0.24377928  0.10681722  1  0  -0.249617  -0.494458  0  3.909381  0
C  C44  1  0.90510384  0.56215844  0.15685667  1  0  0.237469  0.406725  0  3.953946  0
C  C45  1  0.09489674  0.43783739  0.84314929  1  0  0.237434  0.406667  0  3.954109  0
C  C46  1  0.92045914  0.44635022  0.25527203  1  0  -0.241153  -0.483033  0  3.915676  0
C  C47  1  0.07954326  0.55363415  0.74473417  1  0  -0.241161  -0.483101  0  3.916078  0
N  N48  1  0.34412177  0.94173202  0.34203840  1  0  -0.254611  -0.275753  0  3.413869  0
N  N49  1  0.65588048  0.05826834  0.65796733  1  0  -0.254589  -0.275616  0  3.4138  0
N  N50  1  0.26504193  0.05130172  0.42446687  1  0  -0.246023  -0.270491  0  3.373958  0
N  N51  1  0.73495412  0.94869987  0.57553823  1  0  -0.246095  -0.270729  0  3.374025  0
N  N52  1  0.49269193  0.11917164  0.35898925  1  0  -0.360501  -0.32595  0  3.496614  0
N  N53  1  0.50731015  0.88081364  0.64101141  1  0  -0.360451  -0.326073  0  3.496528  0
N  N54  1  0.99157626  0.67346804  0.13954627  1  0  -0.246525  -0.26613  0  3.384689  0
N  N55  1  0.00841724  0.32654002  0.86044862  1  0  -0.2465  -0.266033  0  3.384773  0
N  N56  1  0.93185057  0.75816712  0.03986004  1  0  -0.255789  -0.264647  0  3.423492  0
N  N57  1  0.06814008  0.24184458  0.96013859  1  0  -0.25578  -0.264711  0  3.423414  0
N  N58  1  0.79260195  0.57393291  0.06820065  1  0  -0.361194  -0.328674  0  3.509213  0
N  N59  1  0.20740529  0.42607291  0.93180094  1  0  -0.361112  -0.328734  0  3.508974  0
Cl  Cl60  1  0.10719295  0.71152981  0.46565738  1  0  -0.275975  -0.446923  0  1.349236  0
Cl  Cl61  1  0.89279863  0.28847620  0.53434229  1  0  -0.27596  -0.446937  0  1.349234  0
Cl  Cl62  1  0.29297008  0.84637331  0.02099881  1  0  -0.291148  -0.472352  0  1.322624  0
Cl  Cl63  1  0.70702576  0.15362938  0.97900535  1  0  -0.29116  -0.472401  0  1.322662  0
Cl  Cl64  1  0.45438601  0.53224033  0.23823175  1  0  -0.342465  -0.545906  0  1.094299  0
Cl  Cl65  1  0.54560987  0.46776244  0.76177424  1  0  -0.342467  -0.545945  0  1.094298  0
Cl  Cl66  1  0.03711160  0.96907140  0.74800039  1  0  -0.29673  -0.512435  0  1.356569  0
Cl  Cl67  1  0.96288465  0.03093574  0.25200084  1  0  -0.296743  -0.512465  0  1.35666  0
