# generated using pymatgen
data_Zn4H34C44BrN21O10
_symmetry_space_group_name_H-M   'P 1'
_cell_length_a   14.92231033
_cell_length_b   14.53430085
_cell_length_c   14.84349184
_cell_angle_alpha   110.72820125
_cell_angle_beta   103.35659917
_cell_angle_gamma   112.23083164
_symmetry_Int_Tables_number   1
_chemical_formula_structural   Zn4H34C44BrN21O10
_chemical_formula_sum   'Zn4 H34 C44 Br1 N21 O10'
_cell_volume   2527.44568086
_cell_formula_units_Z   1
loop_
 _symmetry_equiv_pos_site_id
 _symmetry_equiv_pos_as_xyz
  1  'x, y, z'
loop_
 _atom_site_type_symbol
 _atom_site_label
 _atom_site_symmetry_multiplicity
 _atom_site_fract_x
 _atom_site_fract_y
 _atom_site_fract_z
 _atom_site_occupancy
 _atom_site_pbe_bader_charge
 _atom_site_pbe_bader_spin_density
 _atom_site_pbe_cm5_charge
 _atom_site_pbe_ddec_charge
 _atom_site_pbe_ddec_spin_density
 _atom_site_pbe_ddec_sum_bond_order
 _atom_site_pbe_magmom
Zn  Zn0  1  0.36265842  0.86925955  0.00355129  1  1.188647  0  0.751357  0.59246  0  2.551731  0
Zn  Zn1  1  0.66345931  0.13948521  0.99103979  1  1.237677  0  0.728657  0.643688  0  2.380789  0
Zn  Zn2  1  0.49884136  0.15377890  0.14598518  1  1.247917  0  0.720171  0.634757  0  2.447508  0
Zn  Zn3  1  0.49878195  0.85769177  0.86143501  1  1.188319  0  0.745726  0.588365  0  2.547796  0
H  H4  1  0.19286150  0.83222301  0.80166311  1  0.13037  0  0.106332  0.089601  0  1.073539  0
H  H5  1  0.54045160  0.20267651  0.82744123  1  0.071123  0  0.117778  0.107584  0  0.997605  0
H  H6  1  0.31605339  0.62177467  0.64403036  1  0.088014  0  0.121674  0.112076  0  0.98938  0
H  H7  1  0.75679474  0.43975550  0.05850676  1  0.099954  0  0.124305  0.117175  0  0.986131  0
H  H8  1  0.13316537  0.63450030  0.83124798  1  0.081624  0  0.12212  0.116065  0  0.985568  0
H  H9  1  0.32870639  0.83667346  0.67054906  1  0.094711  0  0.110074  0.092866  0  1.040949  0
H  H10  1  0.31843191  0.19244076  0.00677173  1  0.117654  0  0.122961  0.111338  0  0.98638  0
H  H11  1  0.50150403  0.84917856  0.19411777  1  0.110194  0  0.123695  0.115002  0  0.983395  0
H  H12  1  0.46150538  0.16796167  0.36186064  1  0.096942  0  0.126274  0.118393  0  0.978366  0
H  H13  1  0.63695189  0.76676125  0.73419060  1  0.127863  0  0.120835  0.119346  0  0.999079  0
H  H14  1  0.86106715  0.12898769  0.93566317  1  0.120993  0  0.114503  0.107017  0  1.026193  0
H  H15  1  0.23462675  0.80717709  0.15079101  1  0.163279  0  0.124275  0.123439  0  1.011529  0
H  H16  1  0.69034621  0.85431843  0.01070837  1  0.106088  0  0.124366  0.11523  0  0.990026  0
H  H17  1  0.67116225  0.19166755  0.35352575  1  0.159612  0  0.119005  0.115773  0  1.0374  0
H  H18  1  0.12626843  0.55436902  0.48844070  1  0.082077  0  0.105666  0.089063  0  0.958216  0
H  H19  1  0.89567377  0.48322870  0.43537693  1  0.058827  0  0.096856  0.108614  0  0.987388  0
H  H20  1  0.95638077  0.44753579  0.35038787  1  0.06696  0  0.101793  0.117402  0  1.003064  0
H  H21  1  0.16765320  0.42142750  0.52871538  1  0.022808  0  0.093376  0.092513  0  0.98162  0
H  H22  1  0.01934048  0.29735048  0.36602784  1  0.079077  0  0.094469  0.106249  0  1.019873  0
H  H23  1  0.99735998  0.43239093  0.68002714  1  0.061655  0  0.105947  0.114402  0  0.980271  0
H  H24  1  0.96833207  0.52890986  0.65048480  1  0.087739  0  0.098786  0.109053  0  0.985202  0
H  H25  1  0.81606061  0.37276345  0.50565489  1  0.099051  0  0.123945  0.095032  0  0.958973  0
H  H26  1  0.10164617  0.35651241  0.59266932  1  0.050166  0  0.098183  0.106149  0  0.97735  0
H  H27  1  0.96413981  0.21791713  0.42505224  1  0.057985  0  0.095593  0.103495  0  0.98847  0
H  H28  1  0.38867325  0.06311870  0.45893008  1  0.072583  0  0.111377  0.1117  0  0.993356  0
H  H29  1  0.24111963  0.84799120  0.52083714  1  0.123622  0  0.097401  0.105259  0  1.055267  0
H  H30  1  0.40844240  0.10044344  0.61003911  1  0.046297  0  0.098453  0.093743  0  1.001263  0
H  H31  1  0.79927743  0.63784639  0.13256375  1  0.061181  0  0.104535  0.098337  0  0.98433  0
H  H32  1  0.62751926  0.60018273  0.22009103  1  0.088583  0  0.102025  0.105827  0  1.0246  0
H  H33  1  0.77699972  0.78308003  0.11218371  1  0.044063  0  0.102135  0.100909  0  0.990096  0
H  H34  1  0.62457569  0.75233604  0.22203115  1  0.07175  0  0.108267  0.107411  0  0.978969  0
H  H35  1  0.95662571  0.10539436  0.85154549  1  0.076403  0  0.107258  0.106189  0  0.992678  0
H  H36  1  0.12682739  0.14504614  0.89495103  1  0.020479  0  0.098747  0.095507  0  0.992319  0
H  H37  1  0.05524788  0.89536595  0.75140106  1  0.14882  0  0.102975  0.112393  0  1.055472  0
C  C38  1  0.23925628  0.92146011  0.86259723  1  0.415398  0  0.018135  -0.029069  0  3.940709  0
C  C39  1  0.49751728  0.11267563  0.80361715  1  0.43186  0  0.00887  -0.054369  0  3.953245  0
C  C40  1  0.60401850  0.38844943  0.18116205  1  0.848717  0  0.176101  0.073692  0  4.002735  0
C  C41  1  0.28635093  0.63903754  0.70475150  1  0.405798  0  0.003962  -0.065236  0  4.001151  0
C  C42  1  0.70486747  0.41136784  0.09517723  1  0.407398  0  0.012002  -0.063131  0  3.924367  0
C  C43  1  0.19323523  0.64496830  0.80005103  1  0.383323  0  0.003722  -0.064304  0  4.009691  0
C  C44  1  0.38973853  0.92576814  0.72340790  1  0.418609  0  0.012738  -0.035835  0  3.935804  0
C  C45  1  0.30251807  0.10557039  0.96712497  1  0.421862  0  0.023976  -0.02522  0  3.910791  0
C  C46  1  0.21428610  0.00823690  0.87390579  1  0.026043  0  -0.034265  0.000401  0  4.091989  0
C  C47  1  0.41068274  0.02060975  0.70753211  1  0.008306  0  -0.037403  0.012333  0  4.102663  0
C  C48  1  0.66927643  0.47266217  0.16086784  1  0.016281  0  -0.011743  0.010845  0  4.058795  0
C  C49  1  0.18197743  0.58721558  0.69645725  1  -0.002723  0  -0.039874  -0.054347  0  4.053334  0
C  C50  1  0.53882094  0.85672216  0.14031923  1  0.424616  0  0.020204  -0.038327  0  3.936363  0
C  C51  1  0.80276914  0.22328043  0.20918865  1  0.800191  0  0.180441  0.078757  0  3.940016  0
C  C52  1  0.41186955  0.08071798  0.29671959  1  0.441099  0  0.027995  -0.026017  0  3.927655  0
C  C53  1  0.67838830  0.85790069  0.78726397  1  0.422142  0  0.007442  -0.044454  0  3.985583  0
C  C54  1  0.79312806  0.04282182  0.89019549  1  0.405707  0  0.002656  -0.048532  0  3.983893  0
C  C55  1  0.29462581  0.89630160  0.18859040  1  0.429312  0  0.02579  -0.024506  0  3.944201  0
C  C56  1  0.63627442  0.86015885  0.04754416  1  0.433463  0  0.021026  -0.030105  0  3.909413  0
C  C57  1  0.70461860  0.19487181  0.29637419  1  0.329363  0  0.00535  -0.069521  0  3.940408  0
C  C58  1  0.62347083  0.83824179  0.13077475  1  0.021733  0  -0.035588  -0.001181  0  4.111332  0
C  C59  1  0.81172105  0.25147289  0.31439212  1  0.046942  0  -0.006019  -0.047086  0  3.905651  0
C  C60  1  0.33430112  0.98399312  0.29383800  1  0.082855  0  -0.033807  0.005519  0  4.112847  0
C  C61  1  0.78308403  0.94188225  0.81675181  1  0.031202  0  -0.042281  -0.055249  0  4.126424  0
C  C62  1  0.06307134  0.53969005  0.51653773  1  -0.029394  0  -0.06258  0.032357  0  3.691099  0
C  C63  1  0.95243373  0.45403787  0.42488893  1  -0.035758  0  -0.163655  -0.24454  0  3.85717  0
C  C64  1  0.09346008  0.39258992  0.53964930  1  -0.038192  0  -0.158137  -0.18652  0  3.857797  0
C  C65  1  0.98301175  0.45783736  0.61924963  1  -0.064638  0  -0.156181  -0.237708  0  3.847271  0
C  C66  1  0.08253647  0.49743112  0.59698744  1  0.095141  0  -0.012246  0.100928  0  3.857422  0
C  C67  1  0.90871890  0.33486694  0.41891971  1  0.067773  0  0.002913  0.119192  0  3.78102  0
C  C68  1  0.99652979  0.30276545  0.43185520  1  -0.051677  0  -0.170221  -0.213711  0  3.878771  0
C  C69  1  0.88274611  0.35671119  0.51781742  1  0.175283  0  0.01542  -0.025398  0  3.665912  0
C  C70  1  0.25891053  0.91096011  0.41208905  1  0.276422  0  0.064741  0.049484  0  3.945262  0
C  C71  1  0.32333203  0.98523518  0.38724479  1  -0.042348  0  -0.06171  -0.117071  0  3.94315  0
C  C72  1  0.28639148  0.92562340  0.51862867  1  -0.080199  0  -0.1116  -0.170928  0  4.046951  0
C  C73  1  0.36646844  0.02005293  0.60971798  1  0.010094  0  -0.092619  -0.098566  0  4.025924  0
C  C74  1  0.74325951  0.65619850  0.16075728  1  -0.03149  0  -0.079086  -0.050126  0  3.999702  0
C  C75  1  0.68073139  0.58231002  0.18671071  1  0.001506  0  -0.094102  -0.129112  0  4.007601  0
C  C76  1  0.73331398  0.74776545  0.15265837  1  -0.023058  0  -0.099237  -0.109014  0  4.038436  0
C  C77  1  0.66381779  0.78160289  0.17583404  1  -0.05747  0  -0.074426  -0.082707  0  3.980542  0
C  C78  1  0.96164146  0.02831381  0.81803150  1  0.002447  0  -0.073702  -0.097756  0  3.966145  0
C  C79  1  0.86638602  0.93233542  0.78603382  1  0.267025  0  0.073604  0.023625  0  3.924335  0
C  C80  1  0.06926202  0.05447007  0.83947213  1  0.036761  0  -0.104778  -0.109217  0  4.055882  0
C  C81  1  0.10978477  0.98337743  0.81466013  1  -0.12036  0  -0.070507  -0.065282  0  3.949526  0
Br  Br82  1  0.07480784  0.69115665  0.57963971  1  -0.138497  0  0.022337  -0.087204  0  1.396393  0
N  N83  1  0.33150458  0.96279253  0.94310277  1  -0.804604  0  -0.283676  -0.186175  0  3.615748  0
N  N84  1  0.52600200  0.07436379  0.86959191  1  -0.796885  0  -0.281228  -0.185157  0  3.616818  0
N  N85  1  0.60092596  0.28878038  0.13053201  1  -0.754616  0  -0.258504  -0.235723  0  3.55932  0
N  N86  1  0.35428915  0.72187514  0.80557162  1  -0.806312  0  -0.277526  -0.166286  0  3.562911  0
N  N87  1  0.66251228  0.30313940  0.07795553  1  -0.6852  0  -0.219298  -0.128898  0  3.464212  0
N  N88  1  0.29645672  0.72532759  0.86500987  1  -0.773592  0  -0.279806  -0.173013  0  3.561788  0
N  N89  1  0.45952689  0.95917507  0.81946888  1  -0.791543  0  -0.278585  -0.17311  0  3.629376  0
N  N90  1  0.37114611  0.07655785  0.00683702  1  -0.783551  0  -0.269123  -0.168338  0  3.581761  0
N  N91  1  0.50372245  0.88398964  0.06748098  1  -0.754206  0  -0.281592  -0.179826  0  3.640812  0
N  N92  1  0.69898773  0.15532137  0.13803403  1  -0.742923  0  -0.246542  -0.192057  0  3.604994  0
N  N93  1  0.41750557  0.05300090  0.20322139  1  -0.793268  0  -0.261109  -0.169821  0  3.496685  0
N  N94  1  0.63144678  0.90620481  0.83869196  1  -0.815239  0  -0.283041  -0.17172  0  3.608976  0
N  N95  1  0.70225986  0.02106523  0.90267155  1  -0.790888  0  -0.270361  -0.194249  0  3.516841  0
N  N96  1  0.34533809  0.93779654  0.13669649  1  -0.82846  0  -0.273391  -0.166651  0  3.569461  0
N  N97  1  0.56356541  0.88601965  0.01037788  1  -0.843077  0  -0.278454  -0.183357  0  3.610328  0
N  N98  1  0.63886331  0.13910755  0.19088595  1  -0.651514  0  -0.22697  -0.121986  0  3.485103  0
N  N99  1  0.87793820  0.26555688  0.16948681  1  0.286822  0  0.052912  0.502643  0  4.18703  0
N  N100  1  0.84126714  0.25204946  0.53293967  1  0.448742  0  0.050229  0.526977  0  4.125847  0
N  N101  1  0.16094152  0.80467080  0.33042696  1  0.335529  0  0.043599  0.516693  0  4.190632  0
N  N102  1  0.54676728  0.39303734  0.24361581  1  0.202223  0  0.035935  0.488496  0  4.198176  0
N  N103  1  0.84975655  0.81866811  0.73227617  1  0.300575  0  0.039993  0.517887  0  4.192341  0
O  O104  1  0.84193588  0.25046833  0.07595443  1  -0.532154  0  -0.143765  -0.346217  0  2.061913  0
O  O105  1  0.97507911  0.31885816  0.22603414  1  -0.453746  0  -0.116748  -0.306242  0  1.930293  0
O  O106  1  0.90585096  0.22559246  0.56712572  1  -0.448617  0  -0.122541  -0.319626  0  1.912717  0
O  O107  1  0.74466023  0.20054245  0.51104602  1  -0.473432  0  -0.145887  -0.354806  0  1.892016  0
O  O108  1  0.10594917  0.74219646  0.35926392  1  -0.473823  0  -0.163729  -0.370462  0  1.90869  0
O  O109  1  0.13488365  0.78188096  0.23566362  1  -0.500494  0  -0.167364  -0.380663  0  1.933165  0
O  O110  1  0.54406428  0.48082716  0.29062917  1  -0.449578  0  -0.138053  -0.323384  0  1.867831  0
O  O111  1  0.49736167  0.30262422  0.25027150  1  -0.567084  0  -0.188767  -0.394795  0  2.015223  0
O  O112  1  0.89816912  0.80154582  0.67542049  1  -0.485039  0  -0.162486  -0.374727  0  1.955066  0
O  O113  1  0.78682151  0.74160568  0.74326459  1  -0.494022  0  -0.179673  -0.390614  0  1.879397  0
