# generated using pymatgen
data_AgH13C13S(NO)4
_symmetry_space_group_name_H-M   'P 1'
_cell_length_a   7.83451206
_cell_length_b   9.58937150
_cell_length_c   10.67218728
_cell_angle_alpha   90.62358444
_cell_angle_beta   70.21666890
_cell_angle_gamma   76.89941679
_symmetry_Int_Tables_number   1
_chemical_formula_structural   AgH13C13S(NO)4
_chemical_formula_sum   'Ag2 H26 C26 S2 N8 O8'
_cell_volume   731.45874820
_cell_formula_units_Z   2
loop_
 _symmetry_equiv_pos_site_id
 _symmetry_equiv_pos_as_xyz
  1  'x, y, z'
loop_
 _atom_site_type_symbol
 _atom_site_label
 _atom_site_symmetry_multiplicity
 _atom_site_fract_x
 _atom_site_fract_y
 _atom_site_fract_z
 _atom_site_occupancy
 _atom_site_hle17_bader_spin_density
 _atom_site_hle17_ddec_charge
 _atom_site_hle17_ddec_spin_density
 _atom_site_hle17_ddec_sum_bond_order
 _atom_site_hle17_magmom
 _atom_site_hse06_10hf_bader_spin_density
 _atom_site_hse06_10hf_ddec_charge
 _atom_site_hse06_10hf_ddec_spin_density
 _atom_site_hse06_10hf_ddec_sum_bond_order
 _atom_site_hse06_10hf_magmom
 _atom_site_hse06_bader_spin_density
 _atom_site_hse06_ddec_charge
 _atom_site_hse06_ddec_spin_density
 _atom_site_hse06_ddec_sum_bond_order
 _atom_site_hse06_magmom
 _atom_site_pbe_bader_spin_density
 _atom_site_pbe_cm5_charge
 _atom_site_pbe_ddec_charge
 _atom_site_pbe_ddec_spin_density
 _atom_site_pbe_ddec_sum_bond_order
 _atom_site_pbe_magmom
Ag  Ag0  1  0.69034137  0.94558085  0.58422012  1  0  0.477819  0  1.490676  0  0  0.341003  0  1.94851  0  0  0.368232  0  1.90298  0  0  0.424138  0.321896  0  1.979596  0
Ag  Ag1  1  0.30965770  0.05441900  0.41577997  1  0  0.477806  0  1.4907  0  0  0.34098  0  1.948541  0  0  0.36821  0  1.90301  0  0  0.424127  0.321874  0  1.979623  0
H  H2  1  0.18475371  0.12929162  0.94010024  1  0  0.294876  0  0.938624  0  0  0.272579  0  1.010166  0  0  0.281342  0  1.002841  0  0  0.305106  0.266488  0  1.015068  0
H  H3  1  0.81524672  0.87070825  0.05990044  1  0  0.294886  0  0.938658  0  0  0.272589  0  1.010208  0  0  0.281354  0  1.002881  0  0  0.305099  0.266499  0  1.015107  0
H  H4  1  0.39661990  0.96644735  0.81894320  1  0  0.299551  0  0.935557  0  0  0.277662  0  1.009071  0  0  0.287138  0  1.000023  0  0  0.303539  0.27102  0  1.015355  0
H  H5  1  0.60337852  0.03355034  0.18105704  1  0  0.29951  0  0.935581  0  0  0.277617  0  1.009084  0  0  0.287092  0  1.000041  0  0  0.303517  0.270977  0  1.015361  0
H  H6  1  0.61051091  0.27836783  0.74297338  1  0  0.151527  0  0.9497  0  0  0.171185  0  1.007228  0  0  0.173244  0  1.00598  0  0  0.105359  0.169578  0  1.008303  0
H  H7  1  0.38948951  0.72163204  0.25702730  1  0  0.151528  0  0.949691  0  0  0.171183  0  1.007219  0  0  0.173243  0  1.005971  0  0  0.105363  0.169577  0  1.00829  0
H  H8  1  0.49683814  0.32293746  0.62267096  1  0  0.128839  0  0.972509  0  0  0.143682  0  1.038886  0  0  0.144554  0  1.039815  0  0  0.097894  0.142872  0  1.038643  0
H  H9  1  0.50316023  0.67706456  0.37733118  1  0  0.128822  0  0.972506  0  0  0.143667  0  1.03889  0  0  0.144539  0  1.039816  0  0  0.097867  0.142856  0  1.038648  0
H  H10  1  0.67914228  0.40663144  0.62740840  1  0  0.124964  0  0.96078  0  0  0.144653  0  1.019704  0  0  0.145168  0  1.021676  0  0  0.095596  0.144625  0  1.017796  0
H  H11  1  0.32085950  0.59336844  0.37259194  1  0  0.124939  0  0.960749  0  0  0.144627  0  1.019684  0  0  0.145142  0  1.021657  0  0  0.095601  0.144599  0  1.01777  0
H  H12  1  0.97069353  0.44842256  0.70338248  1  0  0.111602  0  0.980129  0  0  0.115513  0  1.05032  0  0  0.1196  0  1.048292  0  0  0.100848  0.112491  0  1.052235  0
H  H13  1  0.02930925  0.55157840  0.29661761  1  0  0.111589  0  0.980116  0  0  0.115529  0  1.050284  0  0  0.119617  0  1.048254  0  0  0.100862  0.112507  0  1.0522  0
H  H14  1  0.05496844  0.01840894  0.28689671  1  0  0.105135  0  1.015486  0  0  0.107714  0  1.09469  0  0  0.112055  0  1.090504  0  0  0.091679  0.104746  0  1.09753  0
H  H15  1  0.94502992  0.98159308  0.71310450  1  0  0.105105  0  1.015527  0  0  0.107677  0  1.094741  0  0  0.112018  0  1.090557  0  0  0.091662  0.104709  0  1.097585  0
H  H16  1  0.93355257  0.30868094  0.00736641  1  0  0.105887  0  0.977502  0  0  0.11538  0  1.041165  0  0  0.118681  0  1.039124  0  0  0.103328  0.113135  0  1.042481  0
H  H17  1  0.06644785  0.69131893  0.99263333  1  0  0.105842  0  0.977579  0  0  0.115333  0  1.041245  0  0  0.118632  0  1.039205  0  0  0.103309  0.113089  0  1.04256  0
H  H18  1  0.67093373  0.46472704  0.19255019  1  0  0.085804  0  0.954459  0  0  0.09997  0  1.012307  0  0  0.101784  0  1.012116  0  0  0.09999  0.098591  0  1.012739  0
H  H19  1  0.32906633  0.53527390  0.80744872  1  0  0.085762  0  0.954519  0  0  0.099928  0  1.012371  0  0  0.101742  0  1.012178  0  0  0.099965  0.09855  0  1.012808  0
H  H20  1  0.60084353  0.40177413  0.42631221  1  0  0.090852  0  0.980797  0  0  0.103954  0  1.042897  0  0  0.106545  0  1.042023  0  0  0.09691  0.10223  0  1.043283  0
H  H21  1  0.39915618  0.59822788  0.57368679  1  0  0.090853  0  0.980769  0  0  0.103954  0  1.042869  0  0  0.106545  0  1.041996  0  0  0.09692  0.10223  0  1.043258  0
H  H22  1  0.49742502  0.68616606  0.03875791  1  0  0.120457  0  0.994668  0  0  0.126794  0  1.058942  0  0  0.130794  0  1.057084  0  0  0.105539  0.124059  0  1.060315  0
H  H23  1  0.50257440  0.31383272  0.96124114  1  0  0.120435  0  0.99468  0  0  0.126764  0  1.058968  0  0  0.130764  0  1.05711  0  0  0.105533  0.124028  0  1.060343  0
H  H24  1  0.76368655  0.46894874  0.94567763  1  0  0.090673  0  0.955072  0  0  0.104802  0  1.011151  0  0  0.106761  0  1.00963  0  0  0.107954  0.103379  0  1.012127  0
H  H25  1  0.23631758  0.53105223  0.05432212  1  0  0.09068  0  0.955073  0  0  0.104809  0  1.011148  0  0  0.106768  0  1.009629  0  0  0.107957  0.103387  0  1.012126  0
H  H26  1  0.89354089  0.64689588  0.56604102  1  0  0.076259  0  0.950976  0  0  0.088385  0  1.011835  0  0  0.090169  0  1.010083  0  0  0.110527  0.087148  0  1.012971  0
H  H27  1  0.10645817  0.35310398  0.43395813  1  0  0.076261  0  0.95097  0  0  0.088388  0  1.011825  0  0  0.090174  0  1.010072  0  0  0.110532  0.087149  0  1.012965  0
C  C28  1  0.62840050  0.30832860  0.64138258  1  0  -0.331856  0  3.613931  0  0  -0.405722  0  3.860588  0  0  -0.407025  0  3.86935  0  0  -0.230788  -0.405078  0  3.854893  0
C  C29  1  0.37159922  0.69167342  0.35861829  1  0  -0.331786  0  3.613885  0  0  -0.405658  0  3.860551  0  0  -0.406963  0  3.869316  0  0  -0.230761  -0.405014  0  3.854845  0
C  C30  1  0.82553549  0.20728978  0.37087542  1  0  0.05415  0  3.803355  0  0  0.077015  0  4.04947  0  0  0.079494  0  4.074277  0  0  -0.013564  0.075155  0  4.032885  0
C  C31  1  0.17446287  0.79271222  0.62912392  1  0  0.05414  0  3.803346  0  0  0.076998  0  4.049473  0  0  0.079478  0  4.074279  0  0  -0.013582  0.075139  0  4.032888  0
C  C32  1  0.97079751  0.11615518  0.26688152  1  0  -0.219317  0  3.717974  0  0  -0.245067  0  3.967315  0  0  -0.251347  0  3.986731  0  0  -0.111434  -0.240774  0  3.954328  0
C  C33  1  0.02920256  0.88384577  0.73311925  1  0  -0.219326  0  3.717975  0  0  -0.245085  0  3.967351  0  0  -0.251367  0  3.98677  0  0  -0.111442  -0.240791  0  3.954365  0
C  C34  1  0.01138523  0.15383304  0.13553472  1  0  0.288595  0  3.770476  0  0  0.284232  0  4.014712  0  0  0.293796  0  4.035594  0  0  0.099413  0.277759  0  4.000543  0
C  C35  1  0.98861384  0.84616681  0.86446537  1  0  0.288617  0  3.77046  0  0  0.284272  0  4.014694  0  0  0.293838  0  4.035576  0  0  0.099413  0.277802  0  4.000522  0
C  C36  1  0.90084689  0.28041465  0.10993190  1  0  -0.179191  0  3.715816  0  0  -0.202827  0  3.973339  0  0  -0.208454  0  3.993307  0  0  -0.102735  -0.198838  0  3.959442  0
C  C37  1  0.09915454  0.71958631  0.89006854  1  0  -0.179137  0  3.715834  0  0  -0.202769  0  3.973345  0  0  -0.208393  0  3.993311  0  0  -0.102697  -0.198774  0  3.959448  0
C  C38  1  0.75468617  0.36703689  0.21386868  1  0  -0.0312  0  3.798584  0  0  -0.048114  0  4.0577  0  0  -0.046733  0  4.078384  0  0  -0.091973  -0.048772  0  4.043418  0
C  C39  1  0.24531424  0.63296297  0.78613013  1  0  -0.03113  0  3.79863  0  0  -0.048047  0  4.057731  0  0  -0.046664  0  4.078415  0  0  -0.09196  -0.048715  0  4.04347  0
C  C40  1  0.71518620  0.33224792  0.34591256  1  0  -0.136656  0  3.75474  0  0  -0.160727  0  4.004793  0  0  -0.165335  0  4.02698  0  0  -0.109289  -0.157484  0  3.989352  0
C  C41  1  0.28481252  0.66775302  0.65408856  1  0  -0.136673  0  3.754659  0  0  -0.160735  0  4.004704  0  0  -0.165344  0  4.026893  0  0  -0.109275  -0.15749  0  3.989269  0
C  C42  1  0.28217380  0.94659879  0.02185616  1  0  0.736796  0  3.831689  0  0  0.665158  0  4.140096  0  0  0.700222  0  4.135581  0  0  0.332568  0.641408  0  4.142251  0
C  C43  1  0.71782426  0.05339998  0.97814324  1  0  0.736767  0  3.83177  0  0  0.6652  0  4.140056  0  0  0.700276  0  4.135523  0  0  0.332566  0.641443  0  4.142219  0
C  C44  1  0.55803527  0.78113767  0.85188629  1  0  0.434338  0  3.767806  0  0  0.407921  0  4.021327  0  0  0.425684  0  4.037776  0  0  0.22771  0.396276  0  4.009621  0
C  C45  1  0.44196379  0.21886218  0.14811286  1  0  0.434325  0  3.767811  0  0  0.407887  0  4.021326  0  0  0.425649  0  4.037774  0  0  0.22771  0.396246  0  4.009611  0
C  C46  1  0.58942890  0.67261294  0.93513240  1  0  -0.220065  0  3.697657  0  0  -0.23888  0  3.951449  0  0  -0.249489  0  3.971224  0  0  -0.097253  -0.232274  0  3.938221  0
C  C47  1  0.41057017  0.32738691  0.06486769  1  0  -0.219985  0  3.69762  0  0  -0.238788  0  3.951406  0  0  -0.249397  0  3.971183  0  0  -0.097237  -0.232185  0  3.938182  0
C  C48  1  0.73746479  0.55307734  0.88204678  1  0  0.019074  0  3.737233  0  0  0.00191  0  3.982414  0  0  0.008085  0  4.00023  0  0  -0.066938  -0.001419  0  3.969965  0
C  C49  1  0.26253462  0.44692144  0.11795321  1  0  0.019042  0  3.737232  0  0  0.001875  0  3.982421  0  0  0.00805  0  4.000239  0  0  -0.066934  -0.001462  0  3.969981  0
C  C50  1  0.85149689  0.54005914  0.74739868  1  0  -0.147977  0  3.765131  0  0  -0.160463  0  4.016843  0  0  -0.16942  0  4.038847  0  0  -0.099922  -0.154874  0  4.002125  0
C  C51  1  0.14850554  0.45994290  0.25260151  1  0  -0.147947  0  3.765007  0  0  -0.160462  0  4.016725  0  0  -0.169418  0  4.038726  0  0  -0.099946  -0.154871  0  4.002005  0
C  C52  1  0.81033829  0.65046648  0.67166010  1  0  0.125958  0  3.740889  0  0  0.096286  0  3.986956  0  0  0.104525  0  4.006376  0  0  0.034055  0.091075  0  3.972763  0
C  C53  1  0.18966078  0.34953338  0.32833999  1  0  0.125969  0  3.740793  0  0  0.096291  0  3.986873  0  0  0.104528  0  4.006291  0  0  0.034063  0.091082  0  3.972679  0
S  S54  1  0.80515628  0.16043748  0.53480900  1  0  0.048533  0  2.846901  0  0  0.085056  0  3.282639  0  0  0.078059  0  3.274179  0  0  0.009756  0.089629  0  3.28883  0
S  S55  1  0.19484279  0.83956238  0.46519109  1  0  0.048523  0  2.847002  0  0  0.085049  0  3.282747  0  0  0.07805  0  3.274289  0  0  0.009751  0.089617  0  3.288939  0
N  N56  1  0.16048927  0.07606039  0.02558021  1  0  -0.492496  0  3.317907  0  0  -0.433818  0  3.559715  0  0  -0.457328  0  3.567104  0  0  -0.405867  -0.41747  0  3.553992  0
N  N57  1  0.83951116  0.92393948  0.97442047  1  0  -0.492478  0  3.317894  0  0  -0.433875  0  3.559735  0  0  -0.457392  0  3.56712  0  0  -0.405836  -0.417525  0  3.55401  0
N  N58  1  0.41607584  0.90542057  0.89429246  1  0  -0.523613  0  3.306575  0  0  -0.467259  0  3.553666  0  0  -0.491389  0  3.558389  0  0  -0.403648  -0.45005  0  3.549205  0
N  N59  1  0.58392222  0.09457820  0.10570694  1  0  -0.523653  0  3.306699  0  0  -0.467256  0  3.553703  0  0  -0.491386  0  3.558416  0  0  -0.403696  -0.450048  0  3.549238  0
N  N60  1  0.66871593  0.76923325  0.72143115  1  0  -0.39664  0  3.237568  0  0  -0.315358  0  3.512022  0  0  -0.337404  0  3.527082  0  0  -0.349511  -0.300076  0  3.500718  0
N  N61  1  0.33128213  0.23076552  0.27856825  1  0  -0.396648  0  3.237551  0  0  -0.315357  0  3.512001  0  0  -0.337407  0  3.52707  0  0  -0.349512  -0.300078  0  3.500693  0
N  N62  1  0.75204892  0.80799729  0.30036322  1  0  0.688868  0  4.134458  0  0  0.719246  0  4.424082  0  0  0.747578  0  4.430908  0  0  0.095104  0.714461  0  4.398939  0
N  N63  1  0.24795115  0.19200365  0.69963662  1  0  0.688876  0  4.134491  0  0  0.719368  0  4.423978  0  0  0.747702  0  4.4308  0  0  0.095107  0.714498  0  4.398943  0
O  O64  1  0.27435880  0.87571209  0.11933367  1  0  -0.592676  0  1.908255  0  0  -0.540303  0  2.130841  0  0  -0.561079  0  2.122233  0  0  -0.303388  -0.526123  0  2.1359  0
O  O65  1  0.72564063  0.12428670  0.88066726  1  0  -0.592626  0  1.908335  0  0  -0.540273  0  2.13086  0  0  -0.561052  0  2.122246  0  0  -0.303354  -0.526095  0  2.135927  0
O  O66  1  0.77684463  0.74488453  0.39878965  1  0  -0.4536  0  1.816767  0  0  -0.437335  0  2.056865  0  0  -0.453298  0  2.048128  0  0  -0.187527  -0.431398  0  2.057199  0
O  O67  1  0.22315580  0.25511535  0.60121197  1  0  -0.453589  0  1.816822  0  0  -0.437365  0  2.056879  0  0  -0.453334  0  2.04816  0  0  -0.187516  -0.431394  0  2.057239  0
O  O68  1  0.67214164  0.94229455  0.31724057  1  0  -0.495288  0  1.882799  0  0  -0.470516  0  2.134734  0  0  -0.48742  0  2.12409  0  0  -0.198791  -0.463851  0  2.136531  0
O  O69  1  0.32785878  0.05770532  0.68276011  1  0  -0.495307  0  1.882813  0  0  -0.470569  0  2.134702  0  0  -0.487474  0  2.124061  0  0  -0.198784  -0.463872  0  2.136528  0
O  O70  1  0.80391442  0.73929710  0.18694684  1  0  -0.439996  0  1.761987  0  0  -0.42371  0  1.964409  0  0  -0.437787  0  1.959217  0  0  -0.174381  -0.419541  0  1.962474  0
O  O71  1  0.19608735  0.26070278  0.81305256  1  0  -0.439981  0  1.761921  0  0  -0.423744  0  1.964338  0  0  -0.437822  0  1.959145  0  0  -0.174393  -0.419544  0  1.962438  0
