# generated using pymatgen
data_UAgH13C9O10
_symmetry_space_group_name_H-M   'P 1'
_cell_length_a   5.75283665
_cell_length_b   8.64625387
_cell_length_c   13.83473365
_cell_angle_alpha   90.00006712
_cell_angle_beta   90.00021782
_cell_angle_gamma   95.06211678
_symmetry_Int_Tables_number   1
_chemical_formula_structural   UAgH13C9O10
_chemical_formula_sum   'U2 Ag2 H26 C18 O20'
_cell_volume   685.46234770
_cell_formula_units_Z   2
loop_
 _symmetry_equiv_pos_site_id
 _symmetry_equiv_pos_as_xyz
  1  'x, y, z'
loop_
 _atom_site_type_symbol
 _atom_site_label
 _atom_site_symmetry_multiplicity
 _atom_site_fract_x
 _atom_site_fract_y
 _atom_site_fract_z
 _atom_site_occupancy
 _atom_site_hle17_bader_spin_density
 _atom_site_hle17_ddec_charge
 _atom_site_hle17_ddec_spin_density
 _atom_site_hle17_ddec_sum_bond_order
 _atom_site_hle17_magmom
 _atom_site_hse06_10hf_bader_spin_density
 _atom_site_hse06_10hf_ddec_charge
 _atom_site_hse06_10hf_ddec_spin_density
 _atom_site_hse06_10hf_ddec_sum_bond_order
 _atom_site_hse06_10hf_magmom
 _atom_site_hse06_bader_spin_density
 _atom_site_hse06_ddec_charge
 _atom_site_hse06_ddec_spin_density
 _atom_site_hse06_ddec_sum_bond_order
 _atom_site_hse06_magmom
 _atom_site_pbe_bader_spin_density
 _atom_site_pbe_cm5_charge
 _atom_site_pbe_ddec_charge
 _atom_site_pbe_ddec_spin_density
 _atom_site_pbe_ddec_sum_bond_order
 _atom_site_pbe_magmom
U  U0  1  0.95557822  0.34535265  0.49025303  1  0  2.382933  0  4.155469  0  0  2.43227  0  4.799379  0  0  2.536971  0  4.773559  0  0  2.172654  2.358354  0  4.820408  0
U  U1  1  0.04441576  0.65464840  0.99023818  1  0  2.383138  0  4.155535  0  0  2.432448  0  4.799531  0  0  2.537174  0  4.773696  0  0  2.172705  2.358432  0  4.820772  0
Ag  Ag2  1  0.58680050  0.70737067  0.58695197  1  0  0.73747  0  1.107739  0  0  0.633437  0  1.500344  0  0  0.669365  0  1.44236  0  0  0.473724  0.607141  0  1.541963  0
Ag  Ag3  1  0.41320137  0.29265580  0.08696065  1  0  0.737433  0  1.107749  0  0  0.633365  0  1.500393  0  0  0.669296  0  1.442408  0  0  0.47368  0.607073  0  1.542004  0
H  H4  1  0.28957281  0.69465323  0.74988442  1  0  0.430828  0  0.874408  0  0  0.400498  0  0.936952  0  0  0.411785  0  0.920823  0  0  0.298842  0.392553  0  0.948263  0
H  H5  1  0.71043018  0.30536351  0.24989497  1  0  0.430934  0  0.87426  0  0  0.400498  0  0.936951  0  0  0.411782  0  0.920822  0  0  0.298823  0.39255  0  0.948266  0
H  H6  1  0.22575864  0.56150878  0.67166218  1  0  0.438479  0  0.858862  0  0  0.409367  0  0.918864  0  0  0.419802  0  0.903834  0  0  0.309319  0.401979  0  0.929503  0
H  H7  1  0.77425523  0.43850581  0.17166895  1  0  0.438493  0  0.858841  0  0  0.409345  0  0.918911  0  0  0.419782  0  0.903878  0  0  0.309277  0.401956  0  0.929551  0
H  H8  1  0.96495382  0.94250216  0.59776748  1  0  0.429271  0  0.865806  0  0  0.402681  0  0.922824  0  0  0.413245  0  0.907398  0  0  0.298474  0.394976  0  0.934091  0
H  H9  1  0.03505557  0.05750566  0.09776970  1  0  0.429132  0  0.86597  0  0  0.402611  0  0.922901  0  0  0.413176  0  0.907472  0  0  0.298445  0.394907  0  0.934168  0
H  H10  1  0.05453880  0.77588490  0.61759716  1  0  0.423037  0  0.879989  0  0  0.393619  0  0.941341  0  0  0.403877  0  0.926546  0  0  0.290047  0.386138  0  0.952149  0
H  H11  1  0.94546290  0.22411941  0.11760468  1  0  0.423031  0  0.880036  0  0  0.393608  0  0.941401  0  0  0.403866  0  0.926605  0  0  0.290083  0.386125  0  0.952214  0
H  H12  1  0.37658753  0.06342946  0.29020015  1  0  0.087248  0  0.90086  0  0  0.099765  0  0.958162  0  0  0.102306  0  0.955791  0  0  0.109205  0.097962  0  0.959945  0
H  H13  1  0.62340517  0.93658025  0.79019446  1  0  0.087267  0  0.900897  0  0  0.099752  0  0.958227  0  0  0.102334  0  0.955807  0  0  0.109218  0.097956  0  0.960008  0
H  H14  1  0.48423870  0.84489911  0.45584809  1  0  0.038018  0  1.017174  0  0  0.050399  0  1.108218  0  0  0.052794  0  1.10322  0  0  0.074309  0.048569  0  1.112018  0
H  H15  1  0.51574328  0.15510672  0.95584165  1  0  0.038012  0  1.017194  0  0  0.050406  0  1.108199  0  0  0.052803  0  1.103203  0  0  0.07431  0.048573  0  1.111997  0
H  H16  1  0.21766166  0.92880408  0.43911218  1  0  0.093074  0  0.938025  0  0  0.10932  0  0.997215  0  0  0.111131  0  0.996658  0  0  0.09932  0.107889  0  0.997767  0
H  H17  1  0.78232123  0.07119831  0.93911396  1  0  0.093154  0  0.938119  0  0  0.10932  0  0.997352  0  0  0.111153  0  0.996765  0  0  0.099344  0.107895  0  0.997894  0
H  H18  1  0.14881813  0.78381480  0.28447134  1  0  0.080483  0  0.931346  0  0  0.09222  0  0.990267  0  0  0.093511  0  0.990744  0  0  0.104893  0.091198  0  0.99005  0
H  H19  1  0.85116701  0.21617055  0.78447020  1  0  0.080504  0  0.931385  0  0  0.092153  0  0.9904  0  0  0.093441  0  0.990881  0  0  0.10484  0.091133  0  0.990186  0
H  H20  1  0.60257131  0.63538513  0.32675939  1  0  0.095211  0  0.936445  0  0  0.112178  0  0.997377  0  0  0.114157  0  0.996783  0  0  0.100648  0.110551  0  0.99812  0
H  H21  1  0.39745276  0.36462438  0.82675842  1  0  0.09514  0  0.93662  0  0  0.112134  0  0.997502  0  0  0.114109  0  0.996917  0  0  0.100674  0.110513  0  0.998236  0
H  H22  1  0.40834091  0.59306411  0.22852206  1  0  0.092735  0  0.940755  0  0  0.10741  0  1.004941  0  0  0.109828  0  1.002652  0  0  0.10066  0.105492  0  1.007182  0
H  H23  1  0.59167748  0.40692243  0.72851924  1  0  0.092776  0  0.940737  0  0  0.107443  0  1.004921  0  0  0.109854  0  1.00264  0  0  0.100664  0.105526  0  1.007169  0
H  H24  1  0.48199131  0.86178891  0.16732495  1  0  0.101449  0  0.897158  0  0  0.115692  0  0.952338  0  0  0.117624  0  0.951733  0  0  0.121605  0.11453  0  0.952682  0
H  H25  1  0.51799247  0.13820373  0.66732658  1  0  0.101528  0  0.897092  0  0  0.11577  0  0.952289  0  0  0.117698  0  0.951698  0  0  0.121638  0.114608  0  0.952636  0
H  H26  1  0.79040119  0.04479457  0.24224274  1  0  0.081755  0  0.952861  0  0  0.098336  0  1.015005  0  0  0.100157  0  1.014393  0  0  0.098772  0.096953  0  1.01562  0
H  H27  1  0.20957647  0.95520487  0.74224976  1  0  0.081778  0  0.952865  0  0  0.098375  0  1.01494  0  0  0.100192  0  1.014336  0  0  0.098747  0.096993  0  1.015558  0
H  H28  1  0.82530311  0.91054518  0.33659773  1  0  0.08484  0  0.920576  0  0  0.105989  0  0.976421  0  0  0.106385  0  0.977704  0  0  0.101685  0.105829  0  0.975357  0
H  H29  1  0.17470630  0.08945970  0.83660748  1  0  0.084776  0  0.92065  0  0  0.1059  0  0.976472  0  0  0.1063  0  0.977753  0  0  0.101653  0.105745  0  0.975406  0
C  C30  1  0.49573351  0.01348018  0.34168361  1  0  -0.10627  0  3.640376  0  0  -0.106524  0  3.876574  0  0  -0.111707  0  3.889632  0  0  -0.081428  -0.102977  0  3.86728  0
C  C31  1  0.50426403  0.98652124  0.84168153  1  0  -0.10634  0  3.640663  0  0  -0.106609  0  3.876789  0  0  -0.111817  0  3.889858  0  0  -0.081416  -0.10306  0  3.867501  0
C  C32  1  0.36426111  0.88455783  0.40026624  1  0  -0.117581  0  3.654534  0  0  -0.165464  0  3.900212  0  0  -0.166805  0  3.91512  0  0  -0.158606  -0.164107  0  3.88959  0
C  C33  1  0.63572874  0.11544231  0.90026704  1  0  -0.117603  0  3.654772  0  0  -0.16539  0  3.900345  0  0  -0.166774  0  3.915306  0  0  -0.158595  -0.164038  0  3.889723  0
C  C34  1  0.27875235  0.74714188  0.33598679  1  0  -0.108951  0  3.638578  0  0  -0.109259  0  3.875932  0  0  -0.114969  0  3.889882  0  0  -0.08472  -0.10523  0  3.865914  0
C  C35  1  0.72124636  0.25284794  0.83598601  1  0  -0.108918  0  3.638859  0  0  -0.109158  0  3.876175  0  0  -0.114869  0  3.89013  0  0  -0.084705  -0.105135  0  3.866159  0
C  C36  1  0.47903591  0.68534665  0.27748767  1  0  -0.133252  0  3.606161  0  0  -0.181163  0  3.853447  0  0  -0.18128  0  3.864971  0  0  -0.156636  -0.180644  0  3.845572  0
C  C37  1  0.52096640  0.31465260  0.77748542  1  0  -0.133307  0  3.606263  0  0  -0.181207  0  3.853545  0  0  -0.181307  0  3.865049  0  0  -0.156687  -0.180699  0  3.845677  0
C  C38  1  0.60695503  0.81759690  0.21933617  1  0  -0.105731  0  3.641645  0  0  -0.104728  0  3.881345  0  0  -0.109995  0  3.894464  0  0  -0.077422  -0.101178  0  3.8721  0
C  C39  1  0.39304001  0.18239671  0.71934121  1  0  -0.105687  0  3.641776  0  0  -0.104719  0  3.88144  0  0  -0.109991  0  3.894562  0  0  -0.077373  -0.10117  0  3.872204  0
C  C40  1  0.69880148  0.95142845  0.28477441  1  0  -0.129478  0  3.63131  0  0  -0.179108  0  3.883321  0  0  -0.179574  0  3.89657  0  0  -0.154965  -0.178733  0  3.874073  0
C  C41  1  0.30118920  0.04857198  0.78477864  1  0  -0.129552  0  3.631534  0  0  -0.179082  0  3.883454  0  0  -0.179539  0  3.896693  0  0  -0.154968  -0.178719  0  3.87422  0
C  C42  1  0.60173316  0.14438004  0.40348850  1  0  0.681541  0  3.781724  0  0  0.63919  0  4.08613  0  0  0.674677  0  4.078507  0  0  0.218971  0.615226  0  4.090044  0
C  C43  1  0.39827976  0.85561536  0.90348148  1  0  0.681623  0  3.782056  0  0  0.639332  0  4.086373  0  0  0.674822  0  4.078755  0  0  0.219036  0.615376  0  4.090257  0
C  C44  1  0.16059808  0.61489726  0.39369899  1  0  0.667786  0  3.792906  0  0  0.631437  0  4.094089  0  0  0.666843  0  4.088392  0  0  0.2157  0.607312  0  4.096519  0
C  C45  1  0.83941238  0.38509236  0.89369274  1  0  0.667433  0  3.79341  0  0  0.63113  0  4.094551  0  0  0.666538  0  4.088859  0  0  0.21562  0.607009  0  4.096962  0
C  C46  1  0.79363673  0.76197943  0.15466899  1  0  0.685437  0  3.765827  0  0  0.63467  0  4.080575  0  0  0.670146  0  4.072651  0  0  0.227874  0.610531  0  4.08486  0
C  C47  1  0.20635845  0.23801552  0.65467667  1  0  0.685453  0  3.765877  0  0  0.634714  0  4.08061  0  0  0.670187  0  4.072683  0  0  0.227937  0.610572  0  4.084905  0
O  O48  1  0.76454738  0.45905053  0.56105392  1  0  -0.747672  0  1.685185  0  0  -0.751077  0  2.026555  0  0  -0.774416  0  2.008032  0  0  -0.763232  -0.735945  0  2.040224  0
O  O49  1  0.23546411  0.54094809  0.06104491  1  0  -0.747789  0  1.685183  0  0  -0.751163  0  2.02656  0  0  -0.774519  0  2.008045  0  0  -0.763133  -0.736024  0  2.040299  0
O  O50  1  0.14446150  0.23154660  0.42060891  1  0  -0.687834  0  1.584766  0  0  -0.693004  0  1.869023  0  0  -0.714367  0  1.859901  0  0  -0.75734  -0.679813  0  1.876388  0
O  O51  1  0.85553969  0.76844996  0.92059448  1  0  -0.687965  0  1.585025  0  0  -0.69312  0  1.869311  0  0  -0.714488  0  1.860191  0  0  -0.757493  -0.679916  0  1.876723  0
O  O52  1  0.65617722  0.12430970  0.49157648  1  0  -0.609922  0  1.942512  0  0  -0.589576  0  2.196622  0  0  -0.620646  0  2.192692  0  0  -0.338135  -0.567571  0  2.198855  0
O  O53  1  0.34383431  0.87568200  0.99157037  1  0  -0.609959  0  1.942651  0  0  -0.589668  0  2.196773  0  0  -0.620746  0  2.192844  0  0  -0.338187  -0.567657  0  2.199003  0
O  O54  1  0.66567981  0.27655883  0.36404241  1  0  -0.648722  0  2.042596  0  0  -0.613336  0  2.287304  0  0  -0.645099  0  2.281357  0  0  -0.342572  -0.590868  0  2.290759  0
O  O55  1  0.33432380  0.72344136  0.86403411  1  0  -0.648697  0  2.042798  0  0  -0.61332  0  2.287467  0  0  -0.645091  0  2.281521  0  0  -0.342583  -0.590857  0  2.290931  0
O  O56  1  0.97275893  0.54076041  0.36266051  1  0  -0.619089  0  1.947563  0  0  -0.6015  0  2.199233  0  0  -0.632445  0  2.195007  0  0  -0.350204  -0.579234  0  2.201077  0
O  O57  1  0.02724884  0.45923047  0.86265268  1  0  -0.618862  0  1.947524  0  0  -0.601325  0  2.199241  0  0  -0.632274  0  2.195014  0  0  -0.350225  -0.579058  0  2.201094  0
O  O58  1  0.25020099  0.56986786  0.47260348  1  0  -0.635265  0  2.019347  0  0  -0.605087  0  2.286617  0  0  -0.639602  0  2.282677  0  0  -0.339707  -0.580586  0  2.288354  0
O  O59  1  0.74981444  0.43012619  0.97259684  1  0  -0.635075  0  2.0195  0  0  -0.604996  0  2.286888  0  0  -0.639515  0  2.282954  0  0  -0.339648  -0.580487  0  2.288622  0
O  O60  1  0.77482694  0.62082063  0.12530141  1  0  -0.646399  0  2.092161  0  0  -0.61053  0  2.353965  0  0  -0.642494  0  2.34867  0  0  -0.344381  -0.587586  0  2.356826  0
O  O61  1  0.22517755  0.37917668  0.62530658  1  0  -0.646372  0  2.092126  0  0  -0.610588  0  2.353965  0  0  -0.642548  0  2.34867  0  0  -0.344479  -0.58765  0  2.356821  0
O  O62  1  0.96398592  0.85227486  0.12228026  1  0  -0.646232  0  1.981177  0  0  -0.610155  0  2.229396  0  0  -0.640849  0  2.223366  0  0  -0.323736  -0.58825  0  2.232855  0
O  O63  1  0.03600350  0.14772252  0.62229364  1  0  -0.646287  0  1.981158  0  0  -0.610175  0  2.229336  0  0  -0.640864  0  2.223303  0  0  -0.323757  -0.588273  0  2.23279  0
O  O64  1  0.25742564  0.67559180  0.67912790  1  0  -0.846358  0  1.963211  0  0  -0.770641  0  2.167211  0  0  -0.797573  0  2.131107  0  0  -0.561546  -0.751272  0  2.192494  0
O  O65  1  0.74257136  0.32442399  0.17913883  1  0  -0.846416  0  1.963039  0  0  -0.77051  0  2.167051  0  0  -0.79744  0  2.130953  0  0  -0.561485  -0.751146  0  2.192336  0
O  O66  1  0.94327076  0.83210069  0.57855397  1  0  -0.842872  0  1.926537  0  0  -0.777328  0  2.135499  0  0  -0.802783  0  2.098938  0  0  -0.58201  -0.759148  0  2.161469  0
O  O67  1  0.05673545  0.16790836  0.07856107  1  0  -0.842746  0  1.926684  0  0  -0.777271  0  2.135512  0  0  -0.802723  0  2.098954  0  0  -0.582026  -0.759094  0  2.161475  0
