# generated using pymatgen
data_ZnH3C7NO4
_symmetry_space_group_name_H-M   'P 1'
_cell_length_a   6.38900679
_cell_length_b   7.70073562
_cell_length_c   14.32654260
_cell_angle_alpha   90.00031106
_cell_angle_beta   89.99876548
_cell_angle_gamma   90.00000166
_symmetry_Int_Tables_number   1
_chemical_formula_structural   ZnH3C7NO4
_chemical_formula_sum   'Zn4 H12 C28 N4 O16'
_cell_volume   704.86664257
_cell_formula_units_Z   4
loop_
 _symmetry_equiv_pos_site_id
 _symmetry_equiv_pos_as_xyz
  1  'x, y, z'
loop_
 _atom_site_type_symbol
 _atom_site_label
 _atom_site_symmetry_multiplicity
 _atom_site_fract_x
 _atom_site_fract_y
 _atom_site_fract_z
 _atom_site_occupancy
 _atom_site_hle17_bader_spin_density
 _atom_site_hle17_ddec_charge
 _atom_site_hle17_ddec_spin_density
 _atom_site_hle17_ddec_sum_bond_order
 _atom_site_hle17_magmom
 _atom_site_hse06_10hf_bader_spin_density
 _atom_site_hse06_10hf_ddec_charge
 _atom_site_hse06_10hf_ddec_spin_density
 _atom_site_hse06_10hf_ddec_sum_bond_order
 _atom_site_hse06_10hf_magmom
 _atom_site_hse06_bader_spin_density
 _atom_site_hse06_ddec_charge
 _atom_site_hse06_ddec_spin_density
 _atom_site_hse06_ddec_sum_bond_order
 _atom_site_hse06_magmom
 _atom_site_pbe_bader_spin_density
 _atom_site_pbe_cm5_charge
 _atom_site_pbe_ddec_charge
 _atom_site_pbe_ddec_spin_density
 _atom_site_pbe_ddec_sum_bond_order
 _atom_site_pbe_magmom
Zn  Zn0  1  0.99999808  0.75000963  0.71156881  1  0  1.085136  0  1.760276  0  0  0.908161  0  2.223193  0  0  0.957812  0  2.164675  0  0  0.701022  0.873296  0  2.263537  0
Zn  Zn1  1  0.50000030  0.25000914  0.78844234  1  0  1.085076  0  1.760416  0  0  0.908115  0  2.223365  0  0  0.957774  0  2.16484  0  0  0.700999  0.873254  0  2.263717  0
Zn  Zn2  1  0.00000259  0.24999701  0.28842935  1  0  1.085126  0  1.760377  0  0  0.90816  0  2.223318  0  0  0.957806  0  2.164799  0  0  0.701044  0.873298  0  2.263669  0
Zn  Zn3  1  0.49999567  0.74998971  0.21156211  1  0  1.08504  0  1.760468  0  0  0.908103  0  2.223417  0  0  0.957755  0  2.164892  0  0  0.701035  0.873242  0  2.263766  0
H  H4  1  0.72396276  0.58596392  0.03012837  1  0  0.131435  0  0.931369  0  0  0.13868  0  0.99253  0  0  0.142537  0  0.990439  0  0  0.116937  0.135882  0  0.994159  0
H  H5  1  0.77602748  0.08594883  0.46987898  1  0  0.131374  0  0.931479  0  0  0.138632  0  0.99264  0  0  0.14249  0  0.99055  0  0  0.11695  0.135827  0  0.994262  0
H  H6  1  0.22394706  0.41405074  0.46988617  1  0  0.131326  0  0.931576  0  0  0.138638  0  0.992677  0  0  0.142498  0  0.990591  0  0  0.116902  0.135832  0  0.994285  0
H  H7  1  0.27604093  0.91404360  0.03012671  1  0  0.13142  0  0.931763  0  0  0.138662  0  0.992884  0  0  0.14252  0  0.990793  0  0  0.116952  0.135855  0  0.99453  0
H  H8  1  0.27606138  0.41405182  0.96986630  1  0  0.131393  0  0.931688  0  0  0.138698  0  0.99276  0  0  0.142555  0  0.990677  0  0  0.116911  0.135887  0  0.99438  0
H  H9  1  0.22394971  0.91403703  0.53011430  1  0  0.131387  0  0.931603  0  0  0.138661  0  0.992744  0  0  0.142504  0  0.99069  0  0  0.116941  0.135867  0  0.994356  0
H  H10  1  0.77604265  0.58595850  0.53012036  1  0  0.131354  0  0.931561  0  0  0.138635  0  0.992688  0  0  0.142492  0  0.9906  0  0  0.116935  0.135826  0  0.994326  0
H  H11  1  0.72396912  0.08595525  0.96987145  1  0  0.13143  0  0.931545  0  0  0.138679  0  0.992672  0  0  0.142537  0  0.990581  0  0  0.116913  0.135876  0  0.994319  0
H  H12  1  0.99999386  0.75000685  0.11894050  1  0  0.114057  0  0.938332  0  0  0.124173  0  0.996805  0  0  0.127051  0  0.995246  0  0  0.113247  0.122063  0  0.998028  0
H  H13  1  0.49998561  0.25000454  0.38107608  1  0  0.11386  0  0.938563  0  0  0.123982  0  0.997043  0  0  0.126854  0  0.995479  0  0  0.113187  0.121822  0  0.998332  0
H  H14  1  0.00000787  0.25000381  0.88106640  1  0  0.113952  0  0.938578  0  0  0.124077  0  0.997025  0  0  0.126952  0  0.995467  0  0  0.113244  0.121966  0  0.998247  0
H  H15  1  0.49998844  0.74999950  0.61892696  1  0  0.113925  0  0.93842  0  0  0.124029  0  0.996931  0  0  0.126904  0  0.995368  0  0  0.113213  0.121871  0  0.998212  0
C  C16  1  0.71361673  0.55502277  0.83325375  1  0  0.62614  0  3.898028  0  0  0.574751  0  4.190638  0  0  0.609181  0  4.183225  0  0  0.217985  0.551385  0  4.194931  0
C  C17  1  0.78636831  0.05501767  0.66675332  1  0  0.625971  0  3.898092  0  0  0.574531  0  4.190836  0  0  0.60896  0  4.183429  0  0  0.217813  0.551169  0  4.195123  0
C  C18  1  0.21360248  0.44499941  0.66675652  1  0  0.626212  0  3.897385  0  0  0.574814  0  4.190147  0  0  0.609246  0  4.182738  0  0  0.218109  0.551458  0  4.194417  0
C  C19  1  0.28638526  0.94498353  0.83324930  1  0  0.625957  0  3.898133  0  0  0.574603  0  4.190763  0  0  0.609029  0  4.183357  0  0  0.217929  0.551254  0  4.195036  0
C  C20  1  0.28639959  0.44498907  0.16674650  1  0  0.62585  0  3.897942  0  0  0.574508  0  4.190539  0  0  0.608921  0  4.183138  0  0  0.217918  0.551147  0  4.194819  0
C  C21  1  0.21362766  0.94498248  0.33324414  1  0  0.625994  0  3.89786  0  0  0.574543  0  4.190634  0  0  0.608977  0  4.183224  0  0  0.217879  0.551188  0  4.194911  0
C  C22  1  0.78637627  0.55499814  0.33324793  1  0  0.626063  0  3.897396  0  0  0.57464  0  4.190144  0  0  0.609072  0  4.182738  0  0  0.21802  0.551283  0  4.194422  0
C  C23  1  0.71362479  0.05500753  0.16675235  1  0  0.625948  0  3.897674  0  0  0.574497  0  4.190373  0  0  0.60892  0  4.182973  0  0  0.217903  0.55114  0  4.194646  0
C  C24  1  0.85338667  0.65926228  0.89694484  1  0  0.111556  0  3.728795  0  0  0.113538  0  3.96577  0  0  0.113813  0  3.985241  0  0  0.120298  0.113068  0  3.952874  0
C  C25  1  0.64661446  0.15925695  0.60306673  1  0  0.111406  0  3.72938  0  0  0.113339  0  3.966487  0  0  0.113601  0  3.985979  0  0  0.120167  0.112866  0  3.953584  0
C  C26  1  0.35337365  0.34073484  0.60307602  1  0  0.111426  0  3.729304  0  0  0.113256  0  3.966582  0  0  0.113504  0  3.986099  0  0  0.120097  0.112781  0  3.953677  0
C  C27  1  0.14661835  0.84073426  0.89693437  1  0  0.111464  0  3.729453  0  0  0.113249  0  3.966659  0  0  0.113507  0  3.986164  0  0  0.120133  0.112781  0  3.953754  0
C  C28  1  0.14662339  0.34072099  0.10305960  1  0  0.111399  0  3.729145  0  0  0.113399  0  3.966083  0  0  0.113701  0  3.985521  0  0  0.120215  0.112933  0  3.953167  0
C  C29  1  0.35338933  0.84074060  0.39693003  1  0  0.111421  0  3.72929  0  0  0.113342  0  3.966429  0  0  0.113594  0  3.985943  0  0  0.120128  0.112862  0  3.953538  0
C  C30  1  0.64661763  0.65926272  0.39693122  1  0  0.111394  0  3.729418  0  0  0.113257  0  3.966628  0  0  0.113501  0  3.986146  0  0  0.120025  0.112781  0  3.953733  0
C  C31  1  0.85339327  0.15926459  0.10305471  1  0  0.11137  0  3.729108  0  0  0.113419  0  3.966025  0  0  0.113695  0  3.985502  0  0  0.120257  0.11295  0  3.953123  0
C  C32  1  0.84629389  0.65829402  0.99423143  1  0  -0.080681  0  3.64005  0  0  -0.105071  0  3.892617  0  0  -0.107413  0  3.910528  0  0  -0.060784  -0.103555  0  3.880823  0
C  C33  1  0.65370880  0.15827474  0.50578503  1  0  -0.080577  0  3.63974  0  0  -0.104947  0  3.89236  0  0  -0.107289  0  3.910264  0  0  -0.060723  -0.103412  0  3.880544  0
C  C34  1  0.34627173  0.34172908  0.50579019  1  0  -0.080674  0  3.639792  0  0  -0.105073  0  3.892466  0  0  -0.107417  0  3.91038  0  0  -0.060679  -0.103529  0  3.880644  0
C  C35  1  0.15372184  0.84173852  0.99422509  1  0  -0.080674  0  3.639515  0  0  -0.104979  0  3.892071  0  0  -0.107313  0  3.909978  0  0  -0.060712  -0.10346  0  3.880273  0
C  C36  1  0.15371304  0.34171002  0.00575975  1  0  -0.080674  0  3.640124  0  0  -0.105132  0  3.892618  0  0  -0.107485  0  3.910524  0  0  -0.060781  -0.103586  0  3.880795  0
C  C37  1  0.34628404  0.84172152  0.49421523  1  0  -0.080704  0  3.64018  0  0  -0.105108  0  3.892838  0  0  -0.107449  0  3.910747  0  0  -0.060765  -0.103584  0  3.881035  0
C  C38  1  0.65372267  0.65826977  0.49421286  1  0  -0.080645  0  3.639645  0  0  -0.105037  0  3.892322  0  0  -0.107372  0  3.910233  0  0  -0.060686  -0.103514  0  3.88051  0
C  C39  1  0.84630074  0.15827591  0.00576470  1  0  -0.080597  0  3.639809  0  0  -0.105034  0  3.892333  0  0  -0.107374  0  3.910238  0  0  -0.060706  -0.103525  0  3.880543  0
C  C40  1  0.99999736  0.74999220  0.04291239  1  0  0.007604  0  3.66361  0  0  -0.015666  0  3.926674  0  0  -0.013594  0  3.943485  0  0  -0.057714  -0.01709  0  3.915408  0
C  C41  1  0.49998681  0.24999842  0.45709931  1  0  0.007898  0  3.663292  0  0  -0.015389  0  3.926433  0  0  -0.013298  0  3.943234  0  0  -0.057685  -0.016788  0  3.915182  0
C  C42  1  0.00001846  0.25000159  0.95707986  1  0  0.007682  0  3.664122  0  0  -0.015562  0  3.927194  0  0  -0.013484  0  3.944001  0  0  -0.057745  -0.016988  0  3.915921  0
C  C43  1  0.49998725  0.75000562  0.54290025  1  0  0.007876  0  3.66335  0  0  -0.015378  0  3.926464  0  0  -0.013288  0  3.943256  0  0  -0.057656  -0.016767  0  3.915205  0
N  N44  1  0.00000341  0.75002083  0.85147942  1  0  -0.35733  0  3.415936  0  0  -0.285438  0  3.676534  0  0  -0.302026  0  3.692892  0  0  -0.326387  -0.27406  0  3.665597  0
N  N45  1  0.49999760  0.25000196  0.64853350  1  0  -0.357364  0  3.415808  0  0  -0.285449  0  3.67646  0  0  -0.302025  0  3.692808  0  0  -0.326298  -0.274068  0  3.665524  0
N  N46  1  0.00000614  0.24998853  0.14852260  1  0  -0.357249  0  3.416185  0  0  -0.285449  0  3.676715  0  0  -0.302049  0  3.693063  0  0  -0.326393  -0.274075  0  3.665776  0
N  N47  1  0.50000463  0.74999949  0.35147025  1  0  -0.357346  0  3.416004  0  0  -0.285435  0  3.676632  0  0  -0.302009  0  3.692987  0  0  -0.326279  -0.27405  0  3.665697  0
O  O48  1  0.71707023  0.58836591  0.74711367  1  0  -0.598685  0  1.975931  0  0  -0.54707  0  2.22558  0  0  -0.572662  0  2.214029  0  0  -0.300711  -0.529239  0  2.232976  0
O  O49  1  0.78291808  0.08835128  0.75289420  1  0  -0.598465  0  1.975753  0  0  -0.546802  0  2.225401  0  0  -0.572393  0  2.213857  0  0  -0.300546  -0.52898  0  2.232803  0
O  O50  1  0.21708746  0.41165366  0.75290843  1  0  -0.598644  0  1.975121  0  0  -0.54703  0  2.224817  0  0  -0.572629  0  2.213274  0  0  -0.300735  -0.529205  0  2.23221  0
O  O51  1  0.28292362  0.91166162  0.74711404  1  0  -0.598569  0  1.976231  0  0  -0.546874  0  2.22576  0  0  -0.572457  0  2.214206  0  0  -0.300614  -0.529056  0  2.23316  0
O  O52  1  0.28291635  0.41163034  0.25288588  1  0  -0.598525  0  1.975958  0  0  -0.546927  0  2.225584  0  0  -0.572518  0  2.21404  0  0  -0.300682  -0.529105  0  2.232982  0
O  O53  1  0.21709041  0.91164238  0.24710187  1  0  -0.598516  0  1.975594  0  0  -0.546839  0  2.225244  0  0  -0.572431  0  2.213696  0  0  -0.300638  -0.529017  0  2.232644  0
O  O54  1  0.78290851  0.58833480  0.24709811  1  0  -0.598626  0  1.975372  0  0  -0.546939  0  2.224959  0  0  -0.572535  0  2.213416  0  0  -0.300685  -0.529111  0  2.232355  0
O  O55  1  0.71708487  0.08834632  0.25289110  1  0  -0.598467  0  1.975853  0  0  -0.546786  0  2.22548  0  0  -0.572376  0  2.213934  0  0  -0.300566  -0.528965  0  2.232872  0
O  O56  1  0.60915480  0.43258286  0.87237165  1  0  -0.614417  0  2.054582  0  0  -0.540332  0  2.318881  0  0  -0.569974  0  2.305251  0  0  -0.308769  -0.519531  0  2.327527  0
O  O57  1  0.89084592  0.93258154  0.62764145  1  0  -0.614391  0  2.054657  0  0  -0.540323  0  2.319055  0  0  -0.569956  0  2.305414  0  0  -0.308757  -0.519524  0  2.327701  0
O  O58  1  0.10913992  0.56742404  0.62764586  1  0  -0.614452  0  2.054922  0  0  -0.54034  0  2.319278  0  0  -0.569951  0  2.305616  0  0  -0.308785  -0.519551  0  2.327924  0
O  O59  1  0.39086658  0.06742066  0.87236372  1  0  -0.61438  0  2.05444  0  0  -0.54031  0  2.318751  0  0  -0.569948  0  2.305117  0  0  -0.308811  -0.519513  0  2.327396  0
O  O60  1  0.39085995  0.56742508  0.12762721  1  0  -0.614145  0  2.054394  0  0  -0.540145  0  2.318736  0  0  -0.569764  0  2.305104  0  0  -0.308683  -0.519352  0  2.327379  0
O  O61  1  0.10914692  0.06741081  0.37235532  1  0  -0.614339  0  2.05477  0  0  -0.540263  0  2.319152  0  0  -0.569888  0  2.305504  0  0  -0.308696  -0.519465  0  2.327796  0
O  O62  1  0.89084979  0.43256962  0.37235580  1  0  -0.614399  0  2.054622  0  0  -0.540307  0  2.319011  0  0  -0.569927  0  2.305355  0  0  -0.30879  -0.519513  0  2.327661  0
O  O63  1  0.60913565  0.93257560  0.12763584  1  0  -0.614388  0  2.05434  0  0  -0.540333  0  2.318717  0  0  -0.56997  0  2.305088  0  0  -0.308849  -0.519532  0  2.32736  0
