# generated using pymatgen
data_CdH26C24(NO2)2
_symmetry_space_group_name_H-M   'P 1'
_cell_length_a   8.69662537
_cell_length_b   9.99585164
_cell_length_c   15.52503071
_cell_angle_alpha   72.78500425
_cell_angle_beta   91.19052431
_cell_angle_gamma   77.97374096
_symmetry_Int_Tables_number   1
_chemical_formula_structural   CdH26C24(NO2)2
_chemical_formula_sum   'Cd2 H52 C48 N4 O8'
_cell_volume   1255.92058077
_cell_formula_units_Z   2
loop_
 _symmetry_equiv_pos_site_id
 _symmetry_equiv_pos_as_xyz
  1  'x, y, z'
loop_
 _atom_site_type_symbol
 _atom_site_label
 _atom_site_symmetry_multiplicity
 _atom_site_fract_x
 _atom_site_fract_y
 _atom_site_fract_z
 _atom_site_occupancy
 _atom_site_pbe_bader_charge
 _atom_site_pbe_bader_spin_density
 _atom_site_pbe_cm5_charge
 _atom_site_pbe_ddec_charge
 _atom_site_pbe_ddec_spin_density
 _atom_site_pbe_ddec_sum_bond_order
 _atom_site_pbe_magmom
Cd  Cd0  1  0.45070035  0.33363757  0.08420309  1  1.262892  0  0.759747  0.848305  0  2.252039  0
Cd  Cd1  1  0.54929856  0.66636765  0.91579594  1  1.262803  0  0.759743  0.848332  0  2.252097  0
H  H2  1  0.26732736  0.03739129  0.34743056  1  0.03744  0  0.096939  0.113498  0  0.980159  0
H  H3  1  0.73268069  0.96260543  0.65256893  1  0.037592  0  0.096902  0.113432  0  0.980214  0
H  H4  1  0.12356617  0.05641109  0.25841989  1  0.011131  0  0.08624  0.092451  0  1.02815  0
H  H5  1  0.87644103  0.94358454  0.74158045  1  0.023647  0  0.086236  0.092438  0  1.028141  0
H  H6  1  0.22948871  0.19634664  0.44191337  1  0.014315  0  0.086404  0.085325  0  0.983739  0
H  H7  1  0.77051422  0.80365218  0.55808760  1  0.014356  0  0.08636  0.085277  0  0.983751  0
H  H8  1  0.23704701  0.34486527  0.34726122  1  0.051724  0  0.086431  0.093706  0  1.005748  0
H  H9  1  0.76295276  0.65513242  0.65273996  1  0.051697  0  0.086444  0.093755  0  1.005732  0
H  H10  1  0.91043456  0.30004203  0.20304365  1  0.028562  0  0.086165  0.090405  0  1.026608  0
H  H11  1  0.08957005  0.69995030  0.79695669  1  0.028124  0  0.086177  0.090446  0  1.026559  0
H  H12  1  0.04520941  0.40907050  0.20720646  1  -0.002105  0  0.083913  0.087969  0  1.007373  0
H  H13  1  0.95479236  0.59092398  0.79279473  1  -0.002131  0  0.083904  0.087974  0  1.007344  0
H  H14  1  0.09690011  0.42721354  0.46756498  1  0.005074  0  0.087526  0.052357  0  0.996469  0
H  H15  1  0.90309679  0.57278623  0.53243449  1  0.005072  0  0.087526  0.052363  0  0.996437  0
H  H16  1  0.00753589  0.56894829  0.30671495  1  0.012717  0  0.079774  0.072646  0  1.018822  0
H  H17  1  0.99246128  0.43105038  0.69328344  1  0.012665  0  0.079762  0.072623  0  1.018785  0
H  H18  1  0.84641607  0.57350844  0.37480211  1  -0.0016  0  0.084245  0.077643  0  0.999334  0
H  H19  1  0.15357967  0.42648698  0.62519756  1  -0.00162  0  0.084223  0.077591  0  0.999308  0
H  H20  1  0.65412425  0.63033468  0.24036940  1  0.043133  0  0.098848  0.114271  0  0.972804  0
H  H21  1  0.34587663  0.36965866  0.75963007  1  0.043246  0  0.098821  0.114229  0  0.972731  0
H  H22  1  0.82124002  0.64427020  0.18059144  1  0.056007  0  0.089511  0.101998  0  1.04106  0
H  H23  1  0.17876033  0.35572534  0.81941018  1  0.055969  0  0.089549  0.102044  0  1.041059  0
H  H24  1  0.65212858  0.41980910  0.37254517  1  -0.033008  0  0.082036  0.076306  0  0.990718  0
H  H25  1  0.34786885  0.58018415  0.62745301  1  -0.033141  0  0.082  0.07628  0  0.990677  0
H  H26  1  0.67229712  0.30622606  0.30316043  1  0.069753  0  0.09003  0.106603  0  1.00945  0
H  H27  1  0.32770577  0.69376407  0.69683969  1  0.069912  0  0.090046  0.106625  0  1.009373  0
H  H28  1  0.84194130  0.35910487  0.51241739  1  -0.005605  0  0.082378  0.073631  0  1.001746  0
H  H29  1  0.15805846  0.64089279  0.48758251  1  -0.005636  0  0.08238  0.073605  0  1.001778  0
H  H30  1  0.99956879  0.20458613  0.53952848  1  0.024012  0  0.083342  0.076942  0  1.004411  0
H  H31  1  0.00042955  0.79541260  0.46047184  1  0.024024  0  0.083341  0.076933  0  1.004376  0
H  H32  1  0.76449520  0.16309640  0.46312441  1  -0.00167  0  0.088651  0.054381  0  0.967114  0
H  H33  1  0.23550628  0.83689914  0.53687656  1  -0.001644  0  0.088643  0.054355  0  0.967171  0
H  H34  1  0.90096084  0.08475967  0.34119116  1  -0.014719  0  0.084448  0.077955  0  1.008183  0
H  H35  1  0.09904350  0.91523376  0.65881025  1  -0.014757  0  0.084438  0.077933  0  1.008191  0
H  H36  1  0.03531520  0.04355293  0.43741406  1  0.02031  0  0.087235  0.080887  0  1.035898  0
H  H37  1  0.96468746  0.95644268  0.56258884  1  0.020418  0  0.087205  0.080863  0  1.035869  0
H  H38  1  0.13581786  0.53879095  0.96956548  1  0.075243  0  0.116761  0.085434  0  1.020707  0
H  H39  1  0.86417642  0.46123139  0.03042625  1  0.075217  0  0.116778  0.085467  0  1.020668  0
H  H40  1  0.92088828  0.74378999  0.96558406  1  0.16592  0  0.11075  0.134426  0  1.05769  0
H  H41  1  0.07911779  0.25623586  0.03441091  1  0.16283  0  0.110754  0.134412  0  1.057793  0
H  H42  1  0.16557979  0.76922333  0.20527133  1  0.063351  0  0.110886  0.117364  0  1.000271  0
H  H43  1  0.83441547  0.23076141  0.79473691  1  0.063076  0  0.110942  0.117445  0  1.000206  0
H  H44  1  0.36866853  0.55895911  0.19862967  1  0.110335  0  0.123034  0.097158  0  0.980895  0
H  H45  1  0.63131579  0.44102322  0.80137512  1  0.110192  0  0.123055  0.097144  0  0.980864  0
H  H46  1  0.76593808  0.91656269  0.95975667  1  0.171501  0  0.110834  0.133627  0  1.045539  0
H  H47  1  0.23406400  0.08344370  0.04024408  1  0.171448  0  0.110836  0.133656  0  1.04542  0
H  H48  1  0.98063967  0.92630221  0.21228660  1  0.048087  0  0.107291  0.10875  0  1.026229  0
H  H49  1  0.01935842  0.07370628  0.78771435  1  0.048025  0  0.107268  0.108739  0  1.026262  0
H  H50  1  0.76313840  0.13507717  0.20467997  1  0.107602  0  0.121659  0.09428  0  1.012289  0
H  H51  1  0.23685567  0.86492908  0.79532076  1  0.107643  0  0.121654  0.094251  0  1.012436  0
H  H52  1  0.55970602  0.12660464  0.96421160  1  0.133636  0  0.116387  0.09411  0  1.010249  0
H  H53  1  0.44029174  0.87340056  0.03578743  1  0.133642  0  0.116425  0.094169  0  1.010242  0
C  C54  1  0.29194492  0.18573135  0.21973733  1  1.529719  0  0.186155  0.619652  0  4.167874  0
C  C55  1  0.70805771  0.81426854  0.78026279  1  1.529722  0  0.1862  0.619707  0  4.16772  0
C  C56  1  0.18983419  0.11534268  0.28940996  1  -0.021324  0  -0.163403  -0.341539  0  3.894128  0
C  C57  1  0.81016958  0.88465289  0.71059037  1  -0.03408  0  -0.163362  -0.34139  0  3.894052  0
C  C58  1  0.15610073  0.28418253  0.38638991  1  -0.055163  0  -0.165163  -0.235974  0  3.863568  0
C  C59  1  0.84390021  0.71581519  0.61361191  1  -0.055366  0  -0.165105  -0.235944  0  3.863626  0
C  C60  1  0.96938084  0.34381313  0.24831636  1  -0.006121  0  -0.165181  -0.249261  0  3.789583  0
C  C61  1  0.03061748  0.65618558  0.75168268  1  -0.005628  0  -0.165203  -0.249293  0  3.789474  0
C  C62  1  0.03450102  0.38065297  0.42531293  1  0.019897  0  -0.093326  0.036257  0  3.865284  0
C  C63  1  0.96549991  0.61934476  0.57468890  1  0.019912  0  -0.093298  0.03623  0  3.865213  0
C  C64  1  0.93281152  0.50219588  0.34759715  1  -0.038912  0  -0.164129  -0.231696  0  3.875191  0
C  C65  1  0.06719000  0.49779971  0.65240575  1  -0.038937  0  -0.164141  -0.231569  0  3.875085  0
C  C66  1  0.84451381  0.44091109  0.28614343  1  0.040276  0  -0.017022  0.19069  0  3.749738  0
C  C67  1  0.15548563  0.55908328  0.71385455  1  0.040134  0  -0.016951  0.190671  0  3.749736  0
C  C68  1  0.74696264  0.56893318  0.21043972  1  -0.065067  0  -0.164433  -0.348678  0  3.891702  0
C  C69  1  0.25303540  0.43106230  0.78956060  1  -0.065162  0  -0.164418  -0.348638  0  3.891622  0
C  C70  1  0.66385328  0.54250281  0.13158164  1  1.569157  0  0.205148  0.629605  0  4.170647  0
C  C71  1  0.33614390  0.45749588  0.86841739  1  1.569426  0  0.20514  0.629578  0  4.170723  0
C  C72  1  0.73940632  0.34994243  0.34480802  1  -0.021517  0  -0.166721  -0.237155  0  3.847107  0
C  C73  1  0.26059426  0.65005196  0.65518996  1  -0.021545  0  -0.166684  -0.237103  0  3.847162  0
C  C74  1  0.92795260  0.29137492  0.48281964  1  -0.038777  0  -0.16661  -0.210997  0  3.910818  0
C  C75  1  0.07204544  0.70862055  0.51718068  1  -0.038625  0  -0.166644  -0.210964  0  3.910757  0
C  C76  1  0.84096501  0.22823448  0.42270505  1  0.026331  0  -0.092085  0.041783  0  3.864815  0
C  C77  1  0.15903932  0.77175895  0.57729571  1  0.026203  0  -0.092125  0.041743  0  3.864929  0
C  C78  1  0.96223775  0.13308385  0.38300536  1  -0.027023  0  -0.16313  -0.239086  0  3.876317  0
C  C79  1  0.03776716  0.86691174  0.61699498  1  -0.026626  0  -0.163006  -0.238914  0  3.876132  0
C  C80  1  0.07154572  0.22000543  0.32555280  1  0.044108  0  -0.013109  0.193751  0  3.750222  0
C  C81  1  0.92845519  0.77999227  0.67444774  1  0.044059  0  -0.013178  0.193544  0  3.750584  0
C  C82  1  0.13794877  0.59323304  0.02059430  1  0.48518  0  0.049333  0.101797  0  3.957165  0
C  C83  1  0.86204867  0.40678612  0.97939873  1  0.484903  0  0.049459  0.101828  0  3.957367  0
C  C84  1  0.01695164  0.70909813  0.01912796  1  0.009935  0  -0.077659  -0.163688  0  3.887551  0
C  C85  1  0.98305271  0.29092122  0.98086829  1  0.012871  0  -0.077705  -0.163745  0  3.88798  0
C  C86  1  0.02232041  0.77757877  0.08574516  1  -0.036081  0  0.013971  0.101692  0  3.969139  0
C  C87  1  0.97768027  0.22242871  0.91425729  1  -0.035911  0  0.013946  0.101764  0  3.969288  0
C  C88  1  0.15216286  0.72218705  0.15140675  1  -0.053513  0  -0.07961  -0.176715  0  3.954246  0
C  C89  1  0.84783351  0.27781062  0.84859635  1  -0.053373  0  -0.079643  -0.1769  0  3.954322  0
C  C90  1  0.26779809  0.60517641  0.14794331  1  0.50943  0  0.050873  0.097677  0  3.966091  0
C  C91  1  0.73219509  0.39482008  0.85205743  1  0.509635  0  0.050892  0.097849  0  3.965863  0
C  C92  1  0.89522721  0.90161043  0.08595194  1  -0.058103  0  0.012464  0.099682  0  3.963805  0
C  C93  1  0.10477547  0.09839815  0.91404966  1  -0.05808  0  0.012429  0.099593  0  3.96373  0
C  C94  1  0.77261219  0.96006411  0.01604671  1  0.016578  0  -0.0762  -0.159941  0  3.896918  0
C  C95  1  0.22738961  0.03994335  0.98395383  1  0.016455  0  -0.076213  -0.159964  0  3.896912  0
C  C96  1  0.89074489  0.96568125  0.15537284  1  -0.007426  0  -0.080017  -0.168997  0  3.939826  0
C  C97  1  0.10925206  0.03432722  0.84462811  1  -0.007284  0  -0.079933  -0.168873  0  3.939584  0
C  C98  1  0.76935329  0.08245755  0.15216208  1  0.478859  0  0.049401  0.093916  0  3.953931  0
C  C99  1  0.23064511  0.91754557  0.84784123  1  0.479036  0  0.049403  0.093872  0  3.95406  0
C  C100  1  0.65582167  0.07737220  0.01779540  1  0.447984  0  0.047947  0.093785  0  3.943784  0
C  C101  1  0.34417786  0.92263525  0.98220642  1  0.448104  0  0.047875  0.093679  0  3.9438  0
N  N102  1  0.65360549  0.13823320  0.08436922  1  -1.220412  0  -0.325576  -0.225274  0  3.494728  0
N  N103  1  0.34639346  0.86177207  0.91563238  1  -1.220581  0  -0.325549  -0.225214  0  3.494657  0
N  N104  1  0.26198956  0.54175636  0.08312696  1  -1.24682  0  -0.327707  -0.248622  0  3.531075  0
N  N105  1  0.73799930  0.45824757  0.91687034  1  -1.246519  0  -0.327851  -0.248819  0  3.531244  0
O  O106  1  0.40220413  0.23592104  0.24397919  1  -1.169215  0  -0.343045  -0.566997  0  2.126022  0
O  O107  1  0.59779619  0.76408310  0.75601877  1  -1.169128  0  -0.343044  -0.566994  0  2.125936  0
O  O108  1  0.26031294  0.19436990  0.13664315  1  -1.188644  0  -0.347316  -0.588331  0  2.214066  0
O  O109  1  0.73969112  0.80562893  0.86335718  1  -1.188644  0  -0.347347  -0.588393  0  2.214076  0
O  O110  1  0.62009346  0.65230437  0.06171543  1  -1.189242  0  -0.339834  -0.582165  0  2.297659  0
O  O111  1  0.37989715  0.34769747  0.93828423  1  -1.189546  0  -0.339817  -0.582113  0  2.297676  0
O  O112  1  0.64334525  0.41757615  0.13958522  1  -1.188196  0  -0.325506  -0.567594  0  2.356932  0
O  O113  1  0.35666789  0.58241842  0.86041086  1  -1.18803  0  -0.325516  -0.567615  0  2.35698  0
