# generated using pymatgen
data_LiH2C2O3
_symmetry_space_group_name_H-M   'P 1'
_cell_length_a   4.98876705
_cell_length_b   7.98277077
_cell_length_c   8.20806257
_cell_angle_alpha   80.07932016
_cell_angle_beta   72.32101604
_cell_angle_gamma   71.75939139
_symmetry_Int_Tables_number   1
_chemical_formula_structural   LiH2C2O3
_chemical_formula_sum   'Li4 H8 C8 O12'
_cell_volume   294.71279215
_cell_formula_units_Z   4
loop_
 _symmetry_equiv_pos_site_id
 _symmetry_equiv_pos_as_xyz
  1  'x, y, z'
loop_
 _atom_site_type_symbol
 _atom_site_label
 _atom_site_symmetry_multiplicity
 _atom_site_fract_x
 _atom_site_fract_y
 _atom_site_fract_z
 _atom_site_occupancy
 _atom_site_pbe_bader_spin_density
 _atom_site_pbe_cm5_charge
 _atom_site_pbe_ddec_charge
 _atom_site_pbe_ddec_spin_density
 _atom_site_pbe_ddec_sum_bond_order
 _atom_site_pbe_magmom
Li  Li0  1  0.39217449  0.07123300  0.58172779  1  0  0.530455  0.800879  0  0.53624  0
Li  Li1  1  0.04581991  0.92822006  0.41798137  1  0  0.530394  0.801346  0  0.535415  0
Li  Li2  1  0.52574979  0.58620063  0.05512731  1  0  0.531848  0.803774  0  0.530779  0
Li  Li3  1  0.16829911  0.41378675  0.94460870  1  0  0.531821  0.803077  0  0.531969  0
H  H4  1  0.33934166  0.89544933  0.88978192  1  0  0.316518  0.362204  0  0.978206  0
H  H5  1  0.12428439  0.10577075  0.11077167  1  0  0.316084  0.362744  0  0.977487  0
H  H6  1  0.32779492  0.39699002  0.62103883  1  0  0.313124  0.354383  0  0.992283  0
H  H7  1  0.34518868  0.60301711  0.37847591  1  0  0.313285  0.355831  0  0.991619  0
H  H8  1  0.89201760  0.31884573  0.50402383  1  0  0.138258  0.086872  0  0.972125  0
H  H9  1  0.71421275  0.68080806  0.49601973  1  0  0.138488  0.087165  0  0.972052  0
H  H10  1  0.85174062  0.81998119  0.01419396  1  0  0.134058  0.080299  0  1.002046  0
H  H11  1  0.68714417  0.17911355  0.98563384  1  0  0.132914  0.078102  0  1.002458  0
C  C12  1  0.74540839  0.44302175  0.73693482  1  0  0.242539  0.623005  0  4.144844  0
C  C13  1  0.92460508  0.55695986  0.26304398  1  0  0.242335  0.620502  0  4.145594  0
C  C14  1  0.96001174  0.41003210  0.55906881  1  0  0.018473  0.045044  0  3.84224  0
C  C15  1  0.92858600  0.58978818  0.44098172  1  0  0.016752  0.045898  0  3.84045  0
C  C16  1  0.86488295  0.95782275  0.76933699  1  0  0.244624  0.628817  0  4.140186  0
C  C17  1  0.59307646  0.04218946  0.23086545  1  0  0.244033  0.63064  0  4.140741  0
C  C18  1  0.69112480  0.91301454  0.95131802  1  0  0.017105  0.042648  0  3.856295  0
C  C19  1  0.55613342  0.08660555  0.04891635  1  0  0.017042  0.043593  0  3.854865  0
O  O20  1  0.83418192  0.45673629  0.86219789  1  0  -0.430992  -0.703367  0  2.234662  0
O  O21  1  0.15227141  0.54356150  0.13781123  1  0  -0.431873  -0.703597  0  2.235357  0
O  O22  1  0.47864859  0.45808130  0.74909825  1  0  -0.363666  -0.643679  0  2.242522  0
O  O23  1  0.68517790  0.54204956  0.25061348  1  0  -0.362372  -0.641955  0  2.244726  0
O  O24  1  0.25435452  0.32829526  0.56087216  1  0  -0.444923  -0.562651  0  2.379226  0
O  O25  1  0.14287640  0.67173221  0.43877598  1  0  -0.444258  -0.563969  0  2.379311  0
O  O26  1  0.75469508  0.98172079  0.64370134  1  0  -0.43065  -0.700921  0  2.213713  0
O  O27  1  0.38221710  0.01665764  0.35642207  1  0  -0.431794  -0.702601  0  2.212173  0
O  O28  1  0.11645699  0.97380518  0.75589565  1  0  -0.368272  -0.649406  0  2.252611  0
O  O29  1  0.84633086  0.02815093  0.24450095  1  0  -0.36716  -0.648792  0  2.253896  0
O  O30  1  0.47434582  0.82949197  0.96271658  1  0  -0.447414  -0.567778  0  2.387469  0
O  O31  1  0.26723303  0.17087058  0.03754439  1  0  -0.446777  -0.56811  0  2.38401  0
