# generated using pymatgen
data_ZnH12C8(NO4)2
_symmetry_space_group_name_H-M   'P 1'
_cell_length_a   6.79401539
_cell_length_b   10.95143040
_cell_length_c   10.95144031
_cell_angle_alpha   108.28870151
_cell_angle_beta   89.99992763
_cell_angle_gamma   90.00034429
_symmetry_Int_Tables_number   1
_chemical_formula_structural   ZnH12C8(NO4)2
_chemical_formula_sum   'Zn2 H24 C16 N4 O16'
_cell_volume   773.67365667
_cell_formula_units_Z   2
loop_
 _symmetry_equiv_pos_site_id
 _symmetry_equiv_pos_as_xyz
  1  'x, y, z'
loop_
 _atom_site_type_symbol
 _atom_site_label
 _atom_site_symmetry_multiplicity
 _atom_site_fract_x
 _atom_site_fract_y
 _atom_site_fract_z
 _atom_site_occupancy
 _atom_site_hle17_bader_spin_density
 _atom_site_hle17_ddec_charge
 _atom_site_hle17_ddec_spin_density
 _atom_site_hle17_ddec_sum_bond_order
 _atom_site_hle17_magmom
 _atom_site_hse06_10hf_bader_spin_density
 _atom_site_hse06_10hf_ddec_charge
 _atom_site_hse06_10hf_ddec_spin_density
 _atom_site_hse06_10hf_ddec_sum_bond_order
 _atom_site_hse06_10hf_magmom
 _atom_site_hse06_bader_spin_density
 _atom_site_hse06_ddec_charge
 _atom_site_hse06_ddec_spin_density
 _atom_site_hse06_ddec_sum_bond_order
 _atom_site_hse06_magmom
 _atom_site_pbe_bader_spin_density
 _atom_site_pbe_cm5_charge
 _atom_site_pbe_ddec_charge
 _atom_site_pbe_ddec_spin_density
 _atom_site_pbe_ddec_sum_bond_order
 _atom_site_pbe_magmom
Zn  Zn0  1  0.89110923  0.99999846  0.49999915  1  0  1.156853  0  1.712863  0  0  0.972689  0  2.199581  0  0  1.024707  0  2.133293  0  0  0.677829  0.93585  0  2.24561  0
Zn  Zn1  1  0.10889139  0.49999871  0.99999928  1  0  1.156859  0  1.712872  0  0  0.972713  0  2.199589  0  0  1.024725  0  2.133302  0  0  0.677818  0.935873  0  2.24562  0
H  H2  1  0.63415908  0.97891008  0.86904968  1  0  0.108504  0  0.908134  0  0  0.12513  0  0.964077  0  0  0.126888  0  0.963144  0  0  0.123782  0.123793  0  0.964955  0
H  H3  1  0.63415662  0.02108661  0.13094677  1  0  0.108469  0  0.90818  0  0  0.125166  0  0.964054  0  0  0.126926  0  0.963121  0  0  0.123787  0.123828  0  0.964932  0
H  H4  1  0.36584435  0.86904670  0.97890975  1  0  0.108549  0  0.908072  0  0  0.125193  0  0.963994  0  0  0.126952  0  0.963057  0  0  0.123794  0.123857  0  0.96487  0
H  H5  1  0.36584613  0.13095089  0.02108719  1  0  0.108495  0  0.908214  0  0  0.125174  0  0.964096  0  0  0.126934  0  0.963161  0  0  0.123801  0.123837  0  0.964971  0
H  H6  1  0.40176788  0.98000801  0.78993160  1  0  0.140416  0  0.94092  0  0  0.15255  0  1.001145  0  0  0.156392  0  0.997789  0  0  0.125654  0.149665  0  1.003784  0
H  H7  1  0.40176671  0.01998876  0.21006780  1  0  0.140445  0  0.940894  0  0  0.152584  0  1.001127  0  0  0.156428  0  0.997769  0  0  0.12567  0.149699  0  1.003766  0
H  H8  1  0.59823084  0.78992524  0.98000786  1  0  0.140403  0  0.940994  0  0  0.152577  0  1.001166  0  0  0.156395  0  0.99784  0  0  0.125671  0.149697  0  1.003802  0
H  H9  1  0.59823192  0.21007516  0.01999161  1  0  0.140398  0  0.940973  0  0  0.152574  0  1.001146  0  0  0.156392  0  0.997821  0  0  0.125668  0.14969  0  1.003786  0
H  H10  1  0.39975545  0.25516974  0.55539142  1  0  0.113272  0  0.921718  0  0  0.126828  0  0.979347  0  0  0.1292  0  0.978044  0  0  0.11808  0.125232  0  0.980147  0
H  H11  1  0.39975943  0.74483280  0.44461160  1  0  0.113219  0  0.92172  0  0  0.126851  0  0.979275  0  0  0.129227  0  0.977971  0  0  0.118088  0.125268  0  0.980084  0
H  H12  1  0.60024396  0.55539339  0.25517277  1  0  0.113304  0  0.921692  0  0  0.126857  0  0.979316  0  0  0.129228  0  0.978015  0  0  0.118093  0.12526  0  0.980115  0
H  H13  1  0.60024587  0.44460798  0.74482791  1  0  0.11329  0  0.921699  0  0  0.126848  0  0.979311  0  0  0.129221  0  0.978007  0  0  0.118104  0.125252  0  0.980111  0
H  H14  1  0.26298693  0.35903493  0.68629607  1  0  0.134907  0  0.912824  0  0  0.146552  0  0.971366  0  0  0.149789  0  0.969099  0  0  0.125231  0.144162  0  0.973191  0
H  H15  1  0.26299162  0.64096516  0.31370722  1  0  0.134907  0  0.912805  0  0  0.146516  0  0.971394  0  0  0.149753  0  0.969131  0  0  0.125251  0.14414  0  0.973228  0
H  H16  1  0.73701192  0.68629981  0.35903723  1  0  0.13487  0  0.912881  0  0  0.146497  0  0.971437  0  0  0.14973  0  0.969177  0  0  0.125209  0.144104  0  0.973263  0
H  H17  1  0.73700982  0.31370305  0.64096107  1  0  0.134892  0  0.912813  0  0  0.146475  0  0.971411  0  0  0.149707  0  0.969156  0  0  0.125229  0.144086  0  0.973236  0
H  H18  1  0.61716808  0.73902903  0.75175965  1  0  0.315591  0  0.805973  0  0  0.304014  0  0.850164  0  0  0.311415  0  0.845026  0  0  0.344908  0.298718  0  0.853931  0
H  H19  1  0.61716772  0.26096952  0.24824014  1  0  0.315622  0  0.805942  0  0  0.304035  0  0.850142  0  0  0.311435  0  0.845003  0  0  0.344907  0.298739  0  0.853908  0
H  H20  1  0.38284133  0.75175790  0.73902575  1  0  0.315618  0  0.805999  0  0  0.304044  0  0.850183  0  0  0.311442  0  0.845046  0  0  0.344928  0.298748  0  0.853949  0
H  H21  1  0.38283935  0.24823879  0.26097364  1  0  0.315624  0  0.805979  0  0  0.304042  0  0.850168  0  0  0.311439  0  0.845032  0  0  0.344918  0.298746  0  0.853935  0
H  H22  1  0.55620137  0.16766201  0.71496766  1  0  0.297014  0  0.88455  0  0  0.276997  0  0.948257  0  0  0.28485  0  0.94273  0  0  0.311399  0.271459  0  0.952243  0
H  H23  1  0.55620211  0.83234015  0.28503421  1  0  0.296912  0  0.884627  0  0  0.276957  0  0.948269  0  0  0.284811  0  0.942743  0  0  0.31141  0.271421  0  0.952249  0
H  H24  1  0.44379832  0.71496906  0.16766389  1  0  0.297094  0  0.884474  0  0  0.277019  0  0.948251  0  0  0.284874  0  0.942723  0  0  0.311394  0.271481  0  0.952236  0
H  H25  1  0.44379996  0.28503364  0.83233916  1  0  0.297048  0  0.884533  0  0  0.276988  0  0.948304  0  0  0.28484  0  0.942779  0  0  0.311379  0.27145  0  0.95229  0
C  C26  1  0.53997602  0.92705788  0.78804281  1  0  -0.143256  0  3.540005  0  0  -0.209322  0  3.801166  0  0  -0.209877  0  3.805484  0  0  -0.061918  -0.208953  0  3.798379  0
C  C27  1  0.53997537  0.07293942  0.21195482  1  0  -0.143165  0  3.540022  0  0  -0.209306  0  3.801227  0  0  -0.209866  0  3.805547  0  0  -0.061858  -0.208934  0  3.798438  0
C  C28  1  0.46002543  0.78803963  0.92705716  1  0  -0.143325  0  3.539985  0  0  -0.209417  0  3.801173  0  0  -0.209957  0  3.805497  0  0  -0.061933  -0.209056  0  3.798392  0
C  C29  1  0.46002494  0.21195928  0.07294286  1  0  -0.143299  0  3.540135  0  0  -0.209417  0  3.80129  0  0  -0.209957  0  3.805619  0  0  -0.061955  -0.209047  0  3.798501  0
C  C30  1  0.64801233  0.91145734  0.66201699  1  0  0.671988  0  3.904833  0  0  0.624597  0  4.209699  0  0  0.657018  0  4.204314  0  0  0.210568  0.602667  0  4.212587  0
C  C31  1  0.64801011  0.08854421  0.33798188  1  0  0.672049  0  3.904709  0  0  0.624627  0  4.209654  0  0  0.657047  0  4.204268  0  0  0.210598  0.602695  0  4.212546  0
C  C32  1  0.35198710  0.66201456  0.91144672  1  0  0.672127  0  3.904654  0  0  0.624668  0  4.20963  0  0  0.657095  0  4.204236  0  0  0.210652  0.602736  0  4.212522  0
C  C33  1  0.35198634  0.33798682  0.08855142  1  0  0.672115  0  3.904644  0  0  0.624684  0  4.209592  0  0  0.657099  0  4.204207  0  0  0.210716  0.602756  0  4.21248  0
C  C34  1  0.33632163  0.26517608  0.65013780  1  0  -0.13165  0  3.526912  0  0  -0.189054  0  3.776001  0  0  -0.190627  0  3.781349  0  0  -0.062008  -0.187935  0  3.772299  0
C  C35  1  0.33632129  0.73482525  0.34986398  1  0  -0.131584  0  3.526688  0  0  -0.189024  0  3.775862  0  0  -0.190605  0  3.781206  0  0  -0.062037  -0.187983  0  3.77225  0
C  C36  1  0.66367671  0.65014190  0.26517925  1  0  -0.131642  0  3.526857  0  0  -0.189048  0  3.775957  0  0  -0.190617  0  3.781303  0  0  -0.062004  -0.187915  0  3.77222  0
C  C37  1  0.66368213  0.34986260  0.73482144  1  0  -0.131639  0  3.526817  0  0  -0.188964  0  3.775884  0  0  -0.190537  0  3.781229  0  0  -0.062005  -0.187846  0  3.772179  0
C  C38  1  0.18974211  0.15682528  0.63859543  1  0  0.680096  0  3.896268  0  0  0.636617  0  4.196231  0  0  0.669752  0  4.190175  0  0  0.202849  0.614053  0  4.199647  0
C  C39  1  0.18974133  0.84317069  0.36140754  1  0  0.680031  0  3.895935  0  0  0.636488  0  4.196025  0  0  0.669627  0  4.189965  0  0  0.202708  0.613945  0  4.199443  0
C  C40  1  0.81025871  0.63859804  0.15682765  1  0  0.680023  0  3.896355  0  0  0.636567  0  4.196285  0  0  0.669701  0  4.190232  0  0  0.202825  0.614002  0  4.199697  0
C  C41  1  0.81025813  0.36140413  0.84316763  1  0  0.680112  0  3.895866  0  0  0.636591  0  4.195901  0  0  0.669728  0  4.189841  0  0  0.202748  0.614029  0  4.199314  0
N  N42  1  0.50000343  0.79633616  0.79633738  1  0  -0.219677  0  3.381784  0  0  -0.154713  0  3.597196  0  0  -0.166792  0  3.605444  0  0  -0.463933  -0.14633  0  3.591422  0
N  N43  1  0.50000113  0.20366002  0.20366176  1  0  -0.219756  0  3.38185  0  0  -0.154774  0  3.597309  0  0  -0.166848  0  3.605556  0  0  -0.463968  -0.146395  0  3.591533  0
N  N44  1  0.50000087  0.26107764  0.73892338  1  0  -0.240295  0  3.384462  0  0  -0.177797  0  3.601858  0  0  -0.190698  0  3.611342  0  0  -0.479798  -0.169095  0  3.595533  0
N  N45  1  0.49999927  0.73892623  0.26107816  1  0  -0.240197  0  3.384192  0  0  -0.177723  0  3.601592  0  0  -0.19062  0  3.61107  0  0  -0.479791  -0.169004  0  3.595285  0
O  O46  1  0.69601052  0.01820387  0.64421928  1  0  -0.647148  0  2.064843  0  0  -0.571391  0  2.325749  0  0  -0.600986  0  2.310878  0  0  -0.313565  -0.550877  0  2.335276  0
O  O47  1  0.69601258  0.98179402  0.35577932  1  0  -0.647173  0  2.064698  0  0  -0.57144  0  2.32565  0  0  -0.601029  0  2.310767  0  0  -0.313624  -0.550923  0  2.335181  0
O  O48  1  0.30398390  0.64421479  0.01820673  1  0  -0.647316  0  2.064381  0  0  -0.571521  0  2.325344  0  0  -0.601127  0  2.310468  0  0  -0.313658  -0.551001  0  2.33488  0
O  O49  1  0.30398446  0.35577969  0.98179568  1  0  -0.647219  0  2.064545  0  0  -0.571466  0  2.325514  0  0  -0.601046  0  2.310627  0  0  -0.313642  -0.550956  0  2.335047  0
O  O50  1  0.68246277  0.80031249  0.59025848  1  0  -0.59404  0  1.887055  0  0  -0.555155  0  2.096203  0  0  -0.576622  0  2.086669  0  0  -0.312763  -0.540334  0  2.102304  0
O  O51  1  0.68246296  0.19968630  0.40973859  1  0  -0.594082  0  1.887096  0  0  -0.55516  0  2.09624  0  0  -0.576627  0  2.086707  0  0  -0.312775  -0.540339  0  2.102343  0
O  O52  1  0.31753595  0.59026548  0.80031323  1  0  -0.593997  0  1.887384  0  0  -0.555094  0  2.096582  0  0  -0.576556  0  2.087043  0  0  -0.312762  -0.540275  0  2.102684  0
O  O53  1  0.31753273  0.40973674  0.19968976  1  0  -0.594052  0  1.887159  0  0  -0.555132  0  2.096313  0  0  -0.576598  0  2.086783  0  0  -0.31283  -0.540313  0  2.102414  0
O  O54  1  0.05073309  0.15609177  0.55808654  1  0  -0.665872  0  2.032787  0  0  -0.598448  0  2.305687  0  0  -0.628344  0  2.288688  0  0  -0.338679  -0.577506  0  2.31681  0
O  O55  1  0.05072921  0.84390462  0.44191484  1  0  -0.665826  0  2.032593  0  0  -0.598358  0  2.305513  0  0  -0.628254  0  2.288517  0  0  -0.338563  -0.577413  0  2.316625  0
O  O56  1  0.94926742  0.55808708  0.15609406  1  0  -0.665863  0  2.032771  0  0  -0.59843  0  2.305643  0  0  -0.628325  0  2.288647  0  0  -0.338651  -0.577488  0  2.316765  0
O  O57  1  0.94927205  0.44191370  0.84390251  1  0  -0.665895  0  2.032473  0  0  -0.598451  0  2.305393  0  0  -0.628348  0  2.288397  0  0  -0.338616  -0.577509  0  2.316512  0
O  O58  1  0.21325943  0.08014905  0.70103991  1  0  -0.628288  0  1.888291  0  0  -0.590026  0  2.10176  0  0  -0.612477  0  2.092549  0  0  -0.340586  -0.574378  0  2.107671  0
O  O59  1  0.21325658  0.91985277  0.29896304  1  0  -0.628322  0  1.888209  0  0  -0.590037  0  2.101704  0  0  -0.612493  0  2.092498  0  0  -0.340591  -0.574386  0  2.107609  0
O  O60  1  0.78674281  0.70104535  0.08015008  1  0  -0.628266  0  1.888308  0  0  -0.590023  0  2.101764  0  0  -0.612473  0  2.092559  0  0  -0.340599  -0.574376  0  2.107677  0
O  O61  1  0.78674883  0.29896058  0.91984731  1  0  -0.62827  0  1.888202  0  0  -0.590017  0  2.101708  0  0  -0.612463  0  2.092493  0  0  -0.340555  -0.57437  0  2.107622  0
