# generated using pymatgen
data_MnH8C8(N3O2)2
_symmetry_space_group_name_H-M   'P 1'
_cell_length_a   4.88363914
_cell_length_b   8.58829031
_cell_length_c   12.13954228
_cell_angle_alpha   91.64699293
_cell_angle_beta   90.00012255
_cell_angle_gamma   89.99993193
_symmetry_Int_Tables_number   1
_chemical_formula_structural   MnH8C8(N3O2)2
_chemical_formula_sum   'Mn2 H16 C16 N12 O8'
_cell_volume   508.94768258
_cell_formula_units_Z   2
loop_
 _symmetry_equiv_pos_site_id
 _symmetry_equiv_pos_as_xyz
  1  'x, y, z'
loop_
 _atom_site_type_symbol
 _atom_site_label
 _atom_site_symmetry_multiplicity
 _atom_site_fract_x
 _atom_site_fract_y
 _atom_site_fract_z
 _atom_site_occupancy
 _atom_site_hle17_ddec_charge
 _atom_site_hle17_ddec_spin_density
 _atom_site_hle17_ddec_sum_bond_order
 _atom_site_hle17_magmom
 _atom_site_hse06_10hf_ddec_charge
 _atom_site_hse06_10hf_ddec_spin_density
 _atom_site_hse06_10hf_ddec_sum_bond_order
 _atom_site_hse06_10hf_magmom
 _atom_site_hse06_ddec_charge
 _atom_site_hse06_ddec_spin_density
 _atom_site_hse06_ddec_sum_bond_order
 _atom_site_hse06_magmom
 _atom_site_pbe_cm5_charge
 _atom_site_pbe_ddec_charge
 _atom_site_pbe_ddec_spin_density
 _atom_site_pbe_ddec_sum_bond_order
 _atom_site_pbe_magmom
Mn  Mn0  1  0.50000089  0.49999940  0.49999979  1  1.156564  4.795572  1.822713  4.684  0.992885  4.718955  2.324579  4.544  1.048049  4.760987  2.256985  4.604  0.601437  0.949911  4.676361  2.375644  4.484
Mn  Mn1  1  0.00000205  0.00000233  0.99999922  1  1.156511  4.795573  1.822847  4.684  0.992824  4.718959  2.324707  4.544  1.047992  4.760989  2.257107  4.604  0.601389  0.949846  4.676362  2.37578  4.484
H  H2  1  0.04112760  0.82253803  0.50510705  1  0.10249  -0.000535  0.980471  0.0  0.103258  -0.000359  1.055845  0.0  0.10658  -0.000414  1.05239  0.0  0.131575  0.100648  -0.000235  1.058714  0.0
H  H3  1  0.54112709  0.67746048  0.99489277  1  0.102517  -0.00052  0.980477  0.0  0.103215  -0.000359  1.05591  0.0  0.106535  -0.000415  1.05246  0.0  0.131549  0.100606  -0.000235  1.058777  0.0
H  H4  1  0.95887419  0.17745961  0.49489416  1  0.102531  -0.000512  0.980471  0.0  0.103229  -0.000359  1.055906  0.0  0.106551  -0.000415  1.052453  0.0  0.131563  0.100621  -0.000235  1.058774  0.0
H  H5  1  0.45887265  0.32253950  0.00510602  1  0.102526  -0.000533  0.980451  0.0  0.103256  -0.000359  1.05586  0.0  0.106579  -0.000414  1.052403  0.0  0.131567  0.100646  -0.000235  1.058726  0.0
H  H6  1  0.75726936  0.75232313  0.31850529  1  0.1003  -0.000461  0.958425  0.0  0.105585  -0.000231  1.02967  0.0  0.107833  -0.000288  1.027631  0.0  0.13874  0.103852  -0.000159  1.031186  0.0
H  H7  1  0.25727096  0.74767825  0.18149477  1  0.100299  -0.000467  0.958414  0.0  0.105586  -0.000231  1.029657  0.0  0.107835  -0.000289  1.027618  0.0  0.13874  0.103855  -0.000159  1.031169  0.0
H  H8  1  0.24273038  0.24767801  0.68149516  1  0.100284  -0.000476  0.958439  0.0  0.105568  -0.000231  1.029684  0.0  0.107816  -0.000288  1.027646  0.0  0.13874  0.103836  -0.000159  1.031201  0.0
H  H9  1  0.74273082  0.25232289  0.81850404  1  0.100291  -0.000486  0.958418  0.0  0.105589  -0.000231  1.029657  0.0  0.107837  -0.000289  1.027622  0.0  0.138728  0.103859  -0.000159  1.031172  0.0
H  H10  1  0.83769975  0.04571209  0.27284955  1  0.124974  -0.000114  0.945315  0.0  0.128473  4.9e-05  1.021993  0.0  0.1315  -7.4e-05  1.01982  0.0  0.120475  0.126269  0.000183  1.023618  0.0
H  H11  1  0.33770117  0.45428826  0.22715303  1  0.124959  -0.000157  0.945354  0.0  0.128451  4.9e-05  1.022025  0.0  0.131479  -7.5e-05  1.019853  0.0  0.120472  0.126249  0.000183  1.023646  0.0
H  H12  1  0.16229589  0.95428788  0.72715089  1  0.124964  -0.000125  0.945326  0.0  0.128513  4.8e-05  1.02198  0.0  0.131543  -7.5e-05  1.019806  0.0  0.120465  0.126282  0.000183  1.023633  0.0
H  H13  1  0.66230062  0.54571171  0.77284576  1  0.124966  -0.000149  0.945346  0.0  0.128456  4.9e-05  1.02202  0.0  0.131486  -7.5e-05  1.019844  0.0  0.120482  0.126253  0.000183  1.023649  0.0
H  H14  1  0.57957869  0.18129147  0.31642313  1  0.137339  -0.000256  0.913764  0.0  0.150809  6.9e-05  0.971987  0.001  0.153388  -0.000123  0.970515  0.0  0.130904  0.148834  0.000301  0.973245  0.001
H  H15  1  0.07958015  0.31870906  0.18357923  1  0.137331  -0.000271  0.913762  0.0  0.150779  6.9e-05  0.972009  0.001  0.153358  -0.000124  0.970537  0.0  0.130904  0.148805  0.000302  0.973269  0.001
H  H16  1  0.42041695  0.81870967  0.68357815  1  0.1373  -0.000248  0.913784  0.0  0.150777  6.9e-05  0.972021  0.001  0.153358  -0.000123  0.970548  0.0  0.130898  0.148803  0.000301  0.973276  0.001
H  H17  1  0.92042163  0.68129092  0.81642038  1  0.137326  -0.000265  0.91377  0.0  0.15079  6.9e-05  0.972003  0.001  0.153347  -0.000123  0.970556  0.0  0.130903  0.148812  0.000301  0.973268  0.001
C  C18  1  0.21254264  0.84178821  0.45003507  1  0.176938  0.001969  3.698378  0.003  0.125443  0.003415  3.994678  0.004  0.135831  0.002698  4.007218  0.003  0.139532  0.118773  0.004258  3.985924  0.004
C  C19  1  0.71254390  0.65821087  0.04996490  1  0.176861  0.001966  3.698454  0.003  0.125428  0.003415  3.994763  0.004  0.135814  0.002697  4.007305  0.003  0.139531  0.118761  0.004257  3.986006  0.004
C  C20  1  0.78745710  0.15820944  0.54996614  1  0.176821  0.001914  3.698502  0.003  0.12539  0.003416  3.994805  0.004  0.135777  0.002697  4.007344  0.003  0.139498  0.11872  0.004258  3.986053  0.004
C  C21  1  0.28745788  0.34178911  0.95003471  1  0.176906  0.001975  3.698365  0.003  0.125442  0.003415  3.994666  0.004  0.135829  0.002695  4.007206  0.003  0.139514  0.118776  0.004258  3.985907  0.004
C  C22  1  0.57572856  0.80234495  0.35640984  1  0.162902  0.002547  3.64792  0.003  0.088627  0.004436  3.91668  0.004  0.102302  0.003519  3.928718  0.004  0.16117  0.079947  0.005495  3.907819  0.005
C  C23  1  0.07573006  0.69765654  0.14359088  1  0.162934  0.002607  3.647846  0.003  0.088643  0.004435  3.916622  0.004  0.102316  0.003521  3.928661  0.004  0.1612  0.079966  0.005495  3.907759  0.005
C  C24  1  0.42427118  0.19765502  0.64359059  1  0.162914  0.002582  3.647848  0.003  0.088649  0.004437  3.91664  0.004  0.102322  0.003521  3.928679  0.004  0.161173  0.079966  0.005496  3.907782  0.005
C  C25  1  0.92427172  0.30234343  0.85640790  1  0.162931  0.002645  3.647829  0.003  0.088606  0.004436  3.916643  0.004  0.102275  0.00352  3.928687  0.004  0.161164  0.079925  0.005496  3.907786  0.005
C  C26  1  0.61623579  0.06703590  0.27580357  1  -0.192563  0.001352  3.60019  0.001  -0.263297  0.002237  3.841137  0.002  -0.264772  0.001479  3.845957  0.001  -0.050942  -0.262041  0.003015  3.838076  0.002
C  C27  1  0.11623723  0.43296460  0.22419800  1  -0.192545  0.001474  3.600253  0.001  -0.263231  0.002235  3.841122  0.002  -0.264713  0.001496  3.845947  0.001  -0.050929  -0.261975  0.003015  3.838066  0.002
C  C28  1  0.38375780  0.93296291  0.72419684  1  -0.192557  0.001369  3.600162  0.001  -0.263338  0.002238  3.841112  0.002  -0.264826  0.001496  3.845937  0.001  -0.050925  -0.262059  0.003015  3.838062  0.002
C  C29  1  0.88376251  0.56703538  0.77580161  1  -0.192516  0.00143  3.600288  0.001  -0.263225  0.002238  3.841131  0.002  -0.264689  0.001484  3.845961  0.001  -0.050929  -0.26197  0.003015  3.838078  0.002
C  C30  1  0.49886194  0.07239064  0.15855638  1  0.704687  0.011649  3.836869  0.012  0.652391  0.01915  4.142061  0.018  0.68718  0.014483  4.134593  0.014  0.226653  0.627942  0.024018  4.146674  0.022
C  C31  1  0.99886214  0.42760961  0.34144469  1  0.704648  0.011625  3.836911  0.012  0.652356  0.019148  4.142078  0.018  0.687148  0.014481  4.134609  0.014  0.226667  0.627899  0.024019  4.146702  0.022
C  C32  1  0.50113575  0.92760934  0.84144488  1  0.704747  0.011634  3.836807  0.012  0.652468  0.01915  4.141989  0.018  0.687261  0.014482  4.134517  0.014  0.226702  0.628033  0.02402  4.146584  0.022
C  C33  1  0.00113965  0.57239036  0.65855410  1  0.704554  0.011639  3.837121  0.012  0.652308  0.019149  4.142217  0.018  0.6871  0.014484  4.134746  0.014  0.226626  0.627867  0.024019  4.146822  0.022
N  N34  1  0.49027365  0.94942532  0.34278517  1  0.067289  0.000756  3.597386  0.001  0.185455  0.002004  3.782568  0.002  0.176193  0.001429  3.805713  0.002  -0.131962  0.190871  0.002387  3.768051  0.003
N  N35  1  0.99027366  0.55057474  0.15721506  1  0.067273  0.000709  3.597301  0.001  0.185456  0.002006  3.782454  0.002  0.17619  0.001426  3.805609  0.002  -0.131947  0.190871  0.002387  3.76794  0.003
N  N36  1  0.50972404  0.05057348  0.65721524  1  0.067351  0.000741  3.597145  0.001  0.185472  0.002004  3.78243  0.002  0.176206  0.001428  3.805586  0.002  -0.131954  0.190893  0.002387  3.767903  0.003
N  N37  1  0.00972812  0.44942524  0.84278372  1  0.067303  0.000713  3.597279  0.001  0.18548  0.002005  3.782481  0.002  0.176226  0.001429  3.805608  0.002  -0.131937  0.190896  0.002387  3.767965  0.003
N  N38  1  0.25690887  0.97666131  0.40169174  1  -0.262261  -0.000151  2.848008  0.0  -0.261521  0.00082  3.123068  0.001  -0.269767  0.00022  3.137409  0.001  -0.216149  -0.255978  0.001403  3.113873  0.002
N  N39  1  0.75691272  0.52333890  0.09830911  1  -0.262195  -0.000138  2.847946  0.0  -0.261468  0.000818  3.122993  0.001  -0.269713  0.000223  3.137335  0.001  -0.216154  -0.255928  0.001403  3.113802  0.002
N  N40  1  0.74308882  0.02333750  0.59830949  1  -0.262183  -0.000104  2.848013  0.0  -0.261435  0.000819  3.123075  0.001  -0.269679  0.000221  3.137416  0.001  -0.216111  -0.255895  0.001403  3.113881  0.002
N  N41  1  0.24309111  0.47666107  0.90168967  1  -0.262243  -0.000144  2.847966  0.0  -0.261512  0.000818  3.123025  0.001  -0.269759  0.000224  3.137366  0.001  -0.216145  -0.25597  0.001403  3.113831  0.002
N  N42  1  0.40428904  0.73034674  0.42411464  1  -0.405664  0.025392  3.158694  0.012  -0.342598  0.03055  3.460104  0.013  -0.363102  0.027742  3.470212  0.011  -0.334916  -0.328001  0.033098  3.452996  0.015
N  N43  1  0.90428816  0.76965338  0.07588552  1  -0.405668  0.025343  3.158701  0.012  -0.342615  0.03055  3.460116  0.013  -0.363116  0.027737  3.470223  0.011  -0.334932  -0.328021  0.033097  3.453011  0.015
N  N44  1  0.59571070  0.26965324  0.57588580  1  -0.405684  0.025376  3.158675  0.012  -0.342614  0.030549  3.460057  0.013  -0.363116  0.027741  3.470164  0.011  -0.334922  -0.328016  0.033097  3.452951  0.015
N  N45  1  0.09571158  0.23034776  0.92411411  1  -0.405662  0.025337  3.158636  0.012  -0.342585  0.030551  3.460055  0.013  -0.363089  0.027738  3.470166  0.011  -0.334887  -0.327991  0.033098  3.452954  0.015
O  O46  1  0.24711525  0.03864351  0.14695015  1  -0.649367  0.033898  2.050547  0.023  -0.585029  0.043144  2.320726  0.029  -0.614185  0.038077  2.307942  0.025  -0.307861  -0.563331  0.048143  2.328982  0.034
O  O47  1  0.74711544  0.46135807  0.35304990  1  -0.649393  0.033893  2.050533  0.023  -0.585053  0.043147  2.320706  0.029  -0.614207  0.038073  2.307922  0.025  -0.307908  -0.563347  0.048143  2.32896  0.034
O  O48  1  0.75288449  0.96135763  0.85304949  1  -0.649395  0.033898  2.050482  0.023  -0.585064  0.043145  2.320661  0.029  -0.614216  0.038072  2.307872  0.025  -0.307891  -0.563367  0.048142  2.328912  0.034
O  O49  1  0.25288839  0.53864190  0.64694888  1  -0.649391  0.0339  2.050616  0.023  -0.585055  0.043146  2.320761  0.029  -0.614213  0.038079  2.307978  0.025  -0.307911  -0.563361  0.048144  2.329019  0.034
O  O50  1  0.65979496  0.11645244  0.08397412  1  -0.645362  0.026155  2.05097  0.014  -0.584018  0.035237  2.324845  0.019  -0.612986  0.030756  2.311452  0.016  -0.307918  -0.562722  0.039911  2.334338  0.023
O  O51  1  0.15979343  0.38354686  0.41602663  1  -0.645294  0.026159  2.05093  0.014  -0.583996  0.035237  2.324853  0.019  -0.61296  0.030753  2.311456  0.016  -0.307915  -0.562698  0.039909  2.334349  0.023
O  O52  1  0.34020273  0.88354753  0.91602714  1  -0.645353  0.02616  2.051  0.014  -0.584022  0.035236  2.324881  0.019  -0.612984  0.030752  2.311478  0.016  -0.307919  -0.562732  0.03991  2.334375  0.023
O  O53  1  0.84020836  0.61645312  0.58397215  1  -0.645239  0.026157  2.051004  0.014  -0.583984  0.035237  2.324939  0.019  -0.612946  0.030754  2.311539  0.016  -0.307896  -0.562692  0.039912  2.334431  0.023
