# generated using pymatgen
data_HoAgH8C14(NO4)2
_symmetry_space_group_name_H-M   'P 1'
_cell_length_a   9.08642640
_cell_length_b   9.75986972
_cell_length_c   22.05406116
_cell_angle_alpha   89.99963280
_cell_angle_beta   90.00086634
_cell_angle_gamma   118.45940498
_symmetry_Int_Tables_number   1
_chemical_formula_structural   HoAgH8C14(NO4)2
_chemical_formula_sum   'Ho4 Ag4 H32 C56 N8 O32'
_cell_volume   1719.45629843
_cell_formula_units_Z   4
loop_
 _symmetry_equiv_pos_site_id
 _symmetry_equiv_pos_as_xyz
  1  'x, y, z'
loop_
 _atom_site_type_symbol
 _atom_site_label
 _atom_site_symmetry_multiplicity
 _atom_site_fract_x
 _atom_site_fract_y
 _atom_site_fract_z
 _atom_site_occupancy
 _atom_site_hle17_bader_spin_density
 _atom_site_hle17_ddec_charge
 _atom_site_hle17_ddec_spin_density
 _atom_site_hle17_ddec_sum_bond_order
 _atom_site_hle17_magmom
 _atom_site_hse06_10hf_bader_charge
 _atom_site_hse06_10hf_bader_spin_density
 _atom_site_hse06_10hf_ddec_charge
 _atom_site_hse06_10hf_ddec_spin_density
 _atom_site_hse06_10hf_ddec_sum_bond_order
 _atom_site_hse06_10hf_magmom
 _atom_site_hse06_bader_spin_density
 _atom_site_hse06_ddec_charge
 _atom_site_hse06_ddec_spin_density
 _atom_site_hse06_ddec_sum_bond_order
 _atom_site_hse06_magmom
 _atom_site_pbe_bader_spin_density
 _atom_site_pbe_cm5_charge
 _atom_site_pbe_ddec_charge
 _atom_site_pbe_ddec_spin_density
 _atom_site_pbe_ddec_sum_bond_order
 _atom_site_pbe_magmom
Ho  Ho0  1  0.38272775  0.65006535  0.99124265  1  0  2.255203  0  1.643311  0  2.217518  0  2.110749  0  2.12335  0  0  2.243656  0  1.924429  0  0  1.509828  2.075183  0  2.153368  0
Ho  Ho1  1  0.11727450  0.34993869  0.49124772  1  0  2.25528  0  1.64325  0  2.217491  0  2.110821  0  2.123299  0  0  2.24374  0  1.92437  0  0  1.509893  2.075237  0  2.153345  0
Ho  Ho2  1  0.61726837  0.34994515  0.00875220  1  0  2.255325  0  1.643159  0  2.21755  0  2.110895  0  2.123193  0  0  2.24379  0  1.924278  0  0  1.509886  2.075331  0  2.153207  0
Ho  Ho3  1  0.88273452  0.65006032  0.50875847  1  0  2.255256  0  1.643279  0  2.217523  0  2.110787  0  2.123372  0  0  2.243708  0  1.924404  0  0  1.509862  2.075243  0  2.153342  0
Ag  Ag4  1  0.97699420  0.30655714  0.15014366  1  0  0.525617  0  1.36834  0  0.577471  0  0.365379  0  1.780155  0  0  0.399766  0  1.736583  0  0  0.478288  0.34314  0  1.809999  0
Ag  Ag5  1  0.52301951  0.69344636  0.65014259  1  0  0.525651  0  1.368434  0  0.57744  0  0.36542  0  1.780269  0  0  0.399807  0  1.736691  0  0  0.478287  0.343155  0  1.810103  0
Ag  Ag6  1  0.02301452  0.69344998  0.84985482  1  0  0.525566  0  1.368393  0  0.577448  0  0.365323  0  1.780212  0  0  0.39971  0  1.736639  0  0  0.478259  0.343063  0  1.810052  0
Ag  Ag7  1  0.47699504  0.30655269  0.34985453  1  0  0.525594  0  1.368357  0  0.577497  0  0.365367  0  1.78018  0  0  0.399752  0  1.736605  0  0  0.478269  0.343122  0  1.810019  0
H  H8  1  0.07101453  0.76616859  0.06812537  1  0  0.111362  0  0.95111  0  0.138026  0  0.120757  0  1.014149  0  0  0.123474  0  1.011962  0  0  0.115512  0.118783  0  1.015697  0
H  H9  1  0.42898214  0.23383344  0.56813310  1  0  0.111403  0  0.950984  0  0.137942  0  0.120777  0  1.01405  0  0  0.123494  0  1.011863  0  0  0.11555  0.118787  0  1.015647  0
H  H10  1  0.92896621  0.23382670  0.93186766  1  0  0.111446  0  0.950835  0  0.137934  0  0.120823  0  1.013904  0  0  0.123544  0  1.01171  0  0  0.115528  0.118787  0  1.015533  0
H  H11  1  0.57100008  0.76615605  0.43187490  1  0  0.111329  0  0.951063  0  0.137604  0  0.120725  0  1.014102  0  0  0.123446  0  1.011907  0  0  0.115496  0.118727  0  1.015677  0
H  H12  1  0.28685314  0.97749882  0.13285986  1  0  0.123324  0  0.932982  0  0.148423  0  0.13597  0  0.983971  0  0  0.139768  0  0.981898  0  0  0.116723  0.133289  0  0.985395  0
H  H13  1  0.21315402  0.02249529  0.63286548  1  0  0.123364  0  0.932983  0  0.148792  0  0.136032  0  0.983939  0  0  0.139816  0  0.981885  0  0  0.11676  0.133364  0  0.985347  0
H  H14  1  0.71314220  0.02248614  0.86713454  1  0  0.123388  0  0.933004  0  0.148706  0  0.136047  0  0.983971  0  0  0.139848  0  0.981896  0  0  0.116768  0.133355  0  0.985402  0
H  H15  1  0.78683838  0.97748385  0.36714116  1  0  0.123264  0  0.933056  0  0.148233  0  0.135931  0  0.984009  0  0  0.139711  0  0.98196  0  0  0.116711  0.133262  0  0.985415  0
H  H16  1  0.23684575  0.19658196  0.16560805  1  0  0.063593  0  0.969853  0  0.094424  0  0.073584  0  1.037324  0  0  0.075037  0  1.035602  0  0  0.111324  0.072426  0  1.038582  0
H  H17  1  0.26317391  0.80341928  0.66561088  1  0  0.063582  0  0.969946  0  0.094383  0  0.073561  0  1.037424  0  0  0.075014  0  1.035703  0  0  0.111298  0.072434  0  1.038654  0
H  H18  1  0.76316254  0.80341124  0.83438997  1  0  0.063541  0  0.969849  0  0.094381  0  0.073514  0  1.03734  0  0  0.074969  0  1.035616  0  0  0.111277  0.072366  0  1.03859  0
H  H19  1  0.73683645  0.19656928  0.33439122  1  0  0.063636  0  0.969919  0  0.094507  0  0.073652  0  1.037349  0  0  0.075103  0  1.035634  0  0  0.11133  0.072502  0  1.038603  0
H  H20  1  0.79536734  0.02344687  0.06663280  1  0  0.097591  0  0.937643  0  0.126899  0  0.10758  0  0.999849  0  0  0.110217  0  0.996965  0  0  0.124572  0.105682  0  1.001591  0
H  H21  1  0.70463789  0.97656336  0.56663251  1  0  0.09759  0  0.937567  0  0.126789  0  0.107589  0  0.999773  0  0  0.110221  0  0.996894  0  0  0.124597  0.105726  0  1.001478  0
H  H22  1  0.20463437  0.97656599  0.93336659  1  0  0.097626  0  0.937552  0  0.126842  0  0.107625  0  0.999754  0  0  0.11028  0  0.99685  0  0  0.124603  0.105751  0  1.001464  0
H  H23  1  0.29536590  0.02344488  0.43336642  1  0  0.097581  0  0.937624  0  0.126808  0  0.10757  0  0.999836  0  0  0.110205  0  0.996954  0  0  0.124563  0.105673  0  1.001573  0
H  H24  1  0.01137973  0.34622534  0.28449545  1  0  0.088584  0  0.935835  0  0.152016  0  0.097372  0  1.000119  0  0  0.101117  0  0.995341  0  0  0.120885  0.094833  0  1.003177  0
H  H25  1  0.48861616  0.65377245  0.78448967  1  0  0.088527  0  0.935934  0  0.151861  0  0.097334  0  1.000187  0  0  0.101083  0  0.99541  0  0  0.12086  0.094804  0  1.003227  0
H  H26  1  0.98862245  0.65376664  0.71550439  1  0  0.088542  0  0.935914  0  0.15194  0  0.097348  0  1.000174  0  0  0.101093  0  0.995395  0  0  0.120888  0.0948  0  1.00325  0
H  H27  1  0.51139263  0.34623700  0.21550381  1  0  0.088526  0  0.935923  0  0.151982  0  0.097337  0  1.000186  0  0  0.101082  0  0.995408  0  0  0.120879  0.0948  0  1.003235  0
H  H28  1  0.90333878  0.70853195  0.34319257  1  0  0.13168  0  0.922415  0  0.156798  0  0.140653  0  0.980567  0  0  0.144972  0  0.976024  0  0  0.123839  0.137431  0  0.98397  0
H  H29  1  0.59665625  0.29147060  0.84319716  1  0  0.131657  0  0.922387  0  0.156762  0  0.1406  0  0.980561  0  0  0.144917  0  0.97602  0  0  0.123812  0.137381  0  0.983952  0
H  H30  1  0.09666554  0.29145772  0.65681407  1  0  0.131665  0  0.922437  0  0.156552  0  0.14066  0  0.980557  0  0  0.144982  0  0.976011  0  0  0.123846  0.137429  0  0.983957  0
H  H31  1  0.40333303  0.70853288  0.15680720  1  0  0.131683  0  0.92249  0  0.15664  0  0.140672  0  0.980614  0  0  0.144993  0  0.976069  0  0  0.123855  0.137458  0  0.984005  0
H  H32  1  0.86080714  0.75264397  0.23238693  1  0  0.106388  0  0.934947  0  0.098429  0  0.12114  0  0.98282  0  0  0.123617  0  0.984265  0  0  0.112085  0.119335  0  0.982066  0
H  H33  1  0.63919349  0.24735378  0.73239418  1  0  0.106465  0  0.935025  0  0.098446  0  0.121186  0  0.982913  0  0  0.123662  0  0.984362  0  0  0.112096  0.119377  0  0.982163  0
H  H34  1  0.13918465  0.24735141  0.76762152  1  0  0.106514  0  0.935158  0  0.098325  0  0.121286  0  0.98299  0  0  0.123763  0  0.984438  0  0  0.112142  0.119478  0  0.982243  0
H  H35  1  0.36080265  0.75263931  0.26761381  1  0  0.106492  0  0.935031  0  0.098409  0  0.121245  0  0.982884  0  0  0.123722  0  0.984332  0  0  0.112116  0.119432  0  0.982135  0
H  H36  1  0.88533994  0.57931138  0.15373326  1  0  0.100118  0  0.927389  0  0.113491  0  0.106716  0  0.99209  0  0  0.109571  0  0.98931  0  0  0.125682  0.104412  0  0.994578  0
H  H37  1  0.61467142  0.42068282  0.65373670  1  0  0.100165  0  0.927406  0  0.113592  0  0.106762  0  0.992086  0  0  0.109615  0  0.989306  0  0  0.125653  0.104435  0  0.99459  0
H  H38  1  0.11464685  0.42068279  0.84627247  1  0  0.100144  0  0.927444  0  0.113292  0  0.106733  0  0.99214  0  0  0.109586  0  0.989362  0  0  0.125713  0.104427  0  0.994629  0
H  H39  1  0.38533895  0.57930574  0.34626586  1  0  0.100153  0  0.927371  0  0.113658  0  0.106748  0  0.992082  0  0  0.109604  0  0.989297  0  0  0.125661  0.104423  0  0.994583  0
C  C40  1  0.77997998  0.75217426  0.02521078  1  0  0.71836  0  3.878983  0  1.66764  0  0.669468  0  4.171954  0  0  0.706799  0  4.164667  0  0  0.226343  0.644958  0  4.178557  0
C  C41  1  0.72002686  0.24783127  0.52521445  1  0  0.718524  0  3.879051  0  1.667768  0  0.669742  0  4.171808  0  0  0.707075  0  4.164516  0  0  0.226478  0.645237  0  4.178392  0
C  C42  1  0.22002381  0.24783398  0.97478497  1  0  0.718562  0  3.878976  0  1.66779  0  0.669678  0  4.171905  0  0  0.70701  0  4.164613  0  0  0.226457  0.645172  0  4.1785  0
C  C43  1  0.27997451  0.75216999  0.47479037  1  0  0.718352  0  3.879083  0  1.667641  0  0.669474  0  4.172011  0  0  0.706805  0  4.164729  0  0  0.226349  0.644964  0  4.178609  0
C  C44  1  0.91585697  0.87842651  0.06274062  1  0  -0.110818  0  3.715097  0  -0.024881  0  -0.084837  0  3.949057  0  0  -0.096917  0  3.970702  0  0  -0.009647  -0.07682  0  3.933492  0
C  C45  1  0.58414576  0.12157906  0.56274335  1  0  -0.110954  0  3.715144  0  -0.024756  0  -0.084985  0  3.949077  0  0  -0.097082  0  3.970745  0  0  -0.009695  -0.076958  0  3.933499  0
C  C46  1  0.08413901  0.12157935  0.93725604  1  0  -0.110878  0  3.715186  0  -0.024648  0  -0.084848  0  3.94913  0  0  -0.096939  0  3.970796  0  0  -0.009653  -0.076827  0  3.933558  0
C  C47  1  0.41584831  0.87841866  0.43725875  1  0  -0.110962  0  3.715363  0  -0.024739  0  -0.084962  0  3.949303  0  0  -0.097049  0  3.970956  0  0  -0.00968  -0.076948  0  3.933739  0
C  C48  1  0.05506857  0.86516340  0.08220241  1  0  -0.00018  0  3.659603  0  0.002119  0  -0.030735  0  3.907829  0  0  -0.024833  0  3.924151  0  0  -0.054518  -0.034334  0  3.896657  0
C  C49  1  0.44493312  0.13484102  0.58220507  1  0  -0.000122  0  3.659239  0  0.002064  0  -0.030665  0  3.907476  0  0  -0.024754  0  3.923794  0  0  -0.054502  -0.034229  0  3.896315  0
C  C50  1  0.94492277  0.13483545  0.91779561  1  0  -0.0003  0  3.65935  0  0.001967  0  -0.030875  0  3.90763  0  0  -0.024973  0  3.923952  0  0  -0.054644  -0.03442  0  3.896485  0
C  C51  1  0.55505867  0.86515436  0.41779748  1  0  -3.4e-05  0  3.659612  0  0.002429  0  -0.030597  0  3.907834  0  0  -0.02469  0  3.924154  0  0  -0.054494  -0.034184  0  3.896678  0
C  C52  1  0.17354636  0.98072979  0.11907156  1  0  -0.097898  0  3.71173  0  -0.018252  0  -0.107826  0  3.958191  0  0  -0.115317  0  3.978571  0  0  -0.073582  -0.103051  0  3.94449  0
C  C53  1  0.32645703  0.01926659  0.61907381  1  0  -0.098055  0  3.711765  0  -0.018616  0  -0.108008  0  3.958246  0  0  -0.115488  0  3.978627  0  0  -0.073683  -0.103222  0  3.944506  0
C  C54  1  0.82644919  0.01926214  0.88092646  1  0  -0.098054  0  3.711627  0  -0.018618  0  -0.107991  0  3.958114  0  0  -0.115484  0  3.978489  0  0  -0.073649  -0.103215  0  3.944396  0
C  C55  1  0.67353655  0.98071488  0.38093010  1  0  -0.097871  0  3.711865  0  -0.018108  0  -0.107804  0  3.958333  0  0  -0.115279  0  3.978711  0  0  -0.073556  -0.103033  0  3.944616  0
C  C56  1  0.14773625  0.10430276  0.13653526  1  0  0.128194  0  3.704307  0  0.431666  0  0.096189  0  3.946219  0  0  0.104788  0  3.964932  0  0  0.047743  0.090584  0  3.9336  0
C  C57  1  0.35227009  0.89569599  0.63653793  1  0  0.128344  0  3.704373  0  0.431813  0  0.096341  0  3.946291  0  0  0.104941  0  3.964999  0  0  0.047859  0.09073  0  3.93365  0
C  C58  1  0.85226652  0.89569038  0.86346231  1  0  0.128455  0  3.704239  0  0.431804  0  0.096468  0  3.946163  0  0  0.105066  0  3.964875  0  0  0.047924  0.090851  0  3.933551  0
C  C59  1  0.64772812  0.10429248  0.36346372  1  0  0.128125  0  3.704207  0  0.431815  0  0.096096  0  3.946084  0  0  0.104692  0  3.964795  0  0  0.047716  0.090487  0  3.933467  0
C  C60  1  0.90104099  0.00814817  0.08126038  1  0  0.118451  0  3.654588  0  0.493962  0  0.077979  0  3.893081  0  0  0.086797  0  3.911274  0  0  0.052355  0.072241  0  3.880592  0
C  C61  1  0.59896185  0.99185627  0.58126212  1  0  0.118501  0  3.654602  0  0.493958  0  0.078  0  3.893119  0  0  0.08683  0  3.911316  0  0  0.052365  0.07226  0  3.880618  0
C  C62  1  0.09895882  0.99185656  0.91873900  1  0  0.118398  0  3.654521  0  0.494009  0  0.077895  0  3.893041  0  0  0.086702  0  3.911233  0  0  0.052333  0.07214  0  3.88058  0
C  C63  1  0.40103789  0.00814613  0.41873772  1  0  0.118474  0  3.654789  0  0.494217  0  0.077982  0  3.893287  0  0  0.086806  0  3.911478  0  0  0.052369  0.072247  0  3.880792  0
C  C64  1  0.97555568  0.43543305  0.27405671  1  0  0.089944  0  3.730087  0  0.437646  0  0.049841  0  3.974448  0  0  0.057981  0  3.99352  0  0  0.045439  0.044355  0  3.96178  0
C  C65  1  0.52444152  0.56456359  0.77405374  1  0  0.090235  0  3.730009  0  0.438148  0  0.050188  0  3.974297  0  0  0.058286  0  3.993441  0  0  0.045594  0.044711  0  3.961623  0
C  C66  1  0.02444488  0.56456008  0.72594494  1  0  0.090126  0  3.729978  0  0.438181  0  0.05001  0  3.974294  0  0  0.058138  0  3.993388  0  0  0.045516  0.044523  0  3.961641  0
C  C67  1  0.47555984  0.43543767  0.22594156  1  0  0.090082  0  3.729997  0  0.438036  0  0.049946  0  3.974308  0  0  0.058073  0  3.993403  0  0  0.045474  0.044464  0  3.961637  0
C  C68  1  0.95952147  0.52292482  0.32103291  1  0  -0.11521  0  3.740143  0  0.016842  0  -0.088745  0  3.974008  0  0  -0.100986  0  3.995741  0  0  -0.009865  -0.08059  0  3.958033  0
C  C69  1  0.54047500  0.47708003  0.82103437  1  0  -0.115254  0  3.740245  0  0.015778  0  -0.088941  0  3.974188  0  0  -0.101173  0  3.995905  0  0  -0.009906  -0.080783  0  3.958201  0
C  C70  1  0.04048631  0.47706953  0.67896873  1  0  -0.11539  0  3.740168  0  0.018052  0  -0.088943  0  3.97402  0  0  -0.10117  0  3.995754  0  0  -0.009932  -0.08079  0  3.958057  0
C  C71  1  0.45952053  0.52292931  0.17896592  1  0  -0.115395  0  3.740394  0  0.016873  0  -0.088881  0  3.974165  0  0  -0.101117  0  3.995895  0  0  -0.009963  -0.080725  0  3.958182  0
C  C72  1  0.91664013  0.63925596  0.30676812  1  0  -4e-06  0  3.648157  0  -0.069785  0  -0.027659  0  3.89253  0  0  -0.020907  0  3.906854  0  0  -0.048941  -0.031709  0  3.882209  0
C  C73  1  0.58335793  0.36074655  0.80677199  1  0  0.00011  0  3.647864  0  -0.069479  0  -0.027465  0  3.892212  0  0  -0.020707  0  3.906526  0  0  -0.048908  -0.031515  0  3.881872  0
C  C74  1  0.08336544  0.36073837  0.69323760  1  0  0.000237  0  3.647966  0  -0.07028  0  -0.027424  0  3.892325  0  0  -0.020675  0  3.906648  0  0  -0.04888  -0.031478  0  3.882  0
C  C75  1  0.41663576  0.63925697  0.19323193  1  0  8.5e-05  0  3.648076  0  -0.069385  0  -0.027598  0  3.892413  0  0  -0.020845  0  3.906733  0  0  -0.04895  -0.031651  0  3.88207  0
C  C76  1  0.89279763  0.66262829  0.24591256  1  0  -0.124896  0  3.743687  0  0.001279  0  -0.135429  0  3.994195  0  0  -0.14496  0  4.01785  0  0  -0.080702  -0.129223  0  3.97824  0
C  C77  1  0.60720683  0.33736951  0.74591664  1  0  -0.125133  0  3.74373  0  0.001206  0  -0.135642  0  3.994213  0  0  -0.145176  0  4.017864  0  0  -0.080734  -0.129439  0  3.978272  0
C  C78  1  0.10720456  0.33736369  0.75409362  1  0  -0.125228  0  3.743729  0  0.000359  0  -0.13581  0  3.994283  0  0  -0.145341  0  4.017931  0  0  -0.080852  -0.129612  0  3.978342  0
C  C79  1  0.39279166  0.66262824  0.25408909  1  0  -0.125055  0  3.743709  0  0.001225  0  -0.13559  0  3.994222  0  0  -0.145126  0  4.01788  0  0  -0.08071  -0.129384  0  3.978273  0
C  C80  1  0.90779339  0.56800791  0.20159165  1  0  0.138279  0  3.653809  0  0.484931  0  0.10487  0  3.901708  0  0  0.113712  0  3.91989  0  0  0.055591  0.099197  0  3.889594  0
C  C81  1  0.59221602  0.43198985  0.70159174  1  0  0.138326  0  3.653904  0  0.485196  0  0.10492  0  3.901783  0  0  0.11377  0  3.919957  0  0  0.055597  0.099253  0  3.889703  0
C  C82  1  0.09220127  0.43199097  0.79841544  1  0  0.138265  0  3.653833  0  0.485851  0  0.104865  0  3.901735  0  0  0.113715  0  3.919909  0  0  0.055529  0.099185  0  3.889636  0
C  C83  1  0.40779228  0.56800335  0.29840809  1  0  0.138305  0  3.65408  0  0.484829  0  0.104881  0  3.901978  0  0  0.113725  0  3.920162  0  0  0.055621  0.099211  0  3.889889  0
C  C84  1  0.98894271  0.48926593  0.38508248  1  0  0.708694  0  3.902549  0  1.643585  0  0.659705  0  4.194023  0  0  0.695891  0  4.189591  0  0  0.229961  0.635697  0  4.199988  0
C  C85  1  0.51105132  0.51074250  0.88507958  1  0  0.708605  0  3.902784  0  1.642913  0  0.659779  0  4.194013  0  0  0.695965  0  4.189573  0  0  0.229978  0.635768  0  4.199973  0
C  C86  1  0.01106566  0.51072959  0.61492234  1  0  0.708586  0  3.903022  0  1.64366  0  0.659651  0  4.194384  0  0  0.69581  0  4.189994  0  0  0.229846  0.635631  0  4.200354  0
C  C87  1  0.48894111  0.48927377  0.11491980  1  0  0.708559  0  3.902949  0  1.643024  0  0.659616  0  4.194277  0  0  0.695794  0  4.189855  0  0  0.229874  0.635601  0  4.200239  0
C  C88  1  0.49188081  0.99283081  0.03507304  1  0  0.547197  0  3.958465  0  1.615475  0  0.504685  0  4.260908  0  0  0.534192  0  4.259983  0  0  0.205412  0.484297  0  4.26716  0
C  C89  1  0.00812128  0.00719093  0.53508468  1  0  0.547476  0  3.957901  0  1.66049  0  0.504806  0  4.260535  0  0  0.534363  0  4.259554  0  0  0.205448  0.484413  0  4.26679  0
C  C90  1  0.50811742  0.00719480  0.96491773  1  0  0.547344  0  3.958155  0  1.660357  0  0.504668  0  4.260794  0  0  0.534224  0  4.259818  0  0  0.20543  0.484281  0  4.267021  0
C  C91  1  0.99188258  0.99281963  0.46492739  1  0  0.547116  0  3.958491  0  1.615415  0  0.504589  0  4.260955  0  0  0.534098  0  4.260028  0  0  0.205457  0.484199  0  4.267198  0
C  C92  1  0.00284811  0.48058882  0.03367250  1  0  0.554706  0  3.95235  0  1.647524  0  0.509191  0  4.245647  0  0  0.539373  0  4.244082  0  0  0.202568  0.488581  0  4.251342  0
C  C93  1  0.49715985  0.51940976  0.53366987  1  0  0.554793  0  3.95217  0  1.623588  0  0.509323  0  4.245393  0  0  0.539503  0  4.24383  0  0  0.202562  0.48869  0  4.25113  0
C  C94  1  0.99714934  0.51941125  0.96632870  1  0  0.554784  0  3.952268  0  1.623511  0  0.509311  0  4.245492  0  0  0.539487  0  4.243932  0  0  0.202565  0.488697  0  4.251185  0
C  C95  1  0.50285567  0.48058466  0.46632679  1  0  0.554761  0  3.952236  0  1.647927  0  0.509261  0  4.245475  0  0  0.539442  0  4.24391  0  0  0.202603  0.488655  0  4.251162  0
N  N96  1  0.01363269  0.11833443  0.11822844  1  0  -0.305801  0  3.379046  0  -1.252166  0  -0.212767  0  3.665388  0  0  -0.233514  0  3.680797  0  0  -0.351516  -0.199194  0  3.654805  0
N  N97  1  0.48638084  0.88166899  0.61822926  1  0  -0.305863  0  3.379068  0  -1.252078  0  -0.212828  0  3.665423  0  0  -0.233574  0  3.680829  0  0  -0.351477  -0.19923  0  3.654847  0
N  N98  1  0.98637147  0.88166801  0.88177094  1  0  -0.305788  0  3.37907  0  -1.252167  0  -0.212756  0  3.665419  0  0  -0.233504  0  3.680835  0  0  -0.351527  -0.199179  0  3.654857  0
N  N99  1  0.51362083  0.11832415  0.38177148  1  0  -0.305756  0  3.379071  0  -1.252498  0  -0.21272  0  3.665417  0  0  -0.233466  0  3.680827  0  0  -0.351493  -0.199136  0  3.654835  0
N  N100  1  0.94847225  0.45554652  0.21548235  1  0  -0.298406  0  3.369905  0  -1.249543  0  -0.206859  0  3.652199  0  0  -0.227758  0  3.668974  0  0  -0.348587  -0.192587  0  3.640136  0
N  N101  1  0.55153437  0.54445124  0.71547960  1  0  -0.298606  0  3.369888  0  -1.249717  0  -0.207079  0  3.652224  0  0  -0.227969  0  3.668982  0  0  -0.3487  -0.192807  0  3.640177  0
N  N102  1  0.05152728  0.54444892  0.78452248  1  0  -0.298362  0  3.369954  0  -1.24987  0  -0.206801  0  3.652221  0  0  -0.227698  0  3.668993  0  0  -0.348575  -0.192531  0  3.640172  0
N  N103  1  0.44847414  0.45554892  0.28451978  1  0  -0.298435  0  3.370024  0  -1.249816  0  -0.206888  0  3.652351  0  0  -0.227784  0  3.669122  0  0  -0.348604  -0.19262  0  3.640301  0
O  O104  1  0.67618965  0.78448008  0.99881160  1  0  -0.732757  0  2.047145  0  -1.214686  0  -0.684593  0  2.305125  0  0  -0.723355  0  2.294829  0  0  -0.386932  -0.66561  0  2.309556  0
O  O105  1  0.82381098  0.21553094  0.49881424  1  0  -0.732812  0  2.047237  0  -1.214707  0  -0.684743  0  2.305263  0  0  -0.723507  0  2.294959  0  0  -0.386952  -0.665745  0  2.309672  0
O  O106  1  0.32380927  0.21553161  0.00118461  1  0  -0.732858  0  2.047273  0  -1.214644  0  -0.684761  0  2.305367  0  0  -0.72352  0  2.295066  0  0  -0.386955  -0.665785  0  2.309822  0
O  O107  1  0.17619163  0.78447497  0.50119285  1  0  -0.732643  0  2.047125  0  -1.214729  0  -0.684487  0  2.305097  0  0  -0.723249  0  2.294798  0  0  -0.386863  -0.665523  0  2.30954  0
O  O108  1  0.77972750  0.62220638  0.02487316  1  0  -0.737152  0  2.091638  0  -1.224786  0  -0.683056  0  2.347222  0  0  -0.721695  0  2.336312  0  0  -0.37758  -0.664147  0  2.352086  0
O  O109  1  0.72028108  0.37780264  0.52487964  1  0  -0.737232  0  2.091571  0  -1.224907  0  -0.683124  0  2.347028  0  0  -0.721768  0  2.336111  0  0  -0.377649  -0.664217  0  2.351909  0
O  O110  1  0.22027694  0.37780535  0.97511988  1  0  -0.737184  0  2.091481  0  -1.224967  0  -0.683048  0  2.346999  0  0  -0.72169  0  2.336088  0  0  -0.377618  -0.664157  0  2.351903  0
O  O111  1  0.27972308  0.62219980  0.47512655  1  0  -0.737149  0  2.091521  0  -1.224824  0  -0.68305  0  2.347083  0  0  -0.7217  0  2.336176  0  0  -0.377591  -0.664127  0  2.351946  0
O  O112  1  0.04804675  0.39604753  0.39284787  1  0  -0.697623  0  2.001454  0  -1.187414  0  -0.650646  0  2.252192  0  0  -0.68679  0  2.239021  0  0  -0.376712  -0.632858  0  2.258315  0
O  O113  1  0.45193181  0.60395380  0.89283974  1  0  -0.697691  0  2.001227  0  -1.186586  0  -0.650767  0  2.251877  0  0  -0.686906  0  2.23871  0  0  -0.376706  -0.632976  0  2.258003  0
O  O114  1  0.95195551  0.60394677  0.60715831  1  0  -0.697671  0  2.001475  0  -1.187325  0  -0.650731  0  2.252188  0  0  -0.686865  0  2.239027  0  0  -0.376664  -0.632927  0  2.258311  0
O  O115  1  0.54804552  0.39605655  0.10715284  1  0  -0.69761  0  2.001533  0  -1.187131  0  -0.65067  0  2.252229  0  0  -0.686804  0  2.239062  0  0  -0.376655  -0.632869  0  2.258349  0
O  O116  1  0.95318795  0.55667536  0.42689136  1  0  -0.751269  0  2.17083  0  -1.225012  0  -0.698164  0  2.438702  0  0  -0.73871  0  2.426131  0  0  -0.403275  -0.680605  0  2.446736  0
O  O117  1  0.54681611  0.44335645  0.92689068  1  0  -0.751187  0  2.171201  0  -1.224729  0  -0.698165  0  2.439058  0  0  -0.738723  0  2.426522  0  0  -0.403245  -0.68058  0  2.447081  0
O  O118  1  0.04682637  0.44333413  0.57311211  1  0  -0.751189  0  2.171342  0  -1.225275  0  -0.698064  0  2.439099  0  0  -0.738605  0  2.426549  0  0  -0.403243  -0.68049  0  2.44713  0
O  O119  1  0.45317968  0.55667959  0.07310961  1  0  -0.751111  0  2.170956  0  -1.224988  0  -0.698012  0  2.438749  0  0  -0.738562  0  2.426199  0  0  -0.403209  -0.680435  0  2.446775  0
O  O120  1  0.86455727  0.38314171  0.05759653  1  0  -0.67718  0  2.110972  0  -1.203005  0  -0.616193  0  2.378602  0  0  -0.65303  0  2.364949  0  0  -0.37968  -0.597549  0  2.385554  0
O  O121  1  0.63544327  0.61687080  0.55759274  1  0  -0.677153  0  2.111063  0  -1.20339  0  -0.616201  0  2.378736  0  0  -0.653039  0  2.365083  0  0  -0.379678  -0.597533  0  2.38566  0
O  O122  1  0.13543464  0.61687572  0.94240648  1  0  -0.677165  0  2.111029  0  -1.203188  0  -0.616195  0  2.378661  0  0  -0.653031  0  2.365013  0  0  -0.379673  -0.597528  0  2.385574  0
O  O123  1  0.36456082  0.38312933  0.44240347  1  0  -0.677192  0  2.11094  0  -1.203454  0  -0.616226  0  2.378611  0  0  -0.653068  0  2.364958  0  0  -0.379663  -0.597564  0  2.385552  0
O  O124  1  0.14260394  0.54682191  0.06007795  1  0  -0.63975  0  2.069426  0  -1.192661  0  -0.590846  0  2.323632  0  0  -0.623429  0  2.312263  0  0  -0.350148  -0.573935  0  2.329285  0
O  O125  1  0.35740239  0.45316277  0.56007736  1  0  -0.639853  0  2.06929  0  -1.192515  0  -0.59095  0  2.323455  0  0  -0.623537  0  2.312086  0  0  -0.35014  -0.574027  0  2.329121  0
O  O126  1  0.85739693  0.45316309  0.93992052  1  0  -0.639834  0  2.06934  0  -1.192712  0  -0.590928  0  2.323508  0  0  -0.623508  0  2.312137  0  0  -0.35014  -0.574019  0  2.329158  0
O  O127  1  0.64260673  0.54682115  0.43992111  1  0  -0.639778  0  2.069335  0  -1.192677  0  -0.590899  0  2.323583  0  0  -0.623485  0  2.312213  0  0  -0.350159  -0.573967  0  2.329203  0
O  O128  1  0.42569446  0.85586026  0.05687944  1  0  -0.672955  0  2.041217  0  -1.209189  0  -0.630865  0  2.293021  0  0  -0.664623  0  2.279852  0  0  -0.382606  -0.614744  0  2.299582  0
O  O129  1  0.07429632  0.14414402  0.55688975  1  0  -0.672963  0  2.04142  0  -1.209391  0  -0.630813  0  2.293273  0  0  -0.664584  0  2.280086  0  0  -0.382466  -0.614677  0  2.299813  0
O  O130  1  0.57429333  0.14414902  0.94311178  1  0  -0.672934  0  2.04141  0  -1.209445  0  -0.630784  0  2.29327  0  0  -0.664546  0  2.280087  0  0  -0.382451  -0.614621  0  2.299783  0
O  O131  1  0.92569900  0.85585835  0.44312233  1  0  -0.672886  0  2.041417  0  -1.209298  0  -0.630774  0  2.293224  0  0  -0.664532  0  2.280049  0  0  -0.38256  -0.614647  0  2.299778  0
O  O132  1  0.54560877  0.11829366  0.06469165  1  0  -0.645433  0  2.041195  0  -1.205457  0  -0.602624  0  2.288599  0  0  -0.633919  0  2.274947  0  0  -0.369949  -0.58756  0  2.295789  0
O  O133  1  0.95439735  0.88171194  0.56470452  1  0  -0.645726  0  2.040589  0  -1.204905  0  -0.602875  0  2.288068  0  0  -0.634185  0  2.274378  0  0  -0.370161  -0.587791  0  2.295242  0
O  O134  1  0.45438890  0.88171337  0.93529639  1  0  -0.645652  0  2.04066  0  -1.204705  0  -0.602805  0  2.288146  0  0  -0.634117  0  2.274469  0  0  -0.370096  -0.58771  0  2.295308  0
O  O135  1  0.04561551  0.11828593  0.43530892  1  0  -0.645472  0  2.041182  0  -1.205279  0  -0.602671  0  2.288619  0  0  -0.633967  0  2.274958  0  0  -0.370003  -0.587572  0  2.295787  0
