# generated using pymatgen
data_CdH12C10S2N2O5
_symmetry_space_group_name_H-M   'P 1'
_cell_length_a   6.76089724
_cell_length_b   10.48638882
_cell_length_c   21.01176017
_cell_angle_alpha   89.99993172
_cell_angle_beta   101.42978619
_cell_angle_gamma   89.99952002
_symmetry_Int_Tables_number   1
_chemical_formula_structural   CdH12C10S2N2O5
_chemical_formula_sum   'Cd4 H48 C40 S8 N8 O20'
_cell_volume   1460.13621919
_cell_formula_units_Z   4
loop_
 _symmetry_equiv_pos_site_id
 _symmetry_equiv_pos_as_xyz
  1  'x, y, z'
loop_
 _atom_site_type_symbol
 _atom_site_label
 _atom_site_symmetry_multiplicity
 _atom_site_fract_x
 _atom_site_fract_y
 _atom_site_fract_z
 _atom_site_occupancy
 _atom_site_pbe_bader_charge
 _atom_site_pbe_bader_spin_density
 _atom_site_pbe_cm5_charge
 _atom_site_pbe_ddec_charge
 _atom_site_pbe_ddec_spin_density
 _atom_site_pbe_ddec_sum_bond_order
 _atom_site_pbe_magmom
Cd  Cd0  1  0.03706280  0.20968566  0.26305871  1  1.2358  0  0.735689  0.904924  0  2.190918  0
Cd  Cd1  1  0.46296773  0.70968601  0.23694095  1  1.235763  0  0.735691  0.904929  0  2.191  0
Cd  Cd2  1  0.96295134  0.79031708  0.73694188  1  1.23579  0  0.735682  0.904905  0  2.190926  0
Cd  Cd3  1  0.53705848  0.29031482  0.76306036  1  1.235746  0  0.735654  0.904857  0  2.191027  0
H  H4  1  0.95530477  0.48528702  0.30699332  1  0.115867  0  0.10871  0.088275  0  1.025561  0
H  H5  1  0.54471563  0.98527929  0.19300597  1  0.116008  0  0.108725  0.088293  0  1.025561  0
H  H6  1  0.04469272  0.51471191  0.69300485  1  0.115975  0  0.108735  0.088287  0  1.02557  0
H  H7  1  0.45529242  0.01471487  0.80699283  1  0.115921  0  0.108718  0.088324  0  1.025577  0
H  H8  1  0.95095146  0.61972213  0.40134758  1  0.107787  0  0.100051  0.114449  0  1.047791  0
H  H9  1  0.54903777  0.11971737  0.09865101  1  0.107908  0  0.100053  0.114353  0  1.047778  0
H  H10  1  0.04902185  0.38027966  0.59864819  1  0.107873  0  0.100088  0.114403  0  1.047855  0
H  H11  1  0.45093260  0.88027774  0.90134649  1  0.107799  0  0.100047  0.114445  0  1.04775  0
H  H12  1  0.04101158  0.27469530  0.51913834  1  0.144642  0  0.109456  0.131837  0  1.026967  0
H  H13  1  0.45896542  0.77469504  0.98085727  1  0.14423  0  0.109539  0.131992  0  1.026958  0
H  H14  1  0.95898295  0.72531221  0.48086108  1  0.144585  0  0.109515  0.131974  0  1.026964  0
H  H15  1  0.54099582  0.22530389  0.01913778  1  0.144655  0  0.1095  0.131938  0  1.0269  0
H  H16  1  0.04583242  0.15598439  0.41880054  1  0.11762  0  0.118081  0.098084  0  0.998578  0
H  H17  1  0.45417167  0.65597757  0.08119710  1  0.117551  0  0.118105  0.098116  0  0.998502  0
H  H18  1  0.95417879  0.84402121  0.58120178  1  0.117551  0  0.118122  0.098128  0  0.998639  0
H  H19  1  0.54582125  0.34401850  0.91879984  1  0.117631  0  0.118077  0.098103  0  0.998442  0
H  H20  1  0.08889420  0.30159341  0.12096175  1  0.099858  0  0.117617  0.091013  0  1.005635  0
H  H21  1  0.41117296  0.80160703  0.37904385  1  0.099344  0  0.117622  0.09112  0  1.0056  0
H  H22  1  0.91111252  0.69840170  0.87904125  1  0.099811  0  0.117608  0.090943  0  1.005683  0
H  H23  1  0.58886086  0.19839762  0.62095934  1  0.099458  0  0.117625  0.091159  0  1.005536  0
H  H24  1  0.04905901  0.22531097  0.00850588  1  0.103129  0  0.114674  0.124609  0  0.988951  0
H  H25  1  0.45096694  0.72531550  0.49149731  1  0.10295  0  0.11459  0.124531  0  0.988947  0
H  H26  1  0.95092355  0.77468891  0.99149521  1  0.102936  0  0.114604  0.124541  0  0.989039  0
H  H27  1  0.54904274  0.27468438  0.50850444  1  0.10299  0  0.114617  0.124576  0  0.988901  0
H  H28  1  0.98932767  0.84341622  0.08227488  1  0.101677  0  0.108206  0.116044  0  1.021672  0
H  H29  1  0.51062235  0.34341466  0.41772267  1  0.101677  0  0.108239  0.116155  0  1.021566  0
H  H30  1  0.01063978  0.15658461  0.91772483  1  0.101737  0  0.108249  0.116141  0  1.021539  0
H  H31  1  0.48933297  0.65658046  0.58227488  1  0.101721  0  0.108226  0.116069  0  1.021689  0
H  H32  1  0.02280786  0.93741200  0.18992424  1  0.13238  0  0.111935  0.083602  0  1.040625  0
H  H33  1  0.47718802  0.43741674  0.31007656  1  0.132529  0  0.111945  0.083602  0  1.040556  0
H  H34  1  0.97719134  0.06258406  0.81007879  1  0.132383  0  0.11195  0.08366  0  1.040539  0
H  H35  1  0.52279446  0.56258409  0.68992262  1  0.132447  0  0.111952  0.083649  0  1.040559  0
H  H36  1  0.26351076  0.43153841  0.20943665  1  0.668811  0  0.286731  0.388453  0  0.95556  0
H  H37  1  0.23651374  0.93153986  0.29056300  1  0.668996  0  0.286688  0.388196  0  0.955828  0
H  H38  1  0.73648836  0.56846624  0.79056447  1  0.668813  0  0.286739  0.388449  0  0.955558  0
H  H39  1  0.76352460  0.06846574  0.70944046  1  0.668902  0  0.286754  0.388508  0  0.955494  0
H  H40  1  0.02268188  0.44412778  0.20417866  1  0.652942  0  0.283772  0.372092  0  0.987137  0
H  H41  1  0.47734226  0.94413267  0.29581620  1  0.6527  0  0.283718  0.372026  0  0.987194  0
H  H42  1  0.97731400  0.55587210  0.79581704  1  0.652955  0  0.283818  0.372201  0  0.986988  0
H  H43  1  0.52270222  0.05586912  0.70419000  1  0.653042  0  0.283784  0.372126  0  0.987044  0
H  H44  1  0.46893873  0.23475314  0.28144637  1  0.591115  0  0.254679  0.347775  0  1.00901  0
H  H45  1  0.03109295  0.73474732  0.21855288  1  0.591265  0  0.254698  0.347836  0  1.008942  0
H  H46  1  0.53107975  0.76524674  0.71854972  1  0.591257  0  0.254707  0.347819  0  1.008921  0
H  H47  1  0.96893048  0.26524779  0.78145398  1  0.591326  0  0.254733  0.347841  0  1.00889  0
H  H48  1  0.47135301  0.12938791  0.33275564  1  0.621942  0  0.30463  0.403475  0  0.905861  0
H  H49  1  0.02868918  0.62938129  0.16724477  1  0.621857  0  0.304672  0.403473  0  0.905902  0
H  H50  1  0.52867314  0.87061865  0.66724424  1  0.62191  0  0.30466  0.403496  0  0.905838  0
H  H51  1  0.97133860  0.37062145  0.83275806  1  0.621891  0  0.304622  0.403421  0  0.90593  0
C  C52  1  0.97492989  0.44215003  0.35498964  1  0.487805  0  0.040935  0.094718  0  3.957678  0
C  C53  1  0.52507134  0.94214921  0.14500472  1  0.487672  0  0.04087  0.094657  0  3.957777  0
C  C54  1  0.02505546  0.55784985  0.64500590  1  0.487686  0  0.040885  0.094679  0  3.957846  0
C  C55  1  0.47492159  0.05784781  0.85499222  1  0.487963  0  0.040852  0.094623  0  3.957976  0
C  C56  1  0.97321522  0.51757726  0.40907154  1  -0.025251  0  -0.084222  -0.168833  0  3.941728  0
C  C57  1  0.52677241  0.01757074  0.09092750  1  -0.025501  0  -0.08415  -0.168498  0  3.941663  0
C  C58  1  0.02676121  0.48242548  0.59092680  1  -0.025523  0  -0.084237  -0.168708  0  3.941889  0
C  C59  1  0.47319941  0.98242628  0.90906866  1  -0.025559  0  -0.084182  -0.168803  0  3.941958  0
C  C60  1  0.99924903  0.46103334  0.47064778  1  -0.035803  0  0.008789  0.095993  0  3.97289  0
C  C61  1  0.50072489  0.96103295  0.02934779  1  -0.077106  0  0.008653  0.095633  0  3.972987  0
C  C62  1  0.00072734  0.53897036  0.52934913  1  -0.077062  0  0.008759  0.09575  0  3.972898  0
C  C63  1  0.49924091  0.03896693  0.97064848  1  -0.035786  0  0.008819  0.095971  0  3.972846  0
C  C64  1  0.02291024  0.32775276  0.47375745  1  0.019046  0  -0.078729  -0.167605  0  3.902098  0
C  C65  1  0.47707349  0.82774595  0.02624126  1  0.019475  0  -0.07875  -0.167715  0  3.902337  0
C  C66  1  0.97707828  0.67225380  0.52624209  1  0.019142  0  -0.078766  -0.167736  0  3.902282  0
C  C67  1  0.52289686  0.17225011  0.97375577  1  0.019073  0  -0.078774  -0.167726  0  3.902242  0
C  C68  1  0.02533011  0.25921159  0.41720406  1  0.44342  0  0.047111  0.100187  0  3.931015  0
C  C69  1  0.47467098  0.75921133  0.08279144  1  0.443209  0  0.047041  0.100234  0  3.931044  0
C  C70  1  0.97467038  0.74079115  0.58279381  1  0.44327  0  0.046968  0.10007  0  3.931125  0
C  C71  1  0.52531900  0.24078569  0.91720723  1  0.443007  0  0.047077  0.100227  0  3.930879  0
C  C72  1  0.06567783  0.20062928  0.11002109  1  0.529077  0  0.047698  0.103169  0  3.951708  0
C  C73  1  0.43436210  0.70063606  0.38998438  1  0.530016  0  0.04761  0.102954  0  3.95208  0
C  C74  1  0.93431682  0.79936870  0.88998119  1  0.528994  0  0.047705  0.103239  0  3.952131  0
C  C75  1  0.56565364  0.29936477  0.61001821  1  0.529405  0  0.047628  0.10296  0  3.951927  0
C  C76  1  0.04303252  0.15634058  0.04675034  1  -0.086178  0  -0.07587  -0.158636  0  3.918832  0
C  C77  1  0.45697929  0.65634422  0.45325205  1  -0.086175  0  -0.0757  -0.1584  0  3.91907  0
C  C78  1  0.95694559  0.84365739  0.95325238  1  -0.085916  0  -0.075824  -0.158571  0  3.918959  0
C  C79  1  0.54301828  0.34365566  0.54674803  1  -0.086146  0  -0.075761  -0.158553  0  3.919098  0
C  C80  1  0.01317876  0.02552348  0.03343603  1  -0.020174  0  0.01192  0.095101  0  3.973763  0
C  C81  1  0.48680324  0.52552787  0.46656704  1  0.02393  0  0.01199  0.095133  0  3.973823  0
C  C82  1  0.98678871  0.97447544  0.96656415  1  0.023695  0  0.011959  0.095087  0  3.973776  0
C  C83  1  0.51317777  0.47447010  0.53343300  1  -0.020225  0  0.011908  0.095129  0  3.973881  0
C  C84  1  0.00903505  0.94609104  0.08678684  1  -0.02526  0  -0.079551  -0.162141  0  3.929873  0
C  C85  1  0.49093956  0.44609163  0.41321221  1  -0.025134  0  -0.079636  -0.162318  0  3.929662  0
C  C86  1  0.99093697  0.05390693  0.91321410  1  -0.025142  0  -0.07964  -0.162217  0  3.929836  0
C  C87  1  0.50903081  0.55390635  0.58678529  1  -0.025161  0  -0.079609  -0.162207  0  3.929559  0
C  C88  1  0.03053140  0.99808783  0.14858113  1  0.49291  0  0.047808  0.11164  0  3.944467  0
C  C89  1  0.46946972  0.49809537  0.35142090  1  0.492935  0  0.047765  0.11161  0  3.944559  0
C  C90  1  0.96945870  0.00190728  0.85142041  1  0.493034  0  0.047777  0.111525  0  3.944626  0
C  C91  1  0.53051732  0.50190451  0.64857950  1  0.492973  0  0.047809  0.111614  0  3.944591  0
S  S92  1  0.84878110  0.76406681  0.28858452  1  -0.499065  0  -0.225465  -0.571692  0  2.230559  0
S  S93  1  0.65124519  0.26406406  0.21141144  1  -0.4992  0  -0.225416  -0.571586  0  2.2305  0
S  S94  1  0.15123918  0.23593689  0.71141881  1  -0.499116  0  -0.225417  -0.571622  0  2.230511  0
S  S95  1  0.34876576  0.73593392  0.78858468  1  -0.499287  0  -0.225428  -0.571641  0  2.230516  0
S  S96  1  0.88655888  0.93191756  0.34028026  1  2.997923  0  0.485102  1.205017  0  6.179121  0
S  S97  1  0.61346207  0.43191706  0.15971481  1  2.99773  0  0.485112  1.20502  0  6.179613  0
S  S98  1  0.11347940  0.06808328  0.65972177  1  2.997687  0  0.485262  1.205288  0  6.179332  0
S  S99  1  0.38653075  0.56807901  0.84027975  1  2.998398  0  0.485255  1.205306  0  6.179284  0
N  N100  1  0.00308624  0.31508702  0.35859217  1  -1.242985  0  -0.329189  -0.244491  0  3.516106  0
N  N101  1  0.49692780  0.81508076  0.14140740  1  -1.242824  0  -0.329165  -0.244628  0  3.515867  0
N  N102  1  0.99691434  0.68491381  0.64140809  1  -1.242868  0  -0.329109  -0.244395  0  3.515991  0
N  N103  1  0.50307423  0.18491340  0.85859151  1  -1.242533  0  -0.329101  -0.244492  0  3.515773  0
N  N104  1  0.05874647  0.12314021  0.16067802  1  -1.241753  0  -0.327744  -0.257086  0  3.51365  0
N  N105  1  0.44128382  0.62314709  0.33932359  1  -1.242235  0  -0.32768  -0.257037  0  3.513749  0
N  N106  1  0.94125272  0.87685586  0.83932501  1  -1.241752  0  -0.327667  -0.25697  0  3.513859  0
N  N107  1  0.55872431  0.37685565  0.66067712  1  -1.241764  0  -0.327711  -0.257042  0  3.513849  0
O  O108  1  0.14739807  0.40254874  0.22828686  1  -1.315231  0  -0.606194  -0.784308  0  2.148391  0
O  O109  1  0.35262518  0.90255056  0.27170940  1  -1.315096  0  -0.606068  -0.783941  0  2.148564  0
O  O110  1  0.85259801  0.59745781  0.77171361  1  -1.31525  0  -0.606248  -0.784365  0  2.148283  0
O  O111  1  0.64741926  0.09745027  0.72829585  1  -1.315471  0  -0.606221  -0.784379  0  2.148141  0
O  O112  1  0.39269048  0.20376647  0.31453284  1  -1.220897  0  -0.580597  -0.724048  0  2.07401  0
O  O113  1  0.10734470  0.70376032  0.18546806  1  -1.220866  0  -0.580643  -0.724129  0  2.073908  0
O  O114  1  0.60733109  0.79623723  0.68546534  1  -1.220932  0  -0.580655  -0.724119  0  2.07384  0
O  O115  1  0.89267564  0.29624242  0.81453670  1  -1.221061  0  -0.580635  -0.724042  0  2.073909  0
O  O116  1  0.04235464  0.00644116  0.31295046  1  -1.311758  0  -0.358611  -0.632363  0  2.336301  0
O  O117  1  0.45767869  0.50644072  0.18704997  1  -1.311712  0  -0.358636  -0.632527  0  2.336264  0
O  O118  1  0.95768043  0.99356063  0.68704661  1  -1.311679  0  -0.358659  -0.63255  0  2.336245  0
O  O119  1  0.54233107  0.49355821  0.81295369  1  -1.311601  0  -0.35868  -0.63257  0  2.336374  0
O  O120  1  0.69577182  0.00649561  0.32809260  1  -1.336296  0  -0.351728  -0.630116  0  2.264928  0
O  O121  1  0.80424874  0.50648938  0.17189841  1  -1.336531  0  -0.351736  -0.630065  0  2.265191  0
O  O122  1  0.30426823  0.99351094  0.67191573  1  -1.336132  0  -0.351798  -0.630224  0  2.265098  0
O  O123  1  0.19574526  0.49350860  0.82808812  1  -1.336614  0  -0.351765  -0.630172  0  2.265073  0
O  O124  1  0.95978888  0.90161608  0.40851211  1  -1.304571  0  -0.345719  -0.569092  0  2.11834  0
O  O125  1  0.54021605  0.40161425  0.09148582  1  -1.303878  0  -0.345728  -0.569048  0  2.118417  0
O  O126  1  0.04027046  0.09838666  0.59148927  1  -1.304375  0  -0.345784  -0.56915  0  2.118495  0
O  O127  1  0.45974838  0.59838181  0.90851371  1  -1.304493  0  -0.345773  -0.569192  0  2.118319  0
