# generated using pymatgen
data_Co5H38C36(N13O7)2
_symmetry_space_group_name_H-M   'P 1'
_cell_length_a   9.27103914
_cell_length_b   12.79588124
_cell_length_c   14.10967085
_cell_angle_alpha   105.07757229
_cell_angle_beta   96.84853401
_cell_angle_gamma   96.02420228
_symmetry_Int_Tables_number   1
_chemical_formula_structural   Co5H38C36(N13O7)2
_chemical_formula_sum   'Co5 H38 C36 N26 O14'
_cell_volume   1588.47000344
_cell_formula_units_Z   1
loop_
 _symmetry_equiv_pos_site_id
 _symmetry_equiv_pos_as_xyz
  1  'x, y, z'
loop_
 _atom_site_type_symbol
 _atom_site_label
 _atom_site_symmetry_multiplicity
 _atom_site_fract_x
 _atom_site_fract_y
 _atom_site_fract_z
 _atom_site_occupancy
 _atom_site_pbe_bader_charge
 _atom_site_pbe_bader_spin_density
 _atom_site_pbe_cm5_charge
 _atom_site_pbe_ddec_charge
 _atom_site_pbe_ddec_spin_density
 _atom_site_pbe_ddec_sum_bond_order
 _atom_site_pbe_magmom
Co  Co0  1  0.00001384  0.00013857  0.00013688  1  1.16784  0.03991  0.855084  0.536482  0.04386  3.479357  0.04
Co  Co1  1  0.55238863  0.07385407  0.27355598  1  1.232141  2.603194  0.72799  0.890104  2.857807  2.630491  2.537
Co  Co2  1  0.44754737  0.92630068  0.72625494  1  1.232009  2.603923  0.726846  0.890335  2.858355  2.624044  2.538
Co  Co3  1  0.04449237  0.28818552  0.12270364  1  1.285122  2.654085  0.731413  0.81274  2.985069  2.68751  2.627
Co  Co4  1  0.95547024  0.71170304  0.87744776  1  1.282699  2.653836  0.729641  0.812165  2.984331  2.679545  2.627
H  H5  1  0.29977913  0.63343874  0.14919206  1  0.069872  0.000556  0.103365  0.101845  0.000299  1.026666  0.0
H  H6  1  0.70019200  0.36649618  0.85066253  1  0.072477  0.000552  0.103733  0.102398  0.000297  1.026665  0.0
H  H7  1  0.44552453  0.87114032  0.43173230  1  0.123176  0.000778  0.117579  0.133395  0.000198  0.989719  0.0
H  H8  1  0.55436188  0.12877291  0.56815588  1  0.173027  0.000735  0.117432  0.133108  0.000198  0.990019  0.0
H  H9  1  0.23388302  0.55148303  0.42027245  1  0.134195  0.000501  0.112856  0.121744  0.000241  0.994333  0.0
H  H10  1  0.76608639  0.44836515  0.57955256  1  0.133784  0.000499  0.112951  0.121706  0.000239  0.994772  0.0
H  H11  1  0.95469511  0.02652205  0.77797378  1  0.123381  0.000485  0.141137  0.110362  -8.9e-05  0.9508  0.0
H  H12  1  0.04531866  0.97359561  0.22228824  1  0.120333  0.000499  0.140967  0.109723  -8.2e-05  0.950685  0.0
H  H13  1  0.29764689  0.94788399  0.09794350  1  0.179612  0.001094  0.138233  0.110021  0.000483  1.018986  0.001
H  H14  1  0.70231996  0.05230817  0.90207633  1  0.175711  0.001099  0.137965  0.109443  0.000483  1.019613  0.001
H  H15  1  0.79752663  0.26216181  0.26562376  1  0.185076  0.000822  0.143526  0.120012  4.3e-05  0.986285  0.001
H  H16  1  0.20233911  0.73804272  0.73457097  1  0.189371  0.000818  0.143502  0.119838  4.5e-05  0.986247  0.001
H  H17  1  0.72505023  0.28567985  0.00824809  1  0.14749  0.001344  0.1277  0.067297  0.000243  1.005633  0.001
H  H18  1  0.27507169  0.71417162  0.99171946  1  0.119298  0.001344  0.127891  0.067721  0.00024  1.005414  0.001
H  H19  1  0.73917390  0.50076738  0.23570002  1  0.096935  0.000325  0.118723  0.143161  9.8e-05  0.974999  0.0
H  H20  1  0.26089514  0.49905225  0.76422898  1  0.096534  0.000323  0.119019  0.14341  9.8e-05  0.974829  0.0
H  H21  1  0.54275671  0.47994974  0.22436027  1  0.082321  0.00034  0.108799  0.128214  0.000111  1.001514  0.0
H  H22  1  0.45728777  0.51989457  0.77559522  1  0.080519  0.000338  0.108871  0.128411  0.00011  1.001599  0.0
H  H23  1  0.63129517  0.57083460  0.16509212  1  0.062359  0.000568  0.10555  0.118344  0.00022  0.9884  0.0
H  H24  1  0.36874567  0.42896299  0.83482243  1  0.060744  0.000564  0.105431  0.118405  0.000218  0.988072  0.0
H  H25  1  0.43423238  0.42664160  0.01797988  1  0.050615  0.000427  0.102862  0.119014  0.000171  1.003238  0.0
H  H26  1  0.56590147  0.57325384  0.98194996  1  0.053378  0.000424  0.102965  0.119234  0.000169  1.002907  0.0
H  H27  1  0.41079285  0.32621696  0.08247850  1  0.074334  0.00064  0.100844  0.119366  1.1e-05  1.027689  0.0
H  H28  1  0.58915921  0.67367063  0.91738410  1  0.076274  0.000629  0.100709  0.119369  5e-06  1.028014  0.0
H  H29  1  0.49656604  0.29775825  0.97161461  1  0.10249  0.000154  0.108255  0.134798  1.9e-05  1.044342  0.0
H  H30  1  0.50346528  0.70213500  0.02829809  1  0.104268  0.000153  0.108593  0.135366  1.9e-05  1.04377  0.0
H  H31  1  0.73188841  0.86140207  0.03355237  1  0.486144  0.000104  0.318594  0.321525  4.1e-05  0.956784  0.0
H  H32  1  0.26819558  0.13880633  0.96653650  1  0.484899  0.00011  0.31854  0.320947  4.5e-05  0.956655  0.0
H  H33  1  0.59714988  0.88672612  0.11192002  1  0.531534  0.000767  0.295018  0.312019  0.000921  1.012799  0.0
H  H34  1  0.40287456  0.11336618  0.88810730  1  0.532025  0.000768  0.29517  0.311805  0.000919  1.013192  0.0
H  H35  1  0.08858455  0.42993617  0.99288900  1  0.515724  5.3e-05  0.306108  0.323706  5.1e-05  0.984217  0.0
H  H36  1  0.91146411  0.57016347  0.00715754  1  0.51635  5.4e-05  0.306112  0.323649  5.1e-05  0.984374  0.0
H  H37  1  0.04915999  0.41829090  0.86589735  1  0.474538  -0.000254  0.31782  0.330472  -0.000239  0.930879  0.0
H  H38  1  0.95078251  0.58165434  0.13407998  1  0.474477  -0.000252  0.317605  0.330485  -0.000239  0.930596  0.0
H  H39  1  0.48402826  0.30342689  0.31629588  1  0.517802  0.000491  0.293458  0.31278  0.000635  1.013425  0.0
H  H40  1  0.51607497  0.69660708  0.68371769  1  0.516974  0.000492  0.293459  0.312798  0.000635  1.01293  0.0
H  H41  1  0.31704769  0.35349099  0.29441027  1  0.486842  7.9e-05  0.305964  0.319824  -0.000142  0.972847  0.0
H  H42  1  0.68300585  0.64660056  0.70566170  1  0.486918  7.3e-05  0.30594  0.320004  -0.000145  0.972496  0.0
C  C43  1  0.18615269  0.47076493  0.21979480  1  1.491854  -0.00272  0.197791  0.545985  -0.004501  4.194456  -0.005
C  C44  1  0.81375553  0.52898688  0.78000007  1  1.489193  -0.002719  0.198385  0.548063  -0.004494  4.19466  -0.004
C  C45  1  0.25899934  0.58140412  0.27848859  1  0.021057  0.003954  -0.02198  -0.052668  0.002188  4.006118  0.003
C  C46  1  0.74094948  0.41838256  0.72126234  1  0.028272  0.003946  -0.022552  -0.054131  0.002184  4.010312  0.003
C  C47  1  0.31262550  0.65659947  0.22996560  1  -0.033415  0.00227  -0.068254  -0.08464  0.001202  3.92659  0.002
C  C48  1  0.68734572  0.34332482  0.76988580  1  -0.033474  0.002286  -0.068558  -0.08501  0.001214  3.929168  0.002
C  C49  1  0.38059576  0.76087778  0.28511013  1  0.030035  0.006912  -0.017281  -0.044285  0.003592  3.989399  0.005
C  C50  1  0.61934694  0.23910629  0.71475012  1  0.026657  0.006892  -0.017101  -0.043918  0.003577  3.990452  0.005
C  C51  1  0.39386938  0.78959860  0.38876801  1  -0.024542  0.001198  -0.058792  -0.067076  0.000409  3.867667  0.001
C  C52  1  0.60608261  0.21029957  0.61108075  1  -0.067668  0.001255  -0.058593  -0.066708  0.000423  3.868307  0.001
C  C53  1  0.34257092  0.71454247  0.43776130  1  -0.00649  0.006453  -0.014096  -0.034119  0.003329  3.974253  0.005
C  C54  1  0.65741193  0.28525724  0.56200528  1  -0.009977  0.006434  -0.014377  -0.034972  0.003326  3.974919  0.005
C  C55  1  0.27480083  0.61014795  0.38251904  1  -0.049049  0.002186  -0.06203  -0.079849  0.001129  3.891753  0.002
C  C56  1  0.72515776  0.38963870  0.61723265  1  -0.052983  0.00219  -0.061918  -0.079135  0.001133  3.89253  0.002
C  C57  1  0.36450093  0.74716335  0.54912609  1  1.542792  0.00396  0.212859  0.571912  0.00396  4.215067  0.002
C  C58  1  0.63545502  0.25260464  0.45066357  1  1.537892  0.004001  0.213046  0.572554  0.003984  4.213626  0.002
C  C59  1  0.43935725  0.84330343  0.23602142  1  1.557895  0.003532  0.216187  0.577959  0.003508  4.195835  0.003
C  C60  1  0.56050024  0.15681761  0.76389804  1  1.555825  0.003513  0.215771  0.577929  0.00349  4.197044  0.003
C  C61  1  0.02100629  0.27431844  0.90429839  1  1.48313  0.02467  0.32189  0.533321  0.015784  4.11294  0.018
C  C62  1  0.97901298  0.72578736  0.09584791  1  1.483911  0.024565  0.321887  0.532853  0.015718  4.113835  0.018
C  C63  1  0.97713900  0.10498988  0.83381980  1  0.97708  0.037718  0.142802  0.158407  0.022395  4.018322  0.026
C  C64  1  0.02286685  0.89510418  0.16646373  1  0.974134  0.037631  0.143758  0.160178  0.022327  4.018183  0.026
C  C65  1  0.32437334  0.20359706  0.20698605  1  1.517287  0.00949  0.329719  0.53998  0.00645  4.09829  0.009
C  C66  1  0.67572663  0.79655983  0.79311191  1  1.518773  0.009408  0.329587  0.540757  0.006392  4.096033  0.009
C  C67  1  0.28453570  0.03328628  0.12461194  1  0.981658  0.013325  0.145908  0.146201  0.008807  3.987643  0.01
C  C68  1  0.71542164  0.96690772  0.87545504  1  0.985026  0.013167  0.145932  0.147194  0.00871  3.986734  0.01
C  C69  1  0.75655096  0.01731108  0.12286350  1  1.519008  0.013369  0.332584  0.524303  0.00873  4.092071  0.011
C  C70  1  0.24351210  0.98288535  0.87729250  1  1.517634  0.013255  0.33279  0.524649  0.008646  4.092  0.01
C  C71  1  0.80316053  0.18601924  0.21059534  1  0.963326  -0.002646  0.147311  0.156739  -0.002922  3.994453  0.0
C  C72  1  0.19674165  0.81418270  0.78959316  1  0.965153  -0.002719  0.147258  0.157163  -0.002978  3.994091  0.0
C  C73  1  0.74671573  0.35674072  0.07463258  1  1.324809  0.000278  0.174587  0.281106  -0.000188  4.074036  0.0
C  C74  1  0.25339020  0.64306270  0.92536998  1  1.352225  0.000246  0.174282  0.281175  -0.000215  4.074827  0.0
C  C75  1  0.63629067  0.49422979  0.18627330  1  0.241257  0.000541  -0.128042  -0.269557  0.00035  3.870739  0.0
C  C76  1  0.36376683  0.50558669  0.81368098  1  0.245334  0.000538  -0.128443  -0.270079  0.000349  3.87003  0.0
C  C77  1  0.48415285  0.36006463  0.03881795  1  0.243768  0.00109  -0.13858  -0.287013  0.000661  3.873448  0.001
C  C78  1  0.51593171  0.63981220  0.96112065  1  0.237428  0.001083  -0.139155  -0.287931  0.000655  3.87351  0.001
N  N79  1  0.89770397  0.17362432  0.14673092  1  -0.774588  0.09104  -0.264701  -0.217186  0.050057  3.599572  0.076
N  N80  1  0.10229575  0.82661025  0.85352394  1  -0.775538  0.090657  -0.264115  -0.217144  0.049851  3.596741  0.076
N  N81  1  0.87030876  0.06587326  0.09038219  1  -0.718857  0.004098  -0.261132  -0.254179  0.000202  3.487587  0.0
N  N82  1  0.12975329  0.93437987  0.90985712  1  -0.722577  0.004199  -0.261248  -0.255088  0.000291  3.486044  0.0
N  N83  1  0.71337369  0.09133846  0.19947161  1  -1.229847  0.095397  -0.38301  -0.459358  0.050254  3.573145  0.06
N  N84  1  0.28658533  0.90883117  0.80064157  1  -1.228997  0.094934  -0.382729  -0.460116  0.050031  3.570857  0.06
N  N85  1  0.69093135  0.91340700  0.08729857  1  -1.318202  0.026162  -0.577836  -0.651495  0.013193  3.340163  0.018
N  N86  1  0.30921815  0.08674260  0.91286257  1  -1.31872  0.025869  -0.578182  -0.650625  0.013043  3.340946  0.018
N  N87  1  0.99380746  0.11394164  0.93168459  1  -0.740037  -0.00127  -0.270431  -0.175678  -0.007101  3.640338  -0.007
N  N88  1  0.00622247  0.88626433  0.06860072  1  -0.736452  -0.001261  -0.270917  -0.177549  -0.007026  3.639431  -0.007
N  N89  1  0.02119429  0.22427040  0.97899364  1  -0.758491  0.120338  -0.291047  -0.359632  0.064836  3.492789  0.094
N  N90  1  0.97885063  0.77593937  0.02122003  1  -0.755747  0.119796  -0.290388  -0.358059  0.064544  3.490823  0.093
N  N91  1  0.99227919  0.20192819  0.81307069  1  -1.158848  0.005848  -0.366705  -0.449852  -0.000338  3.131396  0.0
N  N92  1  0.00771982  0.79811900  0.18712979  1  -1.160824  0.005819  -0.367226  -0.450439  -0.000343  3.132254  0.0
N  N93  1  0.04503842  0.38405698  0.92276829  1  -1.269068  0.054206  -0.57349  -0.643535  0.027286  3.307318  0.038
N  N94  1  0.95500333  0.61602963  0.07728458  1  -1.26929  0.05375  -0.573663  -0.644141  0.027052  3.307076  0.038
N  N95  1  0.17240510  0.07851756  0.09357274  1  -0.751196  0.008419  -0.261588  -0.140535  0.003195  3.639971  0.004
N  N96  1  0.82756335  0.92171772  0.90662594  1  -0.751755  0.008452  -0.26147  -0.141169  0.003231  3.637259  0.004
N  N97  1  0.19741224  0.18856631  0.14425326  1  -0.75813  0.088712  -0.271321  -0.355488  0.04882  3.434669  0.075
N  N98  1  0.80263116  0.81164668  0.85594687  1  -0.761769  0.088453  -0.271098  -0.356121  0.048685  3.432019  0.075
N  N99  1  0.38182252  0.10765353  0.19600687  1  -1.243523  0.083361  -0.382202  -0.46224  0.043954  3.56186  0.052
N  N100  1  0.61824646  0.89252197  0.80401148  1  -1.242155  0.083121  -0.381532  -0.463  0.043815  3.558876  0.052
N  N101  1  0.38815065  0.30053799  0.26968159  1  -1.313895  0.016674  -0.580044  -0.658335  0.008031  3.292073  0.012
N  N102  1  0.61195722  0.69961474  0.73040469  1  -1.313124  0.016529  -0.580209  -0.658855  0.007959  3.29246  0.012
N  N103  1  0.62811058  0.40231942  0.09844944  1  -1.190212  0.010394  -0.274734  0.044088  0.005348  3.716171  0.008
N  N104  1  0.37197270  0.59747908  0.90153034  1  -1.189613  0.010328  -0.274737  0.043662  0.005314  3.715528  0.008
O  O105  1  0.18151258  0.44021237  0.12543764  1  -1.159006  0.075418  -0.31259  -0.556071  0.039951  2.276494  0.065
O  O106  1  0.81842187  0.55943473  0.87435898  1  -1.156065  0.075072  -0.31299  -0.556819  0.039788  2.275606  0.065
O  O107  1  0.12965624  0.40387973  0.26377234  1  -1.148458  0.074481  -0.315343  -0.531587  0.039347  2.187951  0.063
O  O108  1  0.87021993  0.59589196  0.73606928  1  -1.149125  0.073987  -0.315469  -0.532771  0.039072  2.187772  0.063
O  O109  1  0.50088387  0.93524567  0.29688865  1  -1.13135  0.117234  -0.317644  -0.532659  0.059425  2.400389  0.091
O  O110  1  0.49872634  0.06497161  0.70298550  1  -1.13057  0.117146  -0.317166  -0.532595  0.059437  2.400016  0.091
O  O111  1  0.42863038  0.82219166  0.14260728  1  -1.211144  0.012698  -0.317288  -0.568604  0.005984  2.199179  0.01
O  O112  1  0.57137271  0.17786271  0.85730603  1  -1.208365  0.01268  -0.317461  -0.56871  0.005975  2.199593  0.01
O  O113  1  0.40614050  0.85118278  0.58889823  1  -1.119419  0.128364  -0.322805  -0.540765  0.064975  2.38736  0.099
O  O114  1  0.59373752  0.14860926  0.41092134  1  -1.121401  0.128662  -0.322898  -0.540392  0.065111  2.388709  0.099
O  O115  1  0.34689427  0.67819171  0.59726811  1  -1.171281  0.016214  -0.322016  -0.555326  0.007645  2.118792  0.012
O  O116  1  0.65311896  0.32154652  0.40247377  1  -1.170208  0.016362  -0.321724  -0.555547  0.007726  2.117706  0.012
O  O117  1  0.87393099  0.39134833  0.12292685  1  -1.159094  0.061938  -0.29908  -0.465577  0.033058  2.407714  0.052
O  O118  1  0.12617095  0.60838484  0.87708594  1  -1.159485  0.061725  -0.298574  -0.465391  0.032963  2.406947  0.052
