# generated using pymatgen
data_Al6H19C70N3O29
_symmetry_space_group_name_H-M   'P 1'
_cell_length_a   11.18826021
_cell_length_b   11.82878344
_cell_length_c   27.13918475
_cell_angle_alpha   81.53779542
_cell_angle_beta   81.77800625
_cell_angle_gamma   65.79168074
_symmetry_Int_Tables_number   1
_chemical_formula_structural   Al6H19C70N3O29
_chemical_formula_sum   'Al6 H19 C70 N3 O29'
_cell_volume   3226.54735463
_cell_formula_units_Z   1
loop_
 _symmetry_equiv_pos_site_id
 _symmetry_equiv_pos_as_xyz
  1  'x, y, z'
loop_
 _atom_site_type_symbol
 _atom_site_label
 _atom_site_symmetry_multiplicity
 _atom_site_fract_x
 _atom_site_fract_y
 _atom_site_fract_z
 _atom_site_occupancy
 _atom_site_pbe_bader_charge
 _atom_site_pbe_bader_spin_density
 _atom_site_pbe_cm5_charge
 _atom_site_pbe_ddec_charge
 _atom_site_pbe_ddec_spin_density
 _atom_site_pbe_ddec_sum_bond_order
 _atom_site_pbe_magmom
Al  Al0  1  0.39188858  0.39832001  0.51375972  1  2.493015  0  0.402879  1.680333  0  2.556087  0
Al  Al1  1  0.66983661  0.42427210  0.49464076  1  2.48303  0  0.51421  1.662628  0  2.50287  0
Al  Al2  1  0.42330204  0.65984448  0.49848028  1  2.483533  0  0.511494  1.664367  0  2.506165  0
Al  Al3  1  0.94359909  0.93750550  0.98040195  1  2.497368  0  0.401544  1.682498  0  2.553986  0
Al  Al4  1  0.91180260  0.67614988  0.99780134  1  2.479757  0  0.510867  1.659949  0  2.513594  0
Al  Al5  1  0.66572060  0.91182928  0.99472490  1  2.479703  0  0.51429  1.661497  0  2.502352  0
H  H6  1  0.30513463  0.78771057  0.19620680  1  0.093809  0  0.111815  0.108321  0  0.976869  0
H  H7  1  0.28009370  0.45513204  0.21938058  1  0.058429  0  0.109038  0.102014  0  0.990008  0
H  H8  1  0.06308748  0.54903776  0.29155141  1  0.121697  0  0.121056  0.124596  0  0.95983  0
H  H9  1  0.54040439  0.03402870  0.24271650  1  0.107081  0  0.109752  0.107038  0  0.975351  0
H  H10  1  0.75754732  0.97302344  0.29826230  1  0.101384  0  0.107588  0.101793  0  0.983733  0
H  H11  1  0.42587916  0.27479838  0.27882900  1  0.083045  0  0.108282  0.102274  0  0.983035  0
H  H12  1  0.61340921  0.98350978  0.74630746  1  0.052557  0  0.092502  0.087515  0  1.023176  0
H  H13  1  0.45248691  0.98052989  0.75349255  1  0.049013  0  0.100255  0.096596  0  0.985845  0
H  H14  1  0.49957426  0.06893622  0.70053551  1  0.106026  0  0.114179  0.127558  0  0.970708  0
H  H15  1  0.55573687  0.36606666  0.19464803  1  0.094409  0  0.110253  0.10685  0  0.979922  0
H  H16  1  0.88687790  0.06508290  0.21418355  1  0.109319  0  0.110574  0.1077  0  0.979197  0
H  H17  1  0.45706506  0.75881057  0.78319419  1  0.11679  0  0.119549  0.131815  0  0.965817  0
H  H18  1  0.77430479  0.43929864  0.78841737  1  0.11601  0  0.11802  0.117622  0  0.966005  0
H  H19  1  0.90979588  0.54058792  0.71024993  1  0.117423  0  0.115119  0.112504  0  0.970998  0
H  H20  1  0.82171911  0.76072116  0.75866544  1  0.0992  0  0.11005  0.11636  0  0.985133  0
H  H21  1  0.08755299  0.88112536  0.26860370  1  0.074303  0  0.113352  0.110291  0  0.976179  0
H  H22  1  0.41616625  0.56953108  0.26253693  1  0.0604  0  0.103208  0.095225  0  0.99798  0
H  H23  1  0.26533076  0.29437240  0.55826148  1  0.583525  0  0.297606  0.388981  0  0.913604  0
H  H24  1  0.04291795  0.06753513  0.93744735  1  0.578931  0  0.295947  0.386651  0  0.917302  0
C  C25  1  0.61692457  0.28196058  0.43656754  1  1.641893  0  0.282335  0.706164  0  4.168797  0
C  C26  1  0.17904457  0.67003182  0.19376262  1  0.124222  0  0.0244  0.114943  0  3.779474  0
C  C27  1  0.11841317  0.60078489  0.27038809  1  -0.01114  0  -0.04916  -0.085366  0  3.567509  0
C  C28  1  0.61986813  0.62749060  0.41738338  1  1.67585  0  0.285624  0.701322  0  4.176758  0
C  C29  1  0.19230037  0.66509615  0.29438716  1  0.130381  0  0.013544  0.125989  0  3.80425  0
C  C30  1  0.23875594  0.54934303  0.23095504  1  0.003807  0  -0.066161  -0.083131  0  3.639633  0
C  C31  1  0.31373594  0.61273401  0.25368490  1  -0.017982  0  -0.064044  -0.071319  0  3.602946  0
C  C32  1  0.15982825  0.67728570  0.14296274  1  -0.331379  0  -0.019671  -0.034959  0  4.070792  0
C  C33  1  0.20514962  0.65808739  0.34589660  1  -0.581059  0  -0.022298  -0.036819  0  4.069919  0
C  C34  1  0.71258294  0.05970829  0.27466553  1  -0.037797  0  -0.064018  -0.07087  0  3.638345  0
C  C35  1  0.59082639  0.09476478  0.24480850  1  -0.018648  0  -0.063146  -0.07013  0  3.60532  0
C  C36  1  0.63777290  0.67342122  0.26872794  1  -0.013451  0  0.00809  0.007018  0  4.165744  0
C  C37  1  0.68448156  0.09999573  0.10407669  1  0.338514  0  -0.038552  -0.197157  0  3.952601  0
C  C38  1  0.63872565  0.23692335  0.38828210  1  0.267994  0  -0.030421  -0.180446  0  3.948913  0
C  C39  1  0.78431712  0.11015414  0.22898891  1  -0.007456  0  -0.055585  -0.090654  0  3.602718  0
C  C40  1  0.26914236  0.61470608  0.43889408  1  1.683614  0  0.278865  0.706606  0  4.170808  0
C  C41  1  0.66286898  0.14537373  0.19778323  1  0.12563  0  0.013981  0.121347  0  3.796604  0
C  C42  1  0.72217851  0.24360960  0.24792136  1  0.109375  0  0.02284  0.043773  0  3.754944  0
C  C43  1  0.64902825  0.19226750  0.29532993  1  0.129496  0  0.02008  0.107205  0  3.778956  0
C  C44  1  0.59909877  0.27849626  0.21807713  1  -0.023413  0  -0.055021  -0.090895  0  3.593574  0
C  C45  1  0.52802712  0.22726693  0.26387814  1  -0.033239  0  -0.066161  -0.078142  0  3.63241  0
C  C46  1  0.67183706  0.12237263  0.14738853  1  -0.579064  0  -0.015264  -0.016008  0  4.051364  0
C  C47  1  0.63817348  0.66428413  0.31849012  1  -0.226411  0  0.003427  0.041514  0  4.228422  0
C  C48  1  0.64384853  0.21556564  0.34528014  1  -0.501429  0  -0.019432  -0.02966  0  4.069362  0
C  C49  1  0.63333028  0.76851190  0.72319579  1  0.653187  0  0.099786  0.221056  0  3.766279  0
C  C50  1  0.55792254  0.71262607  0.76673682  1  -0.054812  0  -0.062905  -0.17511  0  3.578181  0
C  C51  1  0.68972133  0.68096054  0.89118696  1  0.235558  0  -0.038396  -0.207518  0  3.951009  0
C  C52  1  0.61880189  0.28046997  0.57874764  1  1.68501  0  0.280217  0.695055  0  4.177042  0
C  C53  1  0.66869482  0.63303974  0.60129945  1  0.192225  0  -0.028633  -0.193787  0  3.928609  0
C  C54  1  0.76050683  0.71271556  0.75274851  1  -0.060544  0  -0.068615  -0.1469  0  3.575093  0
C  C55  1  0.68382647  0.65692188  0.79672564  1  0.106088  0  0.012931  0.130841  0  3.810473  0
C  C56  1  0.80980688  0.59007866  0.72678208  1  -0.037843  0  -0.060809  -0.059923  0  3.63174  0
C  C57  1  0.68543796  0.64609974  0.69578631  1  0.118163  0  0.020641  0.045103  0  3.770787  0
C  C58  1  0.63845850  0.65415545  0.36416979  1  0.173623  0  0.003528  -0.136693  0  3.805852  0
C  C59  1  0.73564153  0.53366360  0.76961464  1  -0.013412  0  -0.049946  -0.084766  0  3.569354  0
C  C60  1  0.60873464  0.58952933  0.74049070  1  0.127282  0  0.031092  0.069939  0  3.756953  0
C  C61  1  0.68597761  0.66724397  0.84783384  1  -0.435524  0  -0.005329  -0.000248  0  4.029655  0
C  C62  1  0.67930235  0.63949132  0.64478115  1  -0.415228  0  -0.002558  0.017827  0  4.035925  0
C  C63  1  0.10495495  0.69925149  0.86255119  1  0.246244  0  2.9e-05  -0.133929  0  3.82919  0
C  C64  1  0.63885168  0.61219655  0.55472018  1  1.651991  0  0.28942  0.726795  0  4.143998  0
C  C65  1  0.12237167  0.68631906  0.81770418  1  -0.329648  0  -0.009308  0.023048  0  4.26691  0
C  C66  1  0.13965007  0.67424837  0.76863251  1  0.18249  0  -0.002533  -0.008291  0  4.198116  0
C  C67  1  0.15587803  0.66464794  0.72328816  1  -0.282005  0  0.003561  0.003914  0  4.192968  0
C  C68  1  0.18047905  0.65238756  0.67420179  1  0.194861  0  -0.002123  0.034813  0  4.24911  0
C  C69  1  0.13233368  0.78638149  0.25746534  1  -0.001006  0  -0.054814  -0.092932  0  3.593199  0
C  C70  1  0.20746828  0.64077785  0.62933066  1  -0.206831  0  0.00638  -0.125818  0  3.809685  0
C  C71  1  0.69125405  0.11826951  0.86405716  1  0.192582  0  0.001008  -0.134461  0  3.822037  0
C  C72  1  0.68762597  0.14599530  0.81872162  1  -0.176174  0  -0.007711  0.025331  0  4.260491  0
C  C73  1  0.68346056  0.17218612  0.76910559  1  0.056587  0  -0.002148  -0.011773  0  4.190168  0
C  C74  1  0.67854004  0.19197041  0.72335343  1  -0.159339  0  0.007213  0.006474  0  4.189441  0
C  C75  1  0.66686291  0.21355523  0.67405032  1  -0.221097  0  -0.001888  0.028514  0  4.243256  0
C  C76  1  0.26500343  0.61438290  0.57936323  1  1.675677  0  0.280114  0.696264  0  4.180897  0
C  C77  1  0.65217067  0.23403105  0.62918667  1  0.136543  0  0.010719  -0.118031  0  3.792059  0
C  C78  1  0.07376175  0.71632640  0.05373139  1  1.676666  0  0.285335  0.707205  0  4.16551  0
C  C79  1  0.69712644  0.71980886  0.07450972  1  1.703093  0  0.286824  0.70593  0  4.16652  0
C  C80  1  0.25242929  0.73423965  0.21799202  1  -0.012414  0  -0.063761  -0.076128  0  3.621648  0
C  C81  1  0.71750188  0.05218666  0.05601197  1  1.647235  0  0.280013  0.714706  0  4.153695  0
C  C82  1  0.06023916  0.72769606  0.91333728  1  1.698607  0  0.275052  0.692124  0  4.189969  0
C  C83  1  0.71155953  0.70992771  0.93764951  1  1.604968  0  0.286566  0.724931  0  4.148056  0
C  C84  1  0.71503891  0.06396858  0.91457938  1  1.662129  0  0.278614  0.69503  0  4.18389  0
C  C85  1  0.66316720  0.69510801  0.12687875  1  0.220087  0  0.005666  -0.135279  0  3.795347  0
C  C86  1  0.65012543  0.68678558  0.17279747  1  -0.224179  0  0.005251  0.044946  0  4.227945  0
C  C87  1  0.64006294  0.67936347  0.22285987  1  -0.05493  0  0.009512  0.008409  0  4.171043  0
C  C88  1  0.79140191  0.31985833  0.25046354  1  0.809598  0  0.17142  0.225967  0  4.017523  0
C  C89  1  0.53425721  0.98415450  0.72628637  1  0.351039  0  -0.135772  -0.167474  0  3.906387  0
C  C90  1  0.52987342  0.52639347  0.73270472  1  0.814365  0  0.177451  0.220035  0  4.000614  0
C  C91  1  0.13182021  0.68829508  0.10030426  1  0.080044  0  -0.026335  -0.172769  0  3.947891  0
C  C92  1  0.92365650  0.78284104  0.22261130  1  0.79108  0  0.187053  0.224257  0  3.996449  0
C  C93  1  0.22266196  0.64572204  0.38998145  1  0.292855  0  -0.034637  -0.187167  0  3.964867  0
C  C94  1  0.05618498  0.72316759  0.23468977  1  0.147463  0  0.027997  0.048469  0  3.755391  0
N  N95  1  0.84901930  0.38140430  0.25331080  1  -1.107954  0  -0.315819  -0.371189  0  2.731104  0
N  N96  1  0.46476959  0.47541474  0.72561293  1  -1.101209  0  -0.29477  -0.350032  0  2.776118  0
N  N97  1  0.81561909  0.83495680  0.21170364  1  -1.130416  0  -0.283669  -0.342111  0  2.818401  0
O  O98  1  0.29077406  0.50591297  0.45914523  1  -1.212558  0  -0.200596  -0.536893  0  2.285455  0
O  O99  1  0.61844006  0.81964798  0.05191308  1  -1.244292  0  -0.218991  -0.574045  0  2.243818  0
O  O100  1  0.62756934  0.03294192  0.03775375  1  -1.255907  0  -0.244407  -0.612849  0  2.230213  0
O  O101  1  0.50911525  0.29573335  0.46191962  1  -1.218261  0  -0.197705  -0.533274  0  2.286297  0
O  O102  1  0.82316029  0.04889721  0.92922853  1  -1.208991  0  -0.206572  -0.558793  0  2.29454  0
O  O103  1  0.03931698  0.83559086  0.92312863  1  -1.200193  0  -0.205912  -0.549279  0  2.28974  0
O  O104  1  0.04015599  0.64127582  0.94370441  1  -1.249231  0  -0.237608  -0.596131  0  2.238209  0
O  O105  1  0.81468181  0.63317051  0.95829545  1  -1.24794  0  -0.227737  -0.5907  0  2.242283  0
O  O106  1  0.63115881  0.81307418  0.95382182  1  -1.234488  0  -0.224138  -0.584464  0  2.247585  0
O  O107  1  0.62599039  0.03056169  0.93963045  1  -1.2431  0  -0.232484  -0.585062  0  2.228591  0
O  O108  1  0.83928444  0.84057476  0.99063709  1  -1.606445  0  -0.390281  -1.274405  0  2.293544  0
O  O109  1  0.71737613  0.51255766  0.53519941  1  -1.245898  0  -0.224913  -0.588529  0  2.242491  0
O  O110  1  0.70835920  0.30955082  0.44896085  1  -1.248636  0  -0.239569  -0.600912  0  2.230563  0
O  O111  1  0.70329091  0.52663884  0.43723797  1  -1.228676  0  -0.217656  -0.569623  0  2.248073  0
O  O112  1  0.51615744  0.70389665  0.43986869  1  -1.240481  0  -0.220243  -0.574747  0  2.245182  0
O  O113  1  0.29056887  0.69916819  0.45686382  1  -1.250836  0  -0.242295  -0.606977  0  2.238012  0
O  O114  1  0.28026797  0.51154620  0.56568718  1  -1.209221  0  -0.204753  -0.555938  0  2.293462  0
O  O115  1  0.50307553  0.30336871  0.56981641  1  -1.199222  0  -0.202694  -0.546174  0  2.283598  0
O  O116  1  0.70891333  0.29941174  0.54775263  1  -1.241635  0  -0.235789  -0.595376  0  2.234419  0
O  O117  1  0.58260154  0.88154873  0.69603139  1  -1.071411  0  -0.203648  -0.189664  0  2.527922  0
O  O118  1  0.53204329  0.69095387  0.53737677  1  -1.243385  0  -0.22295  -0.585593  0  2.246949  0
O  O119  1  0.30115899  0.69774571  0.55377023  1  -1.245675  0  -0.23241  -0.588087  0  2.232511  0
O  O120  1  0.49614024  0.49544786  0.50228336  1  -1.611526  0  -0.389961  -1.275133  0  2.290603  0
O  O121  1  0.83330305  0.02869807  0.03615034  1  -1.218311  0  -0.203371  -0.545386  0  2.282767  0
O  O122  1  0.05638615  0.82072285  0.02980374  1  -1.21135  0  -0.19514  -0.529267  0  2.286039  0
O  O123  1  0.03877398  0.63332849  0.04177364  1  -1.245034  0  -0.23758  -0.597534  0  2.230758  0
O  O124  1  0.80669069  0.64349573  0.05566336  1  -1.240069  0  -0.217424  -0.57109  0  2.24864  0
O  O125  1  0.29936288  0.30751912  0.52409379  1  -1.359298  0  -0.570374  -0.985879  0  1.788792  0
O  O126  1  0.04158075  0.02322273  0.97028788  1  -1.358769  0  -0.571399  -0.986155  0  1.78897  0
