# generated using pymatgen
data_FeH20C22S2(N3O)2
_symmetry_space_group_name_H-M   'P 1'
_cell_length_a   10.37342383
_cell_length_b   10.27459712
_cell_length_c   13.24280000
_cell_angle_alpha   99.51494577
_cell_angle_beta   108.74752216
_cell_angle_gamma   114.20553149
_symmetry_Int_Tables_number   1
_chemical_formula_structural   FeH20C22S2(N3O)2
_chemical_formula_sum   'Fe2 H40 C44 S4 N12 O4'
_cell_volume   1144.67222391
_cell_formula_units_Z   2
loop_
 _symmetry_equiv_pos_site_id
 _symmetry_equiv_pos_as_xyz
  1  'x, y, z'
loop_
 _atom_site_type_symbol
 _atom_site_label
 _atom_site_symmetry_multiplicity
 _atom_site_fract_x
 _atom_site_fract_y
 _atom_site_fract_z
 _atom_site_occupancy
 _atom_site_pbe_bader_charge
 _atom_site_pbe_bader_spin_density
 _atom_site_pbe_cm5_charge
 _atom_site_pbe_ddec_charge
 _atom_site_pbe_ddec_spin_density
 _atom_site_pbe_ddec_sum_bond_order
 _atom_site_pbe_magmom
Fe  Fe0  1  0.64713722  0.39672765  0.25021037  1  1.224333  0  0.71269  0.629118  0  3.396646  0
Fe  Fe1  1  0.35285958  0.60326813  0.74978632  1  1.224257  0  0.712756  0.62915  0  3.396955  0
H  H2  1  0.54109465  0.06889304  0.19856238  1  0.105227  0  0.124104  0.099426  0  0.990688  0
H  H3  1  0.37476657  0.34755519  0.29791697  1  0.107367  0  0.123154  0.097851  0  0.995267  0
H  H4  1  0.45890579  0.93111183  0.80143639  1  0.105158  0  0.124106  0.099399  0  0.990672  0
H  H5  1  0.62523475  0.65244742  0.70208098  1  0.10744  0  0.123183  0.097895  0  0.99525  0
H  H6  1  0.32673760  0.84353009  0.19610432  1  0.107336  0  0.094957  0.104247  0  1.056079  0
H  H7  1  0.15335538  0.13618144  0.30199380  1  0.088013  0  0.096771  0.105451  0  1.049691  0
H  H8  1  0.67327041  0.15647365  0.80389471  1  0.107244  0  0.09497  0.104237  0  1.05613  0
H  H9  1  0.84664812  0.86382344  0.69800801  1  0.087881  0  0.096797  0.105489  0  1.049696  0
H  H10  1  0.18645564  0.68557453  0.25156550  1  0.095257  0  0.098503  0.101263  0  1.055731  0
H  H11  1  0.93825386  0.93830775  0.24841510  1  0.084681  0  0.096756  0.100222  0  1.062674  0
H  H12  1  0.81355193  0.31443034  0.74844262  1  0.095285  0  0.098504  0.10128  0  1.055739  0
H  H13  1  0.06173932  0.06168690  0.75157600  1  0.084664  0  0.096754  0.10018  0  1.062793  0
H  H14  1  0.96575972  0.47582816  0.25803318  1  0.11342  0  0.119124  0.091286  0  1.023473  0
H  H15  1  0.72351388  0.71237966  0.24508278  1  0.110403  0  0.120135  0.091815  0  1.022401  0
H  H16  1  0.03424974  0.52417444  0.74197059  1  0.113429  0  0.11913  0.09133  0  1.0235  0
H  H17  1  0.27648497  0.28761612  0.75490989  1  0.110493  0  0.120128  0.091876  0  1.022459  0
H  H18  1  0.80325912  0.57965867  0.46358809  1  0.579977  0  0.267462  0.338695  0  1.008677  0
H  H19  1  0.61169220  0.33543282  0.03791241  1  0.599174  0  0.270232  0.340951  0  1.003624  0
H  H20  1  0.19674409  0.42034166  0.53641306  1  0.580019  0  0.267502  0.338758  0  1.008599  0
H  H21  1  0.38830707  0.66456978  0.96208729  1  0.59914  0  0.270232  0.340961  0  1.003614  0
H  H22  1  0.64958272  0.59312658  0.41172344  1  0.624401  0  0.276468  0.307933  0  1.068262  0
H  H23  1  0.68341966  0.23790272  0.08921806  1  0.62021  0  0.2772  0.310999  0  1.063311  0
H  H24  1  0.35041758  0.40686807  0.58827549  1  0.62434  0  0.276465  0.307911  0  1.068281  0
H  H25  1  0.31657932  0.76210329  0.91077823  1  0.620241  0  0.277194  0.310919  0  1.063408  0
H  H26  1  0.63253162  0.96060235  0.06045313  1  0.108272  0  0.115029  0.091777  0  1.004743  0
H  H27  1  0.40144999  0.56623395  0.44126019  1  0.097191  0  0.114887  0.089907  0  1.003368  0
H  H28  1  0.36747071  0.03940820  0.93953627  1  0.10828  0  0.115021  0.091741  0  1.004799  0
H  H29  1  0.59855031  0.43374479  0.55874275  1  0.097412  0  0.114854  0.089972  0  1.003241  0
H  H30  1  0.76318064  0.82960079  0.00502345  1  0.080548  0  0.112852  0.126509  0  1.000374  0
H  H31  1  0.32749764  0.75518240  0.49534017  1  0.09168  0  0.113535  0.127289  0  0.999446  0
H  H32  1  0.23682809  0.17041431  0.99497495  1  0.08031  0  0.112865  0.126505  0  1.000392  0
H  H33  1  0.67248420  0.24478611  0.50466435  1  0.09131  0  0.113588  0.127406  0  0.99934  0
H  H34  1  0.12186373  0.26784327  0.03731084  1  0.116453  0  0.096221  0.100982  0  1.073135  0
H  H35  1  0.72604791  0.08532932  0.46265538  1  0.119019  0  0.098691  0.103313  0  1.066394  0
H  H36  1  0.87814994  0.73216956  0.96268851  1  0.116508  0  0.096223  0.100992  0  1.073154  0
H  H37  1  0.27393000  0.91465737  0.53735728  1  0.11771  0  0.09879  0.103329  0  1.066417  0
H  H38  1  0.97326430  0.37795486  0.08798065  1  0.123557  0  0.106675  0.073044  0  1.029147  0
H  H39  1  0.78428022  0.88305194  0.41303306  1  0.083199  0  0.106697  0.073619  0  1.027379  0
H  H40  1  0.02674269  0.62205683  0.91201763  1  0.123556  0  0.106641  0.072956  0  1.029144  0
H  H41  1  0.21570306  0.11694725  0.58696821  1  0.082737  0  0.106707  0.073679  0  1.0274  0
C  C42  1  0.45232277  0.07848457  0.22074538  1  0.457653  0  0.044563  0.084179  0  3.909661  0
C  C43  1  0.35976765  0.23387291  0.27631964  1  0.446872  0  0.044312  0.084029  0  3.909571  0
C  C44  1  0.54768218  0.92151917  0.77925665  1  0.457795  0  0.044574  0.084289  0  3.909432  0
C  C45  1  0.64023730  0.76613082  0.72367861  1  0.446894  0  0.044323  0.084101  0  3.909469  0
C  C46  1  0.33100493  0.95249274  0.22056696  1  -0.054286  0  -0.084768  -0.169317  0  3.952598  0
C  C47  1  0.23467191  0.11303337  0.27733843  1  -0.018838  0  -0.086103  -0.17194  0  3.955347  0
C  C48  1  0.66900133  0.04751554  0.77943522  1  -0.054279  0  -0.084793  -0.169323  0  3.952621  0
C  C49  1  0.76532839  0.88696923  0.72266001  1  -0.018772  0  -0.086164  -0.172049  0  3.955505  0
C  C50  1  0.21674978  0.96649932  0.24926424  1  0.000963  0  0.002573  0.088236  0  3.976824  0
C  C51  1  0.78325052  0.03350328  0.75073118  1  0.000948  0  0.002588  0.088188  0  3.976956  0
C  C52  1  0.08598700  0.83555117  0.24990676  1  -0.051259  0  0.006448  0.104261  0  3.962217  0
C  C53  1  0.91401155  0.16444802  0.75008930  1  -0.051391  0  0.00637  0.104137  0  3.962229  0
C  C54  1  0.08779135  0.69964475  0.25128235  1  -0.013694  0  -0.086272  -0.173184  0  3.948918  0
C  C55  1  0.95141597  0.83857068  0.24942433  1  0.026697  0  -0.086115  -0.171792  0  3.946737  0
C  C56  1  0.91221200  0.30035785  0.74871913  1  -0.014041  0  -0.086261  -0.173095  0  3.948922  0
C  C57  1  0.04858505  0.16142737  0.75056994  1  0.026758  0  -0.086062  -0.171635  0  3.946764  0
C  C58  1  0.96321526  0.57954275  0.25363078  1  0.42992  0  0.044119  0.081803  0  3.92772  0
C  C59  1  0.82987738  0.71242625  0.24905969  1  0.426829  0  0.042627  0.081831  0  3.930615  0
C  C60  1  0.03679056  0.42045871  0.74637193  1  0.43027  0  0.044132  0.08172  0  3.927807  0
C  C61  1  0.17012569  0.28757180  0.75093585  1  0.426581  0  0.042642  0.081726  0  3.930667  0
C  C62  1  0.86610826  0.27730410  0.35753407  1  0.543582  0  0.133516  0.239461  0  4.307459  0
C  C63  1  0.42260531  0.50979625  0.14036504  1  0.538103  0  0.133342  0.237996  0  4.314363  0
C  C64  1  0.13388826  0.72268714  0.64245970  1  0.543945  0  0.133415  0.23936  0  4.307375  0
C  C65  1  0.57739470  0.49020977  0.85963603  1  0.537584  0  0.133382  0.237989  0  4.313898  0
C  C66  1  0.74350312  0.02581188  0.05688311  1  0.529528  0  0.049914  0.092939  0  3.95664  0
C  C67  1  0.46904229  0.68215045  0.44458126  1  0.482346  0  0.049168  0.090559  0  3.957854  0
C  C68  1  0.25650401  0.97420209  0.94311474  1  0.530173  0  0.049726  0.09277  0  3.956774  0
C  C69  1  0.53094434  0.31782942  0.55542216  1  0.48238  0  0.049123  0.09034  0  3.958035  0
C  C70  1  0.81831009  0.95217909  0.02542652  1  -0.017161  0  -0.075817  -0.154554  0  3.912815  0
C  C71  1  0.42766558  0.79000394  0.47520943  1  -0.013614  0  -0.076556  -0.156284  0  3.921196  0
C  C72  1  0.18169820  0.04783715  0.97456889  1  -0.01721  0  -0.075706  -0.154527  0  3.912728  0
C  C73  1  0.57232119  0.20997820  0.52480262  1  -0.013226  0  -0.076625  -0.156403  0  3.92095  0
C  C74  1  0.95832080  0.03627618  0.01725824  1  -0.01347  0  0.009993  0.095696  0  3.970226  0
C  C75  1  0.51851262  0.94014650  0.48299196  1  -0.030434  0  0.011157  0.097517  0  3.969148  0
C  C76  1  0.04168968  0.96373437  0.98273926  1  -0.045601  0  0.010147  0.09599  0  3.970073  0
C  C77  1  0.48147329  0.05983792  0.51702091  1  0.005414  0  0.011158  0.097423  0  3.968843  0
C  C78  1  0.01509580  0.19303280  0.04200503  1  -0.008635  0  -0.083506  -0.169271  0  3.955291  0
C  C79  1  0.64796903  0.97240538  0.45839731  1  -0.038697  0  -0.08328  -0.170473  0  3.953196  0
C  C80  1  0.98491627  0.80697889  0.95799301  1  -0.008533  0  -0.083602  -0.169379  0  3.955296  0
C  C81  1  0.35201178  0.02757904  0.54161353  1  -0.037924  0  -0.083295  -0.170231  0  3.953395  0
C  C82  1  0.93180850  0.25682666  0.07133818  1  0.407042  0  0.042945  0.087979  0  3.970599  0
C  C83  1  0.68171572  0.85804466  0.42970297  1  0.498943  0  0.045634  0.089272  0  3.966487  0
C  C84  1  0.06819950  0.74318504  0.92865582  1  0.407133  0  0.043078  0.088068  0  3.970415  0
C  C85  1  0.31827455  0.14194431  0.57030932  1  0.499369  0  0.045495  0.089046  0  3.966685  0
S  S86  1  0.97784130  0.20739622  0.40868216  1  -0.012918  0  -0.173254  -0.362199  0  2.337512  0
S  S87  1  0.30430885  0.57216955  0.08674169  1  -0.005511  0  -0.175574  -0.362862  0  2.335637  0
S  S88  1  0.02215754  0.79259956  0.59131580  1  -0.013013  0  -0.173259  -0.362197  0  2.337583  0
S  S89  1  0.69570583  0.42785123  0.91326195  1  -0.005829  0  -0.17563  -0.362848  0  2.335506  0
N  N90  1  0.46932362  0.21947427  0.24850790  1  -1.156771  0  -0.330734  -0.153103  0  3.581043  0
N  N91  1  0.53067435  0.78052379  0.75149013  1  -1.156661  0  -0.330731  -0.153189  0  3.580886  0
N  N92  1  0.83334903  0.58277591  0.25176237  1  -1.177038  0  -0.317293  -0.18462  0  3.563417  0
N  N93  1  0.16665316  0.41722441  0.74823475  1  -1.176921  0  -0.317353  -0.184648  0  3.563456  0
N  N94  1  0.78390549  0.32655157  0.31875977  1  -1.286326  0  -0.420799  -0.436117  0  3.518993  0
N  N95  1  0.50891530  0.46528203  0.18078044  1  -1.294033  0  -0.419775  -0.438069  0  3.521006  0
N  N96  1  0.21609176  0.67343512  0.68123285  1  -1.286588  0  -0.420691  -0.435986  0  3.518917  0
N  N97  1  0.49107801  0.53472284  0.81921654  1  -1.293232  0  -0.419831  -0.438145  0  3.520875  0
N  N98  1  0.79808694  0.17539417  0.07909814  1  -1.254692  0  -0.309191  -0.228729  0  3.449691  0
N  N99  1  0.59407487  0.71483209  0.42254338  1  -1.250413  0  -0.308528  -0.222241  0  3.448792  0
N  N100  1  0.20192382  0.82462093  0.92089925  1  -1.255161  0  -0.309167  -0.228562  0  3.449492  0
N  N101  1  0.40591743  0.28515688  0.57746640  1  -1.250404  0  -0.308389  -0.22208  0  3.448779  0
O  O102  1  0.68880471  0.51523296  0.41584180  1  -1.179262  0  -0.542519  -0.668215  0  2.279366  0
O  O103  1  0.59827799  0.26814215  0.08378019  1  -1.192895  0  -0.542407  -0.668523  0  2.267061  0
O  O104  1  0.31119951  0.48476737  0.58415734  1  -1.179245  0  -0.542551  -0.668269  0  2.27938  0
O  O105  1  0.40172274  0.73185931  0.91621596  1  -1.192883  0  -0.542412  -0.668502  0  2.267093  0
