# generated using pymatgen
data_NaGdH12(CO)12
_symmetry_space_group_name_H-M   'P 1'
_cell_length_a   6.85821407
_cell_length_b   7.51022433
_cell_length_c   15.65883227
_cell_angle_alpha   90.00021831
_cell_angle_beta   102.65413519
_cell_angle_gamma   89.99992051
_symmetry_Int_Tables_number   1
_chemical_formula_structural   NaGdH12(CO)12
_chemical_formula_sum   'Na2 Gd2 H24 C24 O24'
_cell_volume   786.94462052
_cell_formula_units_Z   2
loop_
 _symmetry_equiv_pos_site_id
 _symmetry_equiv_pos_as_xyz
  1  'x, y, z'
loop_
 _atom_site_type_symbol
 _atom_site_label
 _atom_site_symmetry_multiplicity
 _atom_site_fract_x
 _atom_site_fract_y
 _atom_site_fract_z
 _atom_site_occupancy
 _atom_site_hle17_bader_spin_density
 _atom_site_hle17_ddec_charge
 _atom_site_hle17_ddec_spin_density
 _atom_site_hle17_ddec_sum_bond_order
 _atom_site_hle17_magmom
 _atom_site_hse06_10hf_bader_spin_density
 _atom_site_hse06_10hf_ddec_charge
 _atom_site_hse06_10hf_ddec_spin_density
 _atom_site_hse06_10hf_ddec_sum_bond_order
 _atom_site_hse06_10hf_magmom
 _atom_site_hse06_bader_spin_density
 _atom_site_hse06_ddec_charge
 _atom_site_hse06_ddec_spin_density
 _atom_site_hse06_ddec_sum_bond_order
 _atom_site_hse06_magmom
 _atom_site_pbe_bader_spin_density
 _atom_site_pbe_cm5_charge
 _atom_site_pbe_ddec_charge
 _atom_site_pbe_ddec_spin_density
 _atom_site_pbe_ddec_sum_bond_order
 _atom_site_pbe_magmom
Na  Na0  1  0.86027194  0.24987237  0.72062802  1  0  0.926727  0  0.350977  0  0  0.898266  0  0.483327  0  0  0.906914  0  0.462973  0  0  0.692647  0.891562  0  0.498332  0
Na  Na1  1  0.13973221  0.74987077  0.27937274  1  0  0.926726  0  0.35098  0  0  0.898268  0  0.483326  0  0  0.906912  0  0.462964  0  0  0.692641  0.891548  0  0.498339  0
Gd  Gd2  1  0.69526110  0.75011187  0.39044698  1  0  2.127172  0  1.900463  0  0  2.024866  0  2.294266  0  0  2.083265  0  2.228053  0  0  1.498565  1.979365  0  2.347212  0
Gd  Gd3  1  0.30473558  0.25010796  0.60955242  1  0  2.127157  0  1.900368  0  0  2.024842  0  2.294188  0  0  2.083275  0  2.227923  0  0  1.498586  1.979324  0  2.347177  0
H  H4  1  0.76295443  0.25558003  0.89869028  1  0  0.107072  0  0.954887  0  0  0.117025  0  1.01582  0  0  0.120341  0  1.013685  0  0  0.112467  0.114592  0  1.017528  0
H  H5  1  0.23704672  0.75558354  0.10131148  1  0  0.107152  0  0.954782  0  0  0.117062  0  1.015792  0  0  0.120374  0  1.013647  0  0  0.112474  0.114628  0  1.017502  0
H  H6  1  0.13582750  0.24430380  0.89871040  1  0  0.107692  0  0.954558  0  0  0.117612  0  1.015614  0  0  0.120908  0  1.013468  0  0  0.113042  0.115185  0  1.01735  0
H  H7  1  0.86417069  0.74429986  0.10128786  1  0  0.10772  0  0.954581  0  0  0.117643  0  1.015625  0  0  0.120941  0  1.013478  0  0  0.113054  0.115216  0  1.017358  0
H  H8  1  0.84469777  0.26047262  0.06175823  1  0  0.090475  0  0.964252  0  0  0.10035  0  1.026678  0  0  0.103715  0  1.024418  0  0  0.103922  0.097829  0  1.028557  0
H  H9  1  0.15529890  0.76047628  0.93824310  1  0  0.090467  0  0.964352  0  0  0.100336  0  1.026793  0  0  0.103702  0  1.024533  0  0  0.103927  0.097817  0  1.028672  0
H  H10  1  0.21718210  0.23933650  0.06178288  1  0  0.090378  0  0.966261  0  0  0.100958  0  1.027764  0  0  0.104344  0  1.025483  0  0  0.103729  0.098397  0  1.029693  0
H  H11  1  0.78281309  0.73933404  0.93821508  1  0  0.09043  0  0.966273  0  0  0.101003  0  1.027775  0  0  0.104384  0  1.025504  0  0  0.103736  0.098464  0  1.029681  0
H  H12  1  0.01953248  0.91420759  0.80498117  1  0  0.416422  0  0.8878  0  0  0.38575  0  0.951962  0  0  0.395859  0  0.936915  0  0  0.28868  0.378571  0  0.962649  0
H  H13  1  0.98047156  0.41420749  0.19501924  1  0  0.416484  0  0.887716  0  0  0.385845  0  0.951854  0  0  0.395956  0  0.936801  0  0  0.288713  0.378654  0  0.962561  0
H  H14  1  0.78552291  0.58564702  0.80495222  1  0  0.416452  0  0.887717  0  0  0.385457  0  0.952291  0  0  0.395554  0  0.93726  0  0  0.28754  0.378287  0  0.962958  0
H  H15  1  0.21447238  0.08564656  0.19504738  1  0  0.416463  0  0.88771  0  0  0.385456  0  0.952302  0  0  0.395552  0  0.937275  0  0  0.287535  0.378287  0  0.962968  0
H  H16  1  0.48754886  0.26955257  0.41904217  1  0  0.101949  0  0.92325  0  0  0.108417  0  0.982007  0  0  0.111734  0  0.979163  0  0  0.131934  0.105974  0  0.984276  0
H  H17  1  0.51245078  0.76955025  0.58095947  1  0  0.101927  0  0.923257  0  0  0.108392  0  0.982011  0  0  0.111709  0  0.979167  0  0  0.131942  0.10595  0  0.984281  0
H  H18  1  0.93134230  0.23063335  0.41910343  1  0  0.101015  0  0.924637  0  0  0.107774  0  0.98312  0  0  0.111007  0  0.98042  0  0  0.131617  0.105411  0  0.985264  0
H  H19  1  0.06865737  0.73062893  0.58089941  1  0  0.100962  0  0.924698  0  0  0.107684  0  0.98318  0  0  0.110916  0  0.980477  0  0  0.131579  0.105329  0  0.985322  0
H  H20  1  0.78599321  0.90312617  0.79449465  1  0  0.415845  0  0.871795  0  0  0.389589  0  0.929949  0  0  0.398395  0  0.916838  0  0  0.297388  0.383322  0  0.939291  0
H  H21  1  0.21401084  0.40312047  0.20550637  1  0  0.415815  0  0.871803  0  0  0.389564  0  0.929978  0  0  0.398369  0  0.916869  0  0  0.297367  0.383296  0  0.939321  0
H  H22  1  0.00853949  0.59658589  0.79442622  1  0  0.416482  0  0.871296  0  0  0.390042  0  0.929557  0  0  0.398871  0  0.916398  0  0  0.297085  0.383778  0  0.938898  0
H  H23  1  0.99145729  0.09658320  0.20557419  1  0  0.416509  0  0.871243  0  0  0.390074  0  0.929505  0  0  0.398904  0  0.916345  0  0  0.297087  0.383805  0  0.938854  0
H  H24  1  0.54134658  0.11946467  0.30123604  1  0  0.400922  0  0.892962  0  0  0.370626  0  0.969377  0  0  0.382816  0  0.956034  0  0  0.306003  0.362023  0  0.978697  0
H  H25  1  0.45865317  0.61946070  0.69876469  1  0  0.400864  0  0.892958  0  0  0.370575  0  0.969369  0  0  0.382765  0  0.956027  0  0  0.306004  0.361972  0  0.978691  0
H  H26  1  0.75992942  0.38068842  0.30127554  1  0  0.400769  0  0.892018  0  0  0.3707  0  0.968291  0  0  0.382895  0  0.954924  0  0  0.30615  0.362089  0  0.977627  0
H  H27  1  0.24007165  0.88068606  0.69872580  1  0  0.40076  0  0.89202  0  0  0.370697  0  0.968276  0  0  0.382876  0  0.954937  0  0  0.306154  0.362094  0  0.977604  0
C  C28  1  0.39588539  0.25000211  0.79200404  1  0  0.67024  0  3.877169  0  0  0.626677  0  4.16744  0  0  0.660218  0  4.160475  0  0  0.203031  0.603984  0  4.171007  0
C  C29  1  0.60411577  0.75000468  0.20799515  1  0  0.670225  0  3.877051  0  0  0.626632  0  4.167399  0  0  0.660172  0  4.160435  0  0  0.202925  0.603935  0  4.170965  0
C  C30  1  0.44458359  0.24994122  0.88916623  1  0  -0.059702  0  3.74207  0  0  -0.038273  0  3.974859  0  0  -0.045764  0  3.997699  0  0  -0.012643  -0.033425  0  3.959483  0
C  C31  1  0.55541757  0.74993774  0.11083424  1  0  -0.059718  0  3.742093  0  0  -0.038316  0  3.974955  0  0  -0.045809  0  3.997795  0  0  -0.012601  -0.033463  0  3.959573  0
C  C32  1  0.62356852  0.18763619  0.42794944  1  0  0.056171  0  3.601822  0  0  0.031994  0  3.850064  0  0  0.033221  0  3.856136  0  0  0.003765  0.030945  0  3.846196  0
C  C33  1  0.37643267  0.68763264  0.57205156  1  0  0.056206  0  3.60192  0  0  0.032027  0  3.850047  0  0  0.033259  0  3.856112  0  0  0.00376  0.030987  0  3.846173  0
C  C34  1  0.80419550  0.31253514  0.42797923  1  0  0.055221  0  3.601844  0  0  0.031091  0  3.849903  0  0  0.032133  0  3.856238  0  0  0.004744  0.030069  0  3.846044  0
C  C35  1  0.19580114  0.81253182  0.57202028  1  0  0.055112  0  3.602048  0  0  0.031144  0  3.849844  0  0  0.032195  0  3.856162  0  0  0.004734  0.0301  0  3.845982  0
C  C36  1  0.64948816  0.08737187  0.51424432  1  0  0.707364  0  3.826996  0  0  0.65561  0  4.134831  0  0  0.689675  0  4.125415  0  0  0.237793  0.63231  0  4.140523  0
C  C37  1  0.35051160  0.58736500  0.48575828  1  0  0.707451  0  3.826957  0  0  0.655706  0  4.134748  0  0  0.689765  0  4.125334  0  0  0.237872  0.632404  0  4.140439  0
C  C38  1  0.86457404  0.41280809  0.51429807  1  0  0.707326  0  3.825809  0  0  0.655464  0  4.133682  0  0  0.689694  0  4.124026  0  0  0.237332  0.632055  0  4.13957  0
C  C39  1  0.13543001  0.91281614  0.48570297  1  0  0.707466  0  3.825855  0  0  0.655557  0  4.13372  0  0  0.689785  0  4.124067  0  0  0.237383  0.632168  0  4.139583  0
C  C40  1  0.64458757  0.25362159  0.93496662  1  0  -0.054358  0  3.699759  0  0  -0.078001  0  3.944838  0  0  -0.078568  0  3.965499  0  0  -0.071948  -0.077458  0  3.930815  0
C  C41  1  0.35541060  0.75362333  0.06503357  1  0  -0.054411  0  3.69967  0  0  -0.078017  0  3.944782  0  0  -0.078571  0  3.965435  0  0  -0.071966  -0.077474  0  3.930757  0
C  C42  1  0.29045992  0.24624387  0.93500788  1  0  -0.053377  0  3.699896  0  0  -0.077102  0  3.945408  0  0  -0.077639  0  3.966067  0  0  -0.071016  -0.076577  0  3.931375  0
C  C43  1  0.70953826  0.74623984  0.06499038  1  0  -0.053406  0  3.699944  0  0  -0.077127  0  3.945469  0  0  -0.077665  0  3.966128  0  0  -0.071057  -0.076603  0  3.931438  0
C  C44  1  0.53618010  0.24993789  0.07216397  1  0  -0.068902  0  3.763432  0  0  -0.049714  0  4.004319  0  0  -0.056577  0  4.028558  0  0  -0.013479  -0.045146  0  3.987756  0
C  C45  1  0.46381808  0.74993974  0.92783557  1  0  -0.068756  0  3.763334  0  0  -0.049531  0  4.004185  0  0  -0.05639  0  4.028426  0  0  -0.013432  -0.044968  0  3.98763  0
C  C46  1  0.68968671  0.25569642  0.02589094  1  0  -0.062032  0  3.728282  0  0  -0.083369  0  3.974376  0  0  -0.085286  0  3.996105  0  0  -0.077069  -0.081934  0  3.959606  0
C  C47  1  0.31030997  0.75569751  0.97410846  1  0  -0.062091  0  3.72834  0  0  -0.083442  0  3.974427  0  0  -0.085363  0  3.99616  0  0  -0.077109  -0.082006  0  3.959656  0
C  C48  1  0.33634247  0.24416570  0.02593136  1  0  -0.062684  0  3.729436  0  0  -0.084579  0  3.975514  0  0  -0.086515  0  3.997226  0  0  -0.076651  -0.083117  0  3.960767  0
C  C49  1  0.66365422  0.74416101  0.97406739  1  0  -0.062802  0  3.729473  0  0  -0.084686  0  3.97554  0  0  -0.086624  0  3.99725  0  0  -0.076665  -0.083242  0  3.960787  0
C  C50  1  0.58511183  0.25000216  0.16993755  1  0  0.671035  0  3.834902  0  0  0.611456  0  4.137937  0  0  0.645282  0  4.130149  0  0  0.22906  0.588613  0  4.142311  0
C  C51  1  0.41488486  0.75000463  0.83006121  1  0  0.670942  0  3.834949  0  0  0.611346  0  4.137977  0  0  0.645166  0  4.130196  0  0  0.229067  0.588518  0  4.142348  0
O  O52  1  0.53606275  0.24355198  0.74971645  1  0  -0.729896  0  1.992208  0  0  -0.687786  0  2.239048  0  0  -0.712794  0  2.228555  0  0  -0.433837  -0.669875  0  2.245833  0
O  O53  1  0.46393991  0.74354840  0.25028351  1  0  -0.729924  0  1.992297  0  0  -0.687783  0  2.239117  0  0  -0.712786  0  2.228621  0  0  -0.433829  -0.669872  0  2.245896  0
O  O54  1  0.21344905  0.25653182  0.74973481  1  0  -0.730955  0  1.990727  0  0  -0.688642  0  2.237224  0  0  -0.713627  0  2.226731  0  0  -0.435271  -0.670747  0  2.244011  0
O  O55  1  0.78655810  0.75653583  0.25026370  1  0  -0.730903  0  1.990536  0  0  -0.688556  0  2.237011  0  0  -0.713539  0  2.226517  0  0  -0.43518  -0.67066  0  2.243791  0
O  O56  1  0.60350400  0.05915375  0.35928788  1  0  -0.650752  0  2.182763  0  0  -0.606196  0  2.42974  0  0  -0.624324  0  2.415823  0  0  -0.444684  -0.592677  0  2.439289  0
O  O57  1  0.39649728  0.55914806  0.64071225  1  0  -0.650704  0  2.182737  0  0  -0.606151  0  2.429697  0  0  -0.624285  0  2.415783  0  0  -0.444699  -0.592629  0  2.439248  0
O  O58  1  0.75567299  0.44102241  0.35929866  1  0  -0.65089  0  2.181852  0  0  -0.606508  0  2.428484  0  0  -0.624591  0  2.414635  0  0  -0.445929  -0.593005  0  2.438049  0
O  O59  1  0.24432656  0.94101824  0.64070009  1  0  -0.650845  0  2.181906  0  0  -0.606506  0  2.42847  0  0  -0.624588  0  2.414642  0  0  -0.445917  -0.59299  0  2.438031  0
O  O60  1  0.89832101  0.98612365  0.80271868  1  0  -0.869894  0  1.756561  0  0  -0.83394  0  1.915717  0  0  -0.848215  0  1.884834  0  0  -0.655357  -0.823767  0  1.937551  0
O  O61  1  0.10168150  0.48612069  0.19728235  1  0  -0.869913  0  1.756521  0  0  -0.834011  0  1.915609  0  0  -0.848287  0  1.884723  0  0  -0.655368  -0.823836  0  1.937456  0
O  O62  1  0.90440308  0.51366240  0.80269167  1  0  -0.870326  0  1.756392  0  0  -0.83386  0  1.915747  0  0  -0.848216  0  1.884962  0  0  -0.653623  -0.823654  0  1.937508  0
O  O63  1  0.09559524  0.01366077  0.19730874  1  0  -0.870369  0  1.756359  0  0  -0.833906  0  1.915741  0  0  -0.848259  0  1.884951  0  0  -0.653623  -0.823699  0  1.937507  0
O  O64  1  0.44764264  0.21143898  0.21071238  1  0  -0.644374  0  2.0059  0  0  -0.57235  0  2.218601  0  0  -0.598294  0  2.207868  0  0  -0.30067  -0.554253  0  2.225536  0
O  O65  1  0.55235556  0.71143828  0.78928645  1  0  -0.644303  0  2.005853  0  0  -0.572327  0  2.218594  0  0  -0.598278  0  2.20787  0  0  -0.300676  -0.554228  0  2.225526  0
O  O66  1  0.76334612  0.28861225  0.21072678  1  0  -0.643222  0  2.004828  0  0  -0.571564  0  2.217646  0  0  -0.597552  0  2.206931  0  0  -0.299588  -0.553468  0  2.224603  0
O  O67  1  0.23665353  0.78860928  0.78927297  1  0  -0.643194  0  2.004936  0  0  -0.5715  0  2.21773  0  0  -0.597463  0  2.207007  0  0  -0.299592  -0.553444  0  2.224703  0
O  O68  1  0.60803133  0.16822594  0.57964698  1  0  -0.76136  0  2.07754  0  0  -0.724348  0  2.347521  0  0  -0.749466  0  2.332631  0  0  -0.435423  -0.706102  0  2.357534  0
O  O69  1  0.39196839  0.66822515  0.42035320  1  0  -0.761458  0  2.077347  0  0  -0.724463  0  2.347337  0  0  -0.749578  0  2.332448  0  0  -0.435471  -0.706215  0  2.357342  0
O  O70  1  0.97150557  0.33196516  0.57967670  1  0  -0.76115  0  2.075821  0  0  -0.724181  0  2.34598  0  0  -0.749349  0  2.331051  0  0  -0.434724  -0.705913  0  2.356028  0
O  O71  1  0.02848956  0.83195950  0.42032334  1  0  -0.761226  0  2.075547  0  0  -0.724256  0  2.345721  0  0  -0.749411  0  2.330769  0  0  -0.434753  -0.705988  0  2.355746  0
O  O72  1  0.71237258  0.92918025  0.51651439  1  0  -0.656789  0  2.031505  0  0  -0.609896  0  2.275794  0  0  -0.63529  0  2.264918  0  0  -0.362459  -0.591858  0  2.283063  0
O  O73  1  0.28763893  0.42918068  0.48348549  1  0  -0.656799  0  2.031715  0  0  -0.609881  0  2.275952  0  0  -0.635292  0  2.265114  0  0  -0.362448  -0.591841  0  2.28322  0
O  O74  1  0.80399421  0.57102445  0.51656254  1  0  -0.656049  0  2.031491  0  0  -0.609398  0  2.276165  0  0  -0.634773  0  2.265126  0  0  -0.362138  -0.59136  0  2.283515  0
O  O75  1  0.19600258  0.07100635  0.48343591  1  0  -0.656031  0  2.031885  0  0  -0.609406  0  2.276606  0  0  -0.634789  0  2.265575  0  0  -0.362138  -0.591361  0  2.283922  0
