# generated using pymatgen
data_CdH2C6(NO2)2
_symmetry_space_group_name_H-M   'P 1'
_cell_length_a   7.81128108
_cell_length_b   8.77289448
_cell_length_c   10.59299261
_cell_angle_alpha   112.00751791
_cell_angle_beta   89.99950048
_cell_angle_gamma   89.99960937
_symmetry_Int_Tables_number   1
_chemical_formula_structural   CdH2C6(NO2)2
_chemical_formula_sum   'Cd4 H8 C24 N8 O16'
_cell_volume   673.01799024
_cell_formula_units_Z   4
loop_
 _symmetry_equiv_pos_site_id
 _symmetry_equiv_pos_as_xyz
  1  'x, y, z'
loop_
 _atom_site_type_symbol
 _atom_site_label
 _atom_site_symmetry_multiplicity
 _atom_site_fract_x
 _atom_site_fract_y
 _atom_site_fract_z
 _atom_site_occupancy
 _atom_site_hle17_bader_spin_density
 _atom_site_hle17_ddec_charge
 _atom_site_hle17_ddec_spin_density
 _atom_site_hle17_ddec_sum_bond_order
 _atom_site_hle17_magmom
 _atom_site_hse06_10hf_bader_spin_density
 _atom_site_hse06_10hf_ddec_charge
 _atom_site_hse06_10hf_ddec_spin_density
 _atom_site_hse06_10hf_ddec_sum_bond_order
 _atom_site_hse06_10hf_magmom
 _atom_site_hse06_bader_spin_density
 _atom_site_hse06_ddec_charge
 _atom_site_hse06_ddec_spin_density
 _atom_site_hse06_ddec_sum_bond_order
 _atom_site_hse06_magmom
 _atom_site_pbe_bader_spin_density
 _atom_site_pbe_cm5_charge
 _atom_site_pbe_ddec_charge
 _atom_site_pbe_ddec_spin_density
 _atom_site_pbe_ddec_sum_bond_order
 _atom_site_pbe_magmom
Cd  Cd0  1  0.14042737  0.53434689  0.35864669  1  0  1.24413  0  1.588263  0  0  1.0605  0  2.036393  0  0  1.117812  0  1.980017  0  0  0.802489  1.018957  0  2.075561  0
Cd  Cd1  1  0.64042912  0.96565787  0.64135302  1  0  1.244143  0  1.588112  0  0  1.060521  0  2.036232  0  0  1.117837  0  1.979854  0  0  0.802509  1.018963  0  2.075386  0
Cd  Cd2  1  0.85957305  0.46565311  0.64135466  1  0  1.244128  0  1.588279  0  0  1.060498  0  2.036416  0  0  1.117811  0  1.980038  0  0  0.802497  1.018953  0  2.075583  0
Cd  Cd3  1  0.35957130  0.03434325  0.35864489  1  0  1.244148  0  1.588072  0  0  1.060535  0  2.036176  0  0  1.117849  0  1.979801  0  0  0.802541  1.018976  0  2.075331  0
H  H4  1  0.85620444  0.73188950  0.97471705  1  0  0.094517  0  0.972213  0  0  0.092551  0  1.050922  0  0  0.096539  0  1.047802  0  0  0.112851  0.089784  0  1.052966  0
H  H5  1  0.35620611  0.76811438  0.02528663  1  0  0.09448  0  0.972222  0  0  0.092523  0  1.050934  0  0  0.096512  0  1.047813  0  0  0.112834  0.089754  0  1.052981  0
H  H6  1  0.14379727  0.26811544  0.02528670  1  0  0.094507  0  0.972208  0  0  0.092535  0  1.050916  0  0  0.096521  0  1.047798  0  0  0.112848  0.089764  0  1.052966  0
H  H7  1  0.64380071  0.23188429  0.97471055  1  0  0.094511  0  0.972219  0  0  0.092541  0  1.050907  0  0  0.09653  0  1.047786  0  0  0.112846  0.089771  0  1.052958  0
H  H8  1  0.09697962  0.67268143  0.10878949  1  0  0.102043  0  0.950688  0  0  0.107643  0  1.016213  0  0  0.110889  0  1.013553  0  0  0.122686  0.105282  0  1.018203  0
H  H9  1  0.59698460  0.82731766  0.89120979  1  0  0.101989  0  0.950689  0  0  0.107588  0  1.016236  0  0  0.11083  0  1.013577  0  0  0.122675  0.105225  0  1.018224  0
H  H10  1  0.90302081  0.32731613  0.89121209  1  0  0.102019  0  0.950752  0  0  0.107622  0  1.016289  0  0  0.110868  0  1.01363  0  0  0.122672  0.105256  0  1.018282  0
H  H11  1  0.40301710  0.17267964  0.10878227  1  0  0.102004  0  0.950728  0  0  0.107592  0  1.016296  0  0  0.110835  0  1.013637  0  0  0.122677  0.10523  0  1.018285  0
C  C12  1  0.76819391  0.62235260  0.28187302  1  0  0.068904  0  3.660778  0  0  0.066158  0  3.8993  0  0  0.066775  0  3.916628  0  0  0.127553  0.065388  0  3.88802  0
C  C13  1  0.26819557  0.87764724  0.71812817  1  0  0.06893  0  3.660935  0  0  0.066208  0  3.899373  0  0  0.066832  0  3.916693  0  0  0.127586  0.065441  0  3.888083  0
C  C14  1  0.23180395  0.37764615  0.71812702  1  0  0.068916  0  3.66085  0  0  0.066165  0  3.899349  0  0  0.06679  0  3.916663  0  0  0.127554  0.065396  0  3.888063  0
C  C15  1  0.73180358  0.12235760  0.28187177  1  0  0.068928  0  3.66096  0  0  0.066171  0  3.899407  0  0  0.066796  0  3.916719  0  0  0.127542  0.065397  0  3.888131  0
C  C16  1  0.63432632  0.65338529  0.20613837  1  0  0.062147  0  3.694172  0  0  0.064003  0  3.94491  0  0  0.062282  0  3.960752  0  0  0.127193  0.064789  0  3.934867  0
C  C17  1  0.13433244  0.84660850  0.79385910  1  0  0.062184  0  3.694203  0  0  0.064043  0  3.944918  0  0  0.062317  0  3.960756  0  0  0.127194  0.064835  0  3.934871  0
C  C18  1  0.36567283  0.34661349  0.79386262  1  0  0.062124  0  3.694203  0  0  0.063997  0  3.944922  0  0  0.062274  0  3.960762  0  0  0.127199  0.064787  0  3.934873  0
C  C19  1  0.86566799  0.15339267  0.20614071  1  0  0.062182  0  3.69415  0  0  0.064048  0  3.944867  0  0  0.062323  0  3.960706  0  0  0.127173  0.064832  0  3.934833  0
C  C20  1  0.82921180  0.69877551  0.06235477  1  0  0.077616  0  3.66728  0  0  0.052821  0  3.937278  0  0  0.053854  0  3.952439  0  0  0.053451  0.052094  0  3.927102  0
C  C21  1  0.32921785  0.80122493  0.93764714  1  0  0.07765  0  3.667152  0  0  0.052831  0  3.937152  0  0  0.053864  0  3.952311  0  0  0.053447  0.052102  0  3.926984  0
C  C22  1  0.17078863  0.30122574  0.93764789  1  0  0.077667  0  3.667148  0  0  0.052911  0  3.937116  0  0  0.053944  0  3.952281  0  0  0.053508  0.052189  0  3.926941  0
C  C23  1  0.67078386  0.19877499  0.06235136  1  0  0.077564  0  3.667201  0  0  0.052851  0  3.937093  0  0  0.053884  0  3.952253  0  0  0.053451  0.052123  0  3.926926  0
C  C24  1  0.96345197  0.66433697  0.13455060  1  0  0.108722  0  3.661367  0  0  0.073124  0  3.92461  0  0  0.078613  0  3.939507  0  0  0.060699  0.069177  0  3.914825  0
C  C25  1  0.46345093  0.83566329  0.86545036  1  0  0.1088  0  3.661429  0  0  0.073213  0  3.924667  0  0  0.078704  0  3.939572  0  0  0.060729  0.069266  0  3.914876  0
C  C26  1  0.03654590  0.33566300  0.86544980  1  0  0.108731  0  3.661321  0  0  0.073078  0  3.924606  0  0  0.078566  0  3.939506  0  0  0.06068  0.069134  0  3.914815  0
C  C27  1  0.53654822  0.16433906  0.13454790  1  0  0.108817  0  3.661311  0  0  0.073167  0  3.924578  0  0  0.078658  0  3.939485  0  0  0.060727  0.069218  0  3.914788  0
C  C28  1  0.44810190  0.64266940  0.24064954  1  0  0.647612  0  3.912885  0  0  0.588449  0  4.215886  0  0  0.624648  0  4.206806  0  0  0.213766  0.563622  0  4.221561  0
C  C29  1  0.94810821  0.85732720  0.75934573  1  0  0.647559  0  3.913086  0  0  0.588363  0  4.216137  0  0  0.624581  0  4.207031  0  0  0.213712  0.563535  0  4.221808  0
C  C30  1  0.55189725  0.35732932  0.75934955  1  0  0.647628  0  3.912961  0  0  0.588433  0  4.215995  0  0  0.624635  0  4.206913  0  0  0.213759  0.56361  0  4.221663  0
C  C31  1  0.05189222  0.14267031  0.24065394  1  0  0.647491  0  3.913176  0  0  0.588305  0  4.216191  0  0  0.624519  0  4.207098  0  0  0.213637  0.563478  0  4.221866  0
C  C32  1  0.74139608  0.59971137  0.41528247  1  0  0.665892  0  3.882936  0  0  0.609138  0  4.180014  0  0  0.645206  0  4.170578  0  0  0.218983  0.584426  0  4.185749  0
C  C33  1  0.24141193  0.90030232  0.58472486  1  0  0.665808  0  3.882785  0  0  0.609131  0  4.179691  0  0  0.645198  0  4.170254  0  0  0.218964  0.584409  0  4.185436  0
C  C34  1  0.25860691  0.40028492  0.58471684  1  0  0.665914  0  3.883065  0  0  0.609183  0  4.180092  0  0  0.645248  0  4.170656  0  0  0.219007  0.58446  0  4.185841  0
C  C35  1  0.75858466  0.09970126  0.41527377  1  0  0.665673  0  3.882929  0  0  0.609058  0  4.179749  0  0  0.645126  0  4.170314  0  0  0.218975  0.584343  0  4.185484  0
N  N36  1  0.93155532  0.62300144  0.24171957  1  0  -0.296325  0  3.23026  0  0  -0.231198  0  3.494748  0  0  -0.246345  0  3.51036  0  0  -0.300164  -0.22054  0  3.484052  0
N  N37  1  0.43156034  0.87699799  0.75828325  1  0  -0.296361  0  3.230249  0  0  -0.231279  0  3.494774  0  0  -0.246424  0  3.510371  0  0  -0.300196  -0.220623  0  3.484073  0
N  N38  1  0.06844383  0.37699733  0.75828142  1  0  -0.296339  0  3.230331  0  0  -0.231203  0  3.494848  0  0  -0.246347  0  3.510448  0  0  -0.300193  -0.220548  0  3.484148  0
N  N39  1  0.56843880  0.12300439  0.24171597  1  0  -0.296341  0  3.230217  0  0  -0.231257  0  3.494783  0  0  -0.2464  0  3.510373  0  0  -0.300192  -0.220596  0  3.484079  0
N  N40  1  0.66547664  0.69106176  0.09658464  1  0  -0.25029  0  3.02797  0  0  -0.224793  0  3.293935  0  0  -0.230875  0  3.309405  0  0  -0.288343  -0.22051  0  3.283689  0
N  N41  1  0.16547663  0.80893173  0.90341347  1  0  -0.250314  0  3.027699  0  0  -0.224808  0  3.293658  0  0  -0.230892  0  3.309129  0  0  -0.288349  -0.220536  0  3.283428  0
N  N42  1  0.33452507  0.30893701  0.90341634  1  0  -0.250277  0  3.027977  0  0  -0.224796  0  3.293927  0  0  -0.230878  0  3.309398  0  0  -0.288359  -0.22052  0  3.283687  0
N  N43  1  0.83452379  0.19106819  0.09658502  1  0  -0.250257  0  3.02779  0  0  -0.224785  0  3.293709  0  0  -0.230871  0  3.309183  0  0  -0.288313  -0.220505  0  3.283472  0
O  O44  1  0.84435640  0.49764159  0.43615542  1  0  -0.667862  0  2.102786  0  0  -0.58869  0  2.366547  0  0  -0.622699  0  2.356774  0  0  -0.317293  -0.564676  0  2.3725  0
O  O45  1  0.34435120  0.00236608  0.56385038  1  0  -0.667767  0  2.103054  0  0  -0.588624  0  2.366766  0  0  -0.622627  0  2.35699  0  0  -0.317264  -0.564609  0  2.372714  0
O  O46  1  0.15564402  0.50235842  0.56384593  1  0  -0.667842  0  2.102769  0  0  -0.588668  0  2.366505  0  0  -0.622688  0  2.356755  0  0  -0.317247  -0.56465  0  2.37246  0
O  O47  1  0.65564538  0.99763999  0.43614992  1  0  -0.667692  0  2.103247  0  0  -0.588563  0  2.366917  0  0  -0.622562  0  2.35713  0  0  -0.317219  -0.564549  0  2.372858  0
O  O48  1  0.34731137  0.75391243  0.23655423  1  0  -0.65288  0  2.0677  0  0  -0.587897  0  2.334662  0  0  -0.61655  0  2.320124  0  0  -0.319467  -0.567071  0  2.343469  0
O  O49  1  0.84731720  0.74608048  0.76344628  1  0  -0.652809  0  2.067733  0  0  -0.587822  0  2.334743  0  0  -0.616466  0  2.320152  0  0  -0.319351  -0.567  0  2.343552  0
O  O50  1  0.65268649  0.24608634  0.76344676  1  0  -0.652919  0  2.067785  0  0  -0.587915  0  2.334753  0  0  -0.616567  0  2.320208  0  0  -0.319462  -0.567091  0  2.343554  0
O  O51  1  0.15268707  0.25391709  0.23655530  1  0  -0.652847  0  2.067715  0  0  -0.58787  0  2.334737  0  0  -0.616497  0  2.320112  0  0  -0.319373  -0.567047  0  2.343549  0
O  O52  1  0.40398526  0.51822378  0.26650696  1  0  -0.600132  0  2.013882  0  0  -0.532967  0  2.265834  0  0  -0.564339  0  2.256556  0  0  -0.304105  -0.511049  0  2.271788  0
O  O53  1  0.90399220  0.98176344  0.73348490  1  0  -0.600088  0  2.013949  0  0  -0.532965  0  2.266007  0  0  -0.56434  0  2.256721  0  0  -0.30414  -0.511046  0  2.271951  0
O  O54  1  0.59601517  0.48177374  0.73349272  1  0  -0.600122  0  2.013885  0  0  -0.532959  0  2.265869  0  0  -0.564329  0  2.25659  0  0  -0.304109  -0.511047  0  2.271821  0
O  O55  1  0.09600438  0.01823408  0.26651478  1  0  -0.600002  0  2.014017  0  0  -0.532882  0  2.266067  0  0  -0.564256  0  2.256784  0  0  -0.304056  -0.510962  0  2.272014  0
O  O56  1  0.62886445  0.68318813  0.49563895  1  0  -0.604112  0  2.009072  0  0  -0.548833  0  2.260224  0  0  -0.575821  0  2.24853  0  0  -0.310308  -0.529642  0  2.26774  0
O  O57  1  0.12886908  0.81681053  0.50435621  1  0  -0.604187  0  2.008572  0  0  -0.548932  0  2.259666  0  0  -0.575925  0  2.247978  0  0  -0.310351  -0.529738  0  2.267184  0
O  O58  1  0.37113470  0.31681564  0.50436634  1  0  -0.604149  0  2.0092  0  0  -0.548876  0  2.260337  0  0  -0.575862  0  2.248646  0  0  -0.310366  -0.529683  0  2.267854  0
O  O59  1  0.87113263  0.18319311  0.49564432  1  0  -0.604162  0  2.008545  0  0  -0.548917  0  2.259596  0  0  -0.575913  0  2.247909  0  0  -0.310394  -0.529725  0  2.267112  0
