# generated using pymatgen
data_Zn2H11C27N9(ClO)2
_symmetry_space_group_name_H-M   'P 1'
_cell_length_a   19.56774703
_cell_length_b   19.56648519
_cell_length_c   19.46420208
_cell_angle_alpha   111.37379493
_cell_angle_beta   111.36504597
_cell_angle_gamma   105.22809833
_symmetry_Int_Tables_number   1
_chemical_formula_structural   Zn2H11C27N9(ClO)2
_chemical_formula_sum   'Zn4 H22 C54 N18 Cl4 O4'
_cell_volume   5751.87309257
_cell_formula_units_Z   2
loop_
 _symmetry_equiv_pos_site_id
 _symmetry_equiv_pos_as_xyz
  1  'x, y, z'
loop_
 _atom_site_type_symbol
 _atom_site_label
 _atom_site_symmetry_multiplicity
 _atom_site_fract_x
 _atom_site_fract_y
 _atom_site_fract_z
 _atom_site_occupancy
 _atom_site_pbe_bader_charge
 _atom_site_pbe_bader_spin_density
 _atom_site_pbe_cm5_charge
 _atom_site_pbe_ddec_charge
 _atom_site_pbe_ddec_spin_density
 _atom_site_pbe_ddec_sum_bond_order
 _atom_site_pbe_magmom
C  C0  1  0.50552760  0.24257476  0.89989688  1  0.479132  0  0.029242  -0.02683  0  3.935962  0
C  C1  1  0.24265081  0.50567897  0.89987142  1  0.484953  0  0.029163  -0.026187  0  3.93613  0
C  C2  1  0.29611892  0.49724523  0.01693651  1  0.405686  0  0.017597  -0.036872  0  3.929897  0
C  C3  1  0.49708290  0.29611910  0.01695531  1  0.4223  0  0.017212  -0.037523  0  3.930637  0
C  C4  1  0.57412311  0.50360480  0.24344171  1  0.61971  0  0.117618  0.183758  0  4.101553  0
C  C5  1  0.50363029  0.57425734  0.24346499  1  0.622532  0  0.117355  0.183656  0  4.101952  0
C  C6  1  0.28011612  0.35153214  0.77234755  1  0.477508  0  0.022609  -0.033909  0  3.916419  0
C  C7  1  0.35151847  0.28007699  0.77233320  1  0.476387  0  0.022567  -0.033562  0  3.916295  0
C  C8  1  0.49233218  0.22347105  0.95910624  1  0.127673  0  -0.025476  0.031691  0  4.197707  0
C  C9  1  0.22351393  0.49255292  0.95909538  1  0.127992  0  -0.025808  0.031225  0  4.196864  0
C  C10  1  0.55036318  0.55043225  0.29646114  1  0.166913  0  -0.032186  -0.082797  0  4.197797  0
C  C11  1  0.27102839  0.27101814  0.73177378  1  0.070522  0  -0.024899  0.040254  0  4.180176  0
C  C12  1  0.56380416  0.49253065  0.78407170  1  0.458789  0  0.022046  -0.041  0  3.952452  0
C  C13  1  0.49264048  0.56373306  0.78405492  1  0.45759  0  0.022212  -0.040793  0  3.951439  0
C  C14  1  0.64378658  0.71511950  0.15958338  1  0.432837  0  0.018528  -0.034202  0  3.912979  0
C  C15  1  0.71515656  0.64376966  0.15975691  1  0.433339  0  0.018407  -0.033332  0  3.912785  0
C  C16  1  0.75350246  0.47340229  0.07338854  1  0.451883  0  0.02702  -0.034412  0  3.93515  0
C  C17  1  0.47339160  0.75348015  0.07331469  1  0.435793  0  0.027258  -0.034327  0  3.93461  0
C  C18  1  0.48411407  0.70831416  0.95702888  1  0.417298  0  0.020029  -0.034981  0  3.937851  0
C  C19  1  0.70833444  0.48413748  0.95712236  1  0.410757  0  0.020111  -0.034268  0  3.938193  0
C  C20  1  0.54454051  0.54443196  0.75396222  1  0.110806  0  -0.02494  0.032997  0  4.214845  0
C  C21  1  0.72501284  0.72499818  0.19192223  1  0.089183  0  -0.027094  0.04466  0  4.179275  0
C  C22  1  0.77732166  0.48507093  0.01630321  1  0.135285  0  -0.026141  0.03176  0  4.204853  0
C  C23  1  0.48502574  0.77729202  0.01621670  1  0.13255  0  -0.026152  0.032412  0  4.203574  0
C  C24  1  0.98462358  0.06235035  0.51979074  1  0.215546  0  0.016763  -0.022374  0  3.683378  0
C  C25  1  0.06236460  0.98461066  0.51979676  1  0.214567  0  0.016927  -0.02196  0  3.683252  0
C  C26  1  0.99109066  0.90967017  0.43311251  1  -0.041117  0  -0.15373  -0.237813  0  3.82719  0
C  C27  1  0.90968598  0.99108654  0.43310607  1  -0.041384  0  -0.153641  -0.237523  0  3.826829  0
C  C28  1  0.79903238  0.79902634  0.24998576  1  -0.44132  0  -0.050077  -0.083986  0  4.157528  0
C  C29  1  0.06616009  0.06614752  0.52157518  1  0.088632  0  0.016058  0.15143  0  3.858052  0
C  C30  1  0.93594173  0.93592393  0.37820986  1  0.133064  0  -0.000287  0.128222  0  3.889392  0
C  C31  1  0.98918908  0.98916434  0.35615602  1  0.214972  0  0.067871  0.232236  0  3.692879  0
C  C32  1  0.06494075  0.06492449  0.44081113  1  -0.025843  0  -0.163828  -0.300981  0  3.803494  0
C  C33  1  0.86263220  0.86261726  0.30346854  1  0.15008  0  -0.063081  -0.134676  0  4.111401  0
C  C34  1  0.13794497  0.13793972  0.59908422  1  0.188406  0  -0.069558  -0.169036  0  4.099944  0
C  C35  1  0.19914089  0.19913809  0.66199628  1  -0.479027  0  -0.034692  -0.042454  0  4.137883  0
C  C36  1  0.15225159  0.48417033  0.96357397  1  -0.398356  0  -0.025755  -0.0566  0  4.069869  0
C  C37  1  0.48389590  0.15221690  0.96361271  1  -0.401975  0  -0.025134  -0.055821  0  4.072096  0
C  C38  1  0.09239488  0.48299301  0.97148118  1  0.230784  0  -0.046583  -0.062399  0  4.331584  0
C  C39  1  0.48268621  0.09233060  0.97146526  1  0.220738  0  -0.046795  -0.062362  0  4.333452  0
C  C40  1  0.02878896  0.48462090  0.98212161  1  -0.143296  0  -0.025406  -0.012178  0  4.247702  0
C  C41  1  0.48433660  0.02870544  0.98204654  1  -0.131084  0  -0.025727  -0.013221  0  4.248904  0
C  C42  1  0.97116514  0.48793140  0.99333080  1  0.060802  0  -0.028968  -0.024231  0  4.251287  0
C  C43  1  0.48774091  0.97109526  0.99324084  1  0.05293  0  -0.029052  -0.024007  0  4.251393  0
C  C44  1  0.90795012  0.49025499  0.00445747  1  -0.045562  0  -0.046461  -0.05413  0  4.33708  0
C  C45  1  0.49013421  0.90790294  0.00437027  1  -0.04372  0  -0.045786  -0.052923  0  4.336298  0
C  C46  1  0.84888040  0.49048124  0.01342227  1  -0.18247  0  -0.03  -0.068207  0  4.080306  0
C  C47  1  0.49039314  0.84883158  0.01331534  1  -0.180472  0  -0.030363  -0.069178  0  4.080208  0
C  C48  1  0.56650570  0.56635167  0.70153299  1  -0.387663  0  -0.020951  -0.052868  0  4.070452  0
C  C49  1  0.58077483  0.58056299  0.65029875  1  0.207642  0  -0.04266  -0.058154  0  4.324579  0
C  C50  1  0.58850741  0.58827981  0.58758071  1  -0.079453  0  -0.018792  -0.004241  0  4.239005  0
C  C51  1  0.58845420  0.58827818  0.52404717  1  0.05265  0  -0.024334  -0.021242  0  4.23537  0
C  C52  1  0.58066352  0.58059483  0.45001895  1  0.114832  0  -0.036369  -0.039743  0  4.310729  0
C  C53  1  0.56781826  0.56786634  0.37869224  1  -0.288551  0  -0.036686  -0.051434  0  4.114717  0
Cl  Cl54  1  0.92853246  0.02099579  0.29206589  1  -0.196086  0  -0.033477  -0.11995  0  1.396269  0
Cl  Cl55  1  0.02102495  0.92849573  0.29207596  1  -0.194765  0  -0.033472  -0.119894  0  1.396397  0
Cl  Cl56  1  0.63315862  0.45595471  0.26606756  1  -0.173475  0  0.02911  -0.044016  0  1.469735  0
Cl  Cl57  1  0.45609253  0.63341886  0.26611075  1  -0.175868  0  0.028986  -0.044104  0  1.469851  0
H  H58  1  0.50616884  0.20352773  0.84391800  1  0.095582  0  0.129975  0.121085  0  0.972456  0
H  H59  1  0.20364024  0.50634499  0.84390393  1  0.093846  0  0.130052  0.120744  0  0.973119  0
H  H60  1  0.30943202  0.49162083  0.07331223  1  0.131022  0  0.120918  0.115397  0  0.997855  0
H  H61  1  0.49142882  0.30942858  0.07331412  1  0.124791  0  0.1209  0.115349  0  0.998134  0
H  H62  1  0.23310898  0.37241381  0.76216512  1  0.103383  0  0.12562  0.117009  0  0.998329  0
H  H63  1  0.37238580  0.23305404  0.76215124  1  0.105025  0  0.125545  0.116856  0  0.998466  0
H  H64  1  0.60137582  0.46223411  0.77412813  1  0.098576  0  0.127049  0.115852  0  0.989576  0
H  H65  1  0.46238339  0.60133221  0.77410826  1  0.102243  0  0.127039  0.115869  0  0.989389  0
H  H66  1  0.62252363  0.76182753  0.16768593  1  0.103881  0  0.122015  0.113389  0  1.010002  0
H  H67  1  0.76188330  0.62253331  0.16800808  1  0.103793  0  0.121917  0.113077  0  1.01037  0
H  H68  1  0.78833750  0.47094100  0.12966563  1  0.115186  0  0.129421  0.121763  0  0.974431  0
H  H69  1  0.47094102  0.78832234  0.12960278  1  0.116579  0  0.129395  0.121631  0  0.97442  0
H  H70  1  0.49217013  0.70029115  0.90281936  1  0.105123  0  0.121935  0.110436  0  1.009747  0
H  H71  1  0.70029613  0.49221087  0.90292192  1  0.108218  0  0.121796  0.110214  0  1.010277  0
H  H72  1  0.86694691  0.95240276  0.44307398  1  0.069799  0  0.108248  0.126447  0  0.951609  0
H  H73  1  0.95240187  0.86694266  0.44308652  1  0.069398  0  0.108213  0.126422  0  0.95163  0
H  H74  1  0.98572340  0.05714790  0.57427552  1  0.08933  0  0.127598  0.098555  0  0.953292  0
H  H75  1  0.05716217  0.98571844  0.57428426  1  0.089709  0  0.127538  0.098461  0  0.953298  0
H  H76  1  0.01523348  0.87680014  0.39705071  1  0.106441  0  0.10434  0.123312  0  1.00157  0
H  H77  1  0.87682716  0.01523248  0.39704528  1  0.106247  0  0.104339  0.123256  0  1.001432  0
H  H78  1  0.06472820  0.12167173  0.44328821  1  0.102205  0  0.106065  0.142631  0  0.978382  0
H  H79  1  0.12168519  0.06470807  0.44329459  1  0.102633  0  0.106043  0.142531  0  0.978438  0
N  N80  1  0.51830004  0.31984823  0.92198279  1  -0.78693  0  -0.26356  -0.186594  0  3.539563  0
N  N81  1  0.31988561  0.51834549  0.92192896  1  -0.787725  0  -0.263506  -0.186919  0  3.539715  0
N  N82  1  0.35319212  0.51280803  0.99395875  1  -0.808707  0  -0.289849  -0.215562  0  3.607254  0
N  N83  1  0.51275602  0.35320038  0.99400692  1  -0.810365  0  -0.289899  -0.215576  0  3.607492  0
N  N84  1  0.54473163  0.50041102  0.16781726  1  -0.840173  0  -0.265535  -0.223208  0  3.486571  0
N  N85  1  0.50042895  0.54481696  0.16783130  1  -0.711239  0  -0.265364  -0.223119  0  3.486697  0
N  N86  1  0.36027518  0.40392443  0.83077309  1  -0.868437  0  -0.276435  -0.182541  0  3.636266  0
N  N87  1  0.40392520  0.36024295  0.83076459  1  -0.731708  0  -0.276403  -0.18307  0  3.636045  0
N  N88  1  0.52626952  0.48191802  0.82761115  1  -0.729266  0  -0.26239  -0.179574  0  3.522517  0
N  N89  1  0.48199686  0.52621436  0.82760001  1  -0.858812  0  -0.262152  -0.1793  0  3.522101  0
N  N90  1  0.59054407  0.63416985  0.11326122  1  -0.851919  0  -0.280888  -0.188327  0  3.640835  0
N  N91  1  0.63422193  0.59051173  0.11336516  1  -0.723684  0  -0.281236  -0.189488  0  3.641751  0
N  N92  1  0.67684095  0.46490287  0.04869624  1  -0.79377  0  -0.265629  -0.181195  0  3.545332  0
N  N93  1  0.46494521  0.67682892  0.04863126  1  -0.776778  0  -0.265443  -0.180771  0  3.545004  0
N  N94  1  0.47155841  0.64883582  0.97686123  1  -0.805055  0  -0.283568  -0.211541  0  3.62828  0
N  N95  1  0.64884732  0.47152648  0.97693629  1  -0.803177  0  -0.283212  -0.211546  0  3.628405  0
N  N96  1  0.14533707  0.98457432  0.54004907  1  0.457952  0  0.048969  0.528648  0  4.147726  0
N  N97  1  0.98459319  0.14532825  0.54004844  1  0.45816  0  0.048892  0.528751  0  4.147744  0
O  O98  1  0.19005626  0.00076640  0.61359171  1  -0.44202  0  -0.137582  -0.337782  0  1.866172  0
O  O99  1  0.16285478  0.97033973  0.48303527  1  -0.467638  0  -0.13097  -0.328137  0  1.914198  0
O  O100  1  0.00077028  0.19004486  0.61359158  1  -0.442733  0  -0.137603  -0.337845  0  1.866168  0
O  O101  1  0.97036485  0.16284991  0.48304051  1  -0.467382  0  -0.130899  -0.328094  0  1.91422  0
Zn  Zn102  1  0.52727616  0.41162057  0.88639099  1  1.205661  0  0.75588  0.664605  0  2.274088  0
Zn  Zn103  1  0.41167487  0.52726503  0.88635637  1  1.206667  0  0.755929  0.664411  0  2.274456  0
Zn  Zn104  1  0.47255441  0.58872310  0.08421021  1  1.197043  0  0.743009  0.637766  0  2.38776  0
Zn  Zn105  1  0.58870540  0.47252461  0.08425459  1  1.197449  0  0.743155  0.638121  0  2.388176  0
