# generated using pymatgen
data_AgB6H14(C6N)2
_symmetry_space_group_name_H-M   'P 1'
_cell_length_a   11.26184020
_cell_length_b   13.55503645
_cell_length_c   22.18332809
_cell_angle_alpha   89.99994951
_cell_angle_beta   90.00007606
_cell_angle_gamma   114.65273465
_symmetry_Int_Tables_number   1
_chemical_formula_structural   AgB6H14(C6N)2
_chemical_formula_sum   'Ag8 B48 H112 C96 N16'
_cell_volume   3077.72773307
_cell_formula_units_Z   8
loop_
 _symmetry_equiv_pos_site_id
 _symmetry_equiv_pos_as_xyz
  1  'x, y, z'
loop_
 _atom_site_type_symbol
 _atom_site_label
 _atom_site_symmetry_multiplicity
 _atom_site_fract_x
 _atom_site_fract_y
 _atom_site_fract_z
 _atom_site_occupancy
 _atom_site_pbe_bader_charge
 _atom_site_pbe_bader_spin_density
 _atom_site_pbe_cm5_charge
 _atom_site_pbe_ddec_charge
 _atom_site_pbe_ddec_spin_density
 _atom_site_pbe_ddec_sum_bond_order
 _atom_site_pbe_magmom
Ag  Ag0  1  0.50501234  0.25628457  0.64293789  1  0.540631  0  0.554499  0.41492  0  2.008589  0
Ag  Ag1  1  0.99498827  0.24371616  0.14293734  1  0.5407  0  0.554494  0.414942  0  2.008569  0
Ag  Ag2  1  0.49498731  0.74371583  0.35706271  1  0.540629  0  0.554479  0.414907  0  2.008598  0
Ag  Ag3  1  0.00501187  0.75628343  0.85706236  1  0.540609  0  0.554477  0.414907  0  2.00863  0
Ag  Ag4  1  0.02715190  0.73286740  0.65111131  1  0.554732  0  0.575278  0.428189  0  1.949085  0
Ag  Ag5  1  0.47284851  0.76713361  0.15111118  1  0.554729  0  0.575267  0.428168  0  1.9491  0
Ag  Ag6  1  0.97284736  0.26713218  0.34888884  1  0.554826  0  0.575271  0.428185  0  1.949137  0
Ag  Ag7  1  0.52715203  0.23286679  0.84888852  1  0.55473  0  0.57528  0.428188  0  1.949131  0
B  B8  1  0.68991231  0.37690540  0.71481127  1  0.340516  0  -0.197429  -0.044905  0  3.591183  0
B  B9  1  0.81008718  0.12309447  0.21481111  1  0.340508  0  -0.197433  -0.044934  0  3.591247  0
B  B10  1  0.31008694  0.62309419  0.28518889  1  0.340501  0  -0.197445  -0.044971  0  3.591263  0
B  B11  1  0.18991337  0.87690593  0.78518905  1  0.340388  0  -0.197436  -0.044987  0  3.591329  0
B  B12  1  0.85944312  0.44248955  0.73054339  1  0.501852  0  -0.165173  -0.001946  0  3.571614  0
B  B13  1  0.64055729  0.05751030  0.23054315  1  0.501852  0  -0.16516  -0.001896  0  3.571556  0
B  B14  1  0.14055613  0.55751003  0.26945676  1  0.501848  0  -0.16518  -0.001937  0  3.571595  0
B  B15  1  0.35944414  0.94249010  0.76945700  1  0.502026  0  -0.165188  -0.001965  0  3.571624  0
B  B16  1  0.78841895  0.49770524  0.67597264  1  0.473186  0  -0.189366  -0.055901  0  3.636727  0
B  B17  1  0.71158133  0.00229466  0.17597293  1  0.473247  0  -0.189366  -0.055908  0  3.636684  0
B  B18  1  0.21158119  0.50229435  0.32402706  1  0.47318  0  -0.189367  -0.055882  0  3.636705  0
B  B19  1  0.28841921  0.99770574  0.82402722  1  0.473162  0  -0.189371  -0.055886  0  3.636687  0
B  B20  1  0.63041565  0.47771224  0.70168470  1  0.474419  0  -0.184431  -0.033459  0  3.610681  0
B  B21  1  0.86958421  0.02228844  0.20168508  1  0.474433  0  -0.184406  -0.033397  0  3.61057  0
B  B22  1  0.36958360  0.52228734  0.29831501  1  0.47442  0  -0.184424  -0.033452  0  3.610659  0
B  B23  1  0.13041634  0.97771196  0.79831552  1  0.474424  0  -0.184425  -0.033421  0  3.610639  0
B  B24  1  0.60325123  0.41021912  0.77244776  1  0.435889  0  -0.198732  -0.054163  0  3.607698  0
B  B25  1  0.89674878  0.08978152  0.27244813  1  0.435885  0  -0.198763  -0.05427  0  3.607847  0
B  B26  1  0.39674842  0.58978128  0.22755240  1  0.435893  0  -0.19871  -0.054146  0  3.607675  0
B  B27  1  0.10325047  0.91021806  0.72755203  1  0.439883  0  -0.198726  -0.054192  0  3.607727  0
B  B28  1  0.74457004  0.38854514  0.79038966  1  0.423826  0  -0.192043  -0.039083  0  3.603919  0
B  B29  1  0.75542921  0.11145386  0.29038947  1  0.423636  0  -0.192019  -0.039026  0  3.603904  0
B  B30  1  0.25542921  0.61145444  0.20961004  1  0.423824  0  -0.192033  -0.039063  0  3.603905  0
B  B31  1  0.24457093  0.88854573  0.70961023  1  0.423701  0  -0.192043  -0.039086  0  3.603901  0
B  B32  1  0.90448881  0.58414751  0.72821324  1  0.346508  0  -0.198695  -0.049782  0  3.595684  0
B  B33  1  0.59551034  0.91585205  0.22821323  1  0.346513  0  -0.198699  -0.049772  0  3.59567  0
B  B34  1  0.09551174  0.41585289  0.27178691  1  0.346501  0  -0.198695  -0.04981  0  3.595751  0
B  B35  1  0.40448802  0.08414753  0.77178692  1  0.346497  0  -0.198685  -0.049787  0  3.595752  0
B  B36  1  0.76370852  0.60660313  0.71018884  1  0.495585  0  -0.185448  -0.038504  0  3.609678  0
B  B37  1  0.73629148  0.89339645  0.21018894  1  0.495605  0  -0.185464  -0.038511  0  3.609637  0
B  B38  1  0.23629114  0.39339727  0.28981086  1  0.495569  0  -0.185446  -0.038528  0  3.609698  0
B  B39  1  0.26370826  0.10660233  0.78981122  1  0.495573  0  -0.185445  -0.038529  0  3.609738  0
B  B40  1  0.64888674  0.55179512  0.77008966  1  0.503479  0  -0.165747  -0.002676  0  3.572325  0
B  B41  1  0.85111379  0.94820523  0.27009025  1  0.503486  0  -0.165744  -0.002652  0  3.572227  0
B  B42  1  0.35111291  0.44820528  0.22991050  1  0.503476  0  -0.165746  -0.002693  0  3.572341  0
B  B43  1  0.14888635  0.05179436  0.72991035  1  0.499622  0  -0.165743  -0.002668  0  3.572388  0
B  B44  1  0.72033359  0.49721880  0.82468791  1  0.474528  0  -0.18387  -0.043605  0  3.615633  0
B  B45  1  0.77966654  0.00278181  0.32468824  1  0.474518  0  -0.183868  -0.043569  0  3.615692  0
B  B46  1  0.27966606  0.50278160  0.17531225  1  0.474528  0  -0.183841  -0.04351  0  3.6156  0
B  B47  1  0.22033311  0.99721859  0.67531191  1  0.474525  0  -0.183862  -0.043577  0  3.615628  0
B  B48  1  0.87854601  0.51734160  0.79904888  1  0.495004  0  -0.177146  -0.028509  0  3.600252  0
B  B49  1  0.62145460  0.98265872  0.29904885  1  0.495007  0  -0.177173  -0.028607  0  3.600363  0
B  B50  1  0.12145414  0.48265798  0.20095127  1  0.495002  0  -0.177159  -0.028585  0  3.600314  0
B  B51  1  0.37854506  0.01734167  0.70095130  1  0.494957  0  -0.177135  -0.028476  0  3.600262  0
B  B52  1  0.81840324  0.61779454  0.78570503  1  0.354467  0  -0.18702  -0.040453  0  3.5808  0
B  B53  1  0.68159653  0.88220418  0.28570509  1  0.354472  0  -0.187039  -0.040546  0  3.58091  0
B  B54  1  0.18159650  0.38220424  0.21429513  1  0.354463  0  -0.187033  -0.040445  0  3.580758  0
B  B55  1  0.31840272  0.11779541  0.71429506  1  0.354469  0  -0.187028  -0.040485  0  3.580809  0
H  H56  1  0.64445405  0.10150411  0.59367261  1  0.086306  0  0.117213  0.083922  0  0.986306  0
H  H57  1  0.85554734  0.39849665  0.09367233  1  0.086321  0  0.11723  0.083945  0  0.98636  0
H  H58  1  0.35554600  0.89849709  0.40632755  1  0.086294  0  0.117243  0.083976  0  0.986379  0
H  H59  1  0.14445369  0.60150294  0.90632737  1  0.086297  0  0.117228  0.083928  0  0.98632  0
H  H60  1  0.70943950  0.04560544  0.49551199  1  0.0758  0  0.104969  0.105976  0  1.033642  0
H  H61  1  0.79056103  0.45439505  0.99551172  1  0.075813  0  0.104953  0.105946  0  1.033639  0
H  H62  1  0.29056016  0.95439495  0.50448771  1  0.075787  0  0.10498  0.105994  0  1.033614  0
H  H63  1  0.20944000  0.54560454  0.00448798  1  0.07579  0  0.104979  0.105961  0  1.033633  0
H  H64  1  0.64738500  0.10623378  0.39903229  1  0.145859  0  0.119325  0.125222  0  1.025939  0
H  H65  1  0.85261490  0.39376596  0.89903210  1  0.145859  0  0.119322  0.125227  0  1.025929  0
H  H66  1  0.35261554  0.89376661  0.60096741  1  0.14586  0  0.119323  0.125198  0  1.025977  0
H  H67  1  0.14738435  0.60623362  0.10096760  1  0.145863  0  0.119331  0.125239  0  1.02593  0
H  H68  1  0.54074561  0.21161360  0.34717526  1  0.106092  0  0.116535  0.129604  0  0.977477  0
H  H69  1  0.95925378  0.28838536  0.84717475  1  0.106097  0  0.116529  0.129587  0  0.977509  0
H  H70  1  0.45925316  0.78838679  0.65282534  1  0.106116  0  0.116528  0.129597  0  0.977479  0
H  H71  1  0.04074685  0.71161342  0.15282450  1  0.106132  0  0.116537  0.129606  0  0.977469  0
H  H72  1  0.42076401  0.32991868  0.35347046  1  0.11223  0  0.116733  0.130422  0  1.000801  0
H  H73  1  0.07923424  0.17008006  0.85347021  1  0.112214  0  0.116741  0.130436  0  1.000797  0
H  H74  1  0.57923346  0.67008090  0.64652969  1  0.112241  0  0.116714  0.130425  0  1.0008  0
H  H75  1  0.92076679  0.82991953  0.14652905  1  0.112252  0  0.116711  0.130398  0  1.000809  0
H  H76  1  0.31903954  0.42669499  0.41587177  1  0.125121  0  0.120521  0.128281  0  1.009751  0
H  H77  1  0.18096153  0.07330372  0.91587118  1  0.125099  0  0.120533  0.128295  0  1.009662  0
H  H78  1  0.68095882  0.57330459  0.58412884  1  0.125132  0  0.120529  0.128303  0  1.009736  0
H  H79  1  0.81904040  0.92669587  0.08412852  1  0.125117  0  0.12053  0.128298  0  1.009718  0
H  H80  1  0.27307496  0.47910803  0.51937018  1  0.052937  0  0.10446  0.105903  0  1.017281  0
H  H81  1  0.22692350  0.02088932  0.01937002  1  0.052894  0  0.104465  0.105887  0  1.01729  0
H  H82  1  0.72692340  0.52089155  0.48062997  1  0.052942  0  0.104439  0.105863  0  1.017328  0
H  H83  1  0.77307584  0.97910865  0.98063013  1  0.052932  0  0.104466  0.105891  0  1.017292  0
H  H84  1  0.35272888  0.41457541  0.60960331  1  0.094273  0  0.119862  0.089262  0  0.97643  0
H  H85  1  0.14726979  0.08542188  0.10960306  1  0.094343  0  0.119878  0.089297  0  0.976388  0
H  H86  1  0.64726948  0.58542417  0.39039730  1  0.094288  0  0.119883  0.089289  0  0.976406  0
H  H87  1  0.85272906  0.91457689  0.89039665  1  0.094331  0  0.119862  0.089277  0  0.976417  0
H  H88  1  0.16082503  0.59821015  0.57175540  1  0.083271  0  0.116419  0.082764  0  0.978192  0
H  H89  1  0.33917529  0.90178930  0.07175556  1  0.083247  0  0.116437  0.082801  0  0.978205  0
H  H90  1  0.83917423  0.40178944  0.42824475  1  0.08328  0  0.116423  0.082794  0  0.978172  0
H  H91  1  0.66082704  0.09821110  0.92824414  1  0.083273  0  0.116424  0.082781  0  0.978137  0
H  H92  1  0.19269858  0.55903183  0.46323879  1  0.06861  0  0.106516  0.113633  0  1.023815  0
H  H93  1  0.30730214  0.94096817  0.96323900  1  0.068605  0  0.10651  0.113609  0  1.023837  0
H  H94  1  0.80730026  0.44096694  0.53676181  1  0.068602  0  0.106535  0.113656  0  1.023828  0
H  H95  1  0.69269801  0.05903141  0.03676116  1  0.068597  0  0.106506  0.113615  0  1.023829  0
H  H96  1  0.10317207  0.63395820  0.38212062  1  0.136436  0  0.119642  0.12494  0  1.009833  0
H  H97  1  0.39682708  0.86604265  0.88212002  1  0.136421  0  0.119637  0.124951  0  1.00983  0
H  H98  1  0.89682847  0.36604220  0.61787999  1  0.136422  0  0.119629  0.124924  0  1.009861  0
H  H99  1  0.60317217  0.13395693  0.11787968  1  0.136431  0  0.119644  0.124965  0  1.009814  0
H  H100  1  0.98211462  0.74557856  0.35287009  1  0.072596  0  0.112743  0.119899  0  0.98431  0
H  H101  1  0.51788432  0.75442172  0.85287020  1  0.072592  0  0.11275  0.11992  0  0.984269  0
H  H102  1  0.01788681  0.25442184  0.64713007  1  0.072586  0  0.112734  0.119898  0  0.984327  0
H  H103  1  0.48211453  0.24557705  0.14712951  1  0.072598  0  0.112749  0.11991  0  0.984303  0
H  H104  1  0.86788322  0.85974793  0.38255132  1  0.127126  0  0.116156  0.125306  0  1.021533  0
H  H105  1  0.63211579  0.64025234  0.88255156  1  0.127145  0  0.116174  0.125343  0  1.021527  0
H  H106  1  0.13211692  0.14025166  0.61744839  1  0.12713  0  0.116171  0.125318  0  1.021534  0
H  H107  1  0.36788306  0.35974643  0.11744859  1  0.127151  0  0.116175  0.125337  0  1.021502  0
H  H108  1  0.79045083  0.94498914  0.46284535  1  0.107669  0  0.108416  0.111908  0  1.017988  0
H  H109  1  0.70954966  0.55501188  0.96284660  1  0.107712  0  0.108422  0.111891  0  1.01802  0
H  H110  1  0.20954972  0.05501126  0.53715435  1  0.107686  0  0.108404  0.111876  0  1.018021  0
H  H111  1  0.29045088  0.44498852  0.03715401  1  0.107695  0  0.10841  0.111878  0  1.018024  0
H  H112  1  0.77713475  0.98162588  0.57438135  1  0.055266  0  0.107079  0.109239  0  1.007108  0
H  H113  1  0.72286534  0.51837460  0.07438254  1  0.055244  0  0.107097  0.109262  0  1.007049  0
H  H114  1  0.22286571  0.01837614  0.42561790  1  0.055228  0  0.107123  0.109324  0  1.007083  0
H  H115  1  0.27713480  0.48162499  0.92561761  1  0.055218  0  0.107091  0.10921  0  1.007117  0
H  H116  1  0.87661452  0.89865325  0.64841088  1  0.120432  0  0.126628  0.097815  0  0.974151  0
H  H117  1  0.62338267  0.60134635  0.14841105  1  0.120407  0  0.126682  0.097894  0  0.974137  0
H  H118  1  0.12338296  0.10134632  0.35158883  1  0.120418  0  0.12666  0.097854  0  0.97416  0
H  H119  1  0.37661569  0.39865323  0.85158865  1  0.120426  0  0.126666  0.097891  0  0.974153  0
H  H120  1  0.65360792  0.28488120  0.69307334  1  -0.508871  0  0.070861  -0.051281  0  1.09825  0
H  H121  1  0.84639241  0.21511868  0.19307315  1  -0.508943  0  0.070855  -0.051303  0  1.098267  0
H  H122  1  0.34639134  0.71511838  0.30692682  1  -0.508849  0  0.070863  -0.051279  0  1.09826  0
H  H123  1  0.15360773  0.78488091  0.80692700  1  -0.508851  0  0.070859  -0.051272  0  1.098224  0
H  H124  1  0.93405422  0.40354481  0.71727310  1  -0.577694  0  0.060836  -0.081485  0  1.006417  0
H  H125  1  0.56594526  0.09645506  0.21727234  1  -0.577584  0  0.060845  -0.081483  0  1.006393  0
H  H126  1  0.06594592  0.59645478  0.28272750  1  -0.577696  0  0.060845  -0.08147  0  1.006409  0
H  H127  1  0.43405439  0.90354534  0.78272736  1  -0.5777  0  0.060845  -0.081463  0  1.006408  0
H  H128  1  0.81251799  0.49883811  0.62334078  1  -0.582871  0  0.065484  -0.084531  0  1.066592  0
H  H129  1  0.68748347  0.00116264  0.12334061  1  -0.582866  0  0.065488  -0.084524  0  1.066576  0
H  H130  1  0.18748296  0.50116310  0.37665982  1  -0.582866  0  0.065484  -0.084513  0  1.066539  0
H  H131  1  0.31251668  0.99883695  0.87665955  1  -0.582869  0  0.065485  -0.084506  0  1.066543  0
H  H132  1  0.54226732  0.46593456  0.66783808  1  -0.572554  0  0.064156  -0.086784  0  1.057806  0
H  H133  1  0.95773375  0.03406696  0.16783852  1  -0.572546  0  0.064161  -0.086785  0  1.057792  0
H  H134  1  0.45773362  0.53406665  0.33216252  1  -0.572545  0  0.06417  -0.086758  0  1.057786  0
H  H135  1  0.04226680  0.96593344  0.83216209  1  -0.57255  0  0.064173  -0.086762  0  1.057802  0
H  H136  1  0.49299788  0.34899426  0.78587088  1  -0.558636  0  0.075467  -0.061237  0  1.064324  0
H  H137  1  0.00700191  0.15100615  0.28587050  1  -0.558641  0  0.075479  -0.061215  0  1.064331  0
H  H138  1  0.50700266  0.65100614  0.21412972  1  -0.558633  0  0.075439  -0.061254  0  1.06431  0
H  H139  1  0.99299775  0.84899425  0.71412920  1  -0.55865  0  0.075475  -0.061218  0  1.064311  0
H  H140  1  0.74068901  0.30997563  0.81809382  1  -0.559136  0  0.063548  -0.086093  0  1.073527  0
H  H141  1  0.75931071  0.19002417  0.31809404  1  -0.559125  0  0.063549  -0.086096  0  1.073512  0
H  H142  1  0.25931113  0.69002396  0.18190588  1  -0.559134  0  0.063548  -0.086097  0  1.073527  0
H  H143  1  0.24068895  0.80997623  0.68190611  1  -0.559132  0  0.063549  -0.086083  0  1.073516  0
H  H144  1  0.02058401  0.64228861  0.71756304  1  -0.50849  0  0.074872  -0.048466  0  1.100548  0
H  H145  1  0.47941575  0.85771074  0.21756287  1  -0.508499  0  0.074879  -0.048452  0  1.100552  0
H  H146  1  0.97941484  0.35771016  0.28243757  1  -0.50858  0  0.074857  -0.048474  0  1.100569  0
H  H147  1  0.52058390  0.14228966  0.78243684  1  -0.508482  0  0.074837  -0.048507  0  1.100584  0
H  H148  1  0.76902721  0.68443848  0.68264021  1  -0.574602  0  0.067087  -0.081174  0  1.054116  0
H  H149  1  0.73097272  0.81556111  0.18264079  1  -0.574614  0  0.067106  -0.081142  0  1.054082  0
H  H150  1  0.23097204  0.31556111  0.31735995  1  -0.574592  0  0.067087  -0.081159  0  1.054102  0
H  H151  1  0.26902742  0.18443847  0.81735981  1  -0.574592  0  0.067083  -0.081173  0  1.054115  0
H  H152  1  0.57462981  0.59106555  0.78335229  1  -0.571864  0  0.063135  -0.077438  0  1.003124  0
H  H153  1  0.92537075  0.90893479  0.28335295  1  -0.57187  0  0.063141  -0.07742  0  1.003057  0
H  H154  1  0.42536944  0.40893404  0.21664787  1  -0.571854  0  0.063147  -0.077427  0  1.003123  0
H  H155  1  0.07462979  0.09106561  0.71664765  1  -0.571866  0  0.063137  -0.077439  0  1.00311  0
H  H156  1  0.69661850  0.49593975  0.87743156  1  -0.577507  0  0.063197  -0.084298  0  1.053672  0
H  H157  1  0.80338047  0.00406000  0.37743146  1  -0.577514  0  0.063172  -0.084336  0  1.053733  0
H  H158  1  0.30338075  0.50405983  0.12256859  1  -0.5775  0  0.063176  -0.084344  0  1.053738  0
H  H159  1  0.19661749  0.99593877  0.62256869  1  -0.577511  0  0.063186  -0.084309  0  1.053689  0
H  H160  1  0.96730245  0.53041378  0.83276071  1  -0.578833  0  0.062524  -0.087044  0  1.045109  0
H  H161  1  0.53269734  0.96958652  0.33276063  1  -0.578827  0  0.062538  -0.087003  0  1.045079  0
H  H162  1  0.03269681  0.46958580  0.16723944  1  -0.578827  0  0.062541  -0.087012  0  1.045096  0
H  H163  1  0.46730231  0.03041387  0.66723953  1  -0.578816  0  0.062527  -0.087054  0  1.045128  0
H  H164  1  0.85422358  0.70945675  0.80737625  1  -0.51339  0  0.069678  -0.052954  0  1.116272  0
H  H165  1  0.64577656  0.79054438  0.30737634  1  -0.513402  0  0.069674  -0.052961  0  1.116299  0
H  H166  1  0.14577697  0.29054365  0.19262391  1  -0.513401  0  0.069679  -0.052969  0  1.116302  0
H  H167  1  0.35422221  0.20945601  0.69262382  1  -0.513401  0  0.069676  -0.052956  0  1.11628  0
C  C168  1  0.62072302  0.12808568  0.55062044  1  0.4981  0  0.052015  0.091492  0  3.993555  0
C  C169  1  0.87927876  0.37191430  0.05062019  1  0.49774  0  0.052084  0.091554  0  3.993513  0
C  C170  1  0.37927753  0.87191472  0.44937926  1  0.498133  0  0.052024  0.091466  0  3.993596  0
C  C171  1  0.12072356  0.62808611  0.94937951  1  0.498106  0  0.052023  0.091514  0  3.993511  0
C  C172  1  0.65638317  0.09661027  0.49574321  1  -0.052389  0  -0.087547  -0.126778  0  3.995445  0
C  C173  1  0.84361785  0.40338942  0.99574256  1  -0.052468  0  -0.087563  -0.126778  0  3.995376  0
C  C174  1  0.34361648  0.90339012  0.50425739  1  -0.052374  0  -0.087568  -0.126835  0  3.995323  0
C  C175  1  0.15638319  0.59661018  0.00425669  1  -0.052368  0  -0.087537  -0.126707  0  3.995404  0
C  C176  1  0.62209478  0.13018813  0.44237023  1  -0.036093  0  -0.059294  -0.070641  0  3.90261  0
C  C177  1  0.87790611  0.36981159  0.94237007  1  -0.03601  0  -0.05931  -0.070671  0  3.902653  0
C  C178  1  0.37790528  0.86981308  0.55762993  1  -0.036137  0  -0.059343  -0.070665  0  3.902661  0
C  C179  1  0.12209403  0.63018799  0.05762964  1  -0.036099  0  -0.059315  -0.070702  0  3.902692  0
C  C180  1  0.55360632  0.19690383  0.44420805  1  -0.066098  0  -0.003524  0.037078  0  4.017571  0
C  C181  1  0.94639369  0.30309589  0.94420797  1  -0.066114  0  -0.003531  0.037072  0  4.017614  0
C  C182  1  0.44639285  0.80309738  0.55579210  1  -0.066079  0  -0.00352  0.037112  0  4.017571  0
C  C183  1  0.05360774  0.69690452  0.05579218  1  -0.066124  0  -0.003508  0.037093  0  4.017537  0
C  C184  1  0.51597554  0.23571799  0.39067774  1  0.004045  0  -0.082199  -0.125478  0  3.977264  0
C  C185  1  0.98402483  0.26428095  0.89067816  1  0.004061  0  -0.082213  -0.125495  0  3.977324  0
C  C186  1  0.48402500  0.76428241  0.60932197  1  0.004011  0  -0.082195  -0.12548  0  3.977276  0
C  C187  1  0.01597580  0.73571783  0.10932200  1  0.003979  0  -0.082218  -0.125479  0  3.977248  0
C  C188  1  0.45058204  0.30085316  0.39409197  1  -0.099081  0  -0.079315  -0.120515  0  3.97299  0
C  C189  1  0.04941759  0.19914637  0.89409123  1  -0.099107  0  -0.079301  -0.120505  0  3.972956  0
C  C190  1  0.54941672  0.69914723  0.60590818  1  -0.098787  0  -0.079289  -0.120507  0  3.973077  0
C  C191  1  0.95058433  0.80085322  0.10590802  1  -0.098774  0  -0.079268  -0.120474  0  3.972978  0
C  C192  1  0.41866611  0.33239412  0.45132999  1  0.012809  0  -0.002207  0.040059  0  4.006546  0
C  C193  1  0.08133495  0.16760619  0.95132973  1  0.013272  0  -0.002193  0.040126  0  4.006534  0
C  C194  1  0.58133266  0.66760627  0.54867107  1  0.012906  0  -0.002196  0.040124  0  4.006558  0
C  C195  1  0.91866737  0.83239422  0.04867042  1  0.012932  0  -0.002226  0.040033  0  4.0065  0
C  C196  1  0.35031914  0.39901016  0.45656901  1  -0.063325  0  -0.057917  -0.064887  0  3.886437  0
C  C197  1  0.14968242  0.10098934  0.95656930  1  -0.063353  0  -0.057937  -0.064915  0  3.886324  0
C  C198  1  0.64967922  0.60098942  0.54343069  1  -0.063145  0  -0.057936  -0.064992  0  3.886405  0
C  C199  1  0.85032080  0.89901107  0.04343041  1  -0.063261  0  -0.057924  -0.064923  0  3.886427  0
C  C200  1  0.32509013  0.42784440  0.51327329  1  0.005906  0  -0.087774  -0.134954  0  4.004154  0
C  C201  1  0.17491051  0.07215377  0.01327262  1  0.005889  0  -0.087798  -0.134946  0  4.004114  0
C  C202  1  0.67490913  0.57215519  0.48672731  1  0.005717  0  -0.087749  -0.134832  0  4.004099  0
C  C203  1  0.82509012  0.92784501  0.98672663  1  0.00584  0  -0.087777  -0.134884  0  4.004138  0
C  C204  1  0.36867585  0.39105438  0.56428325  1  0.507906  0  0.056141  0.100088  0  3.987177  0
C  C205  1  0.13132489  0.10894376  0.06428252  1  0.507829  0  0.05619  0.100125  0  3.987056  0
C  C206  1  0.63132340  0.60894521  0.43571691  1  0.507908  0  0.056156  0.100101  0  3.987138  0
C  C207  1  0.86867614  0.89105583  0.93571673  1  0.507819  0  0.056179  0.100092  0  3.987123  0
C  C208  1  0.45605756  0.29681153  0.50554144  1  0.504632  0  0.113429  0.112975  0  3.983083  0
C  C209  1  0.04394385  0.20318827  0.00554106  1  0.504152  0  0.113409  0.112888  0  3.983163  0
C  C210  1  0.54394169  0.70318805  0.49445871  1  0.504219  0  0.113402  0.112908  0  3.983167  0
C  C211  1  0.95605976  0.79681296  0.99445819  1  0.504175  0  0.113375  0.112946  0  3.983137  0
C  C212  1  0.52325214  0.22623452  0.50194779  1  0.513823  0  0.113038  0.114137  0  3.974701  0
C  C213  1  0.97674913  0.27376468  0.00194766  1  0.513832  0  0.113043  0.114156  0  3.974693  0
C  C214  1  0.47674840  0.77376588  0.49805191  1  0.513843  0  0.113011  0.114079  0  3.974717  0
C  C215  1  0.02325231  0.72623572  0.99805114  1  0.513883  0  0.113064  0.114156  0  3.974679  0
C  C216  1  0.12329302  0.63067253  0.53498587  1  0.488816  0  0.050755  0.091431  0  3.998445  0
C  C217  1  0.37670801  0.86932856  0.03498608  1  0.488843  0  0.050718  0.091378  0  3.998476  0
C  C218  1  0.87670712  0.36932705  0.46501473  1  0.489302  0  0.050739  0.09139  0  3.998534  0
C  C219  1  0.62329294  0.13067265  0.96501408  1  0.488836  0  0.050752  0.09142  0  3.998468  0
C  C220  1  0.14094146  0.60864355  0.47464688  1  0.031759  0  -0.085913  -0.129459  0  4.002714  0
C  C221  1  0.35905920  0.89135806  0.97464669  1  0.031707  0  -0.085907  -0.129401  0  4.002701  0
C  C222  1  0.85905909  0.39135685  0.52535373  1  0.03173  0  -0.085945  -0.129505  0  4.0028  0
C  C223  1  0.64094134  0.10864234  0.02535346  1  0.031745  0  -0.085932  -0.129437  0  4.002716  0
C  C224  1  0.09124064  0.65043610  0.42939079  1  -0.063174  0  -0.058728  -0.07145  0  3.901626  0
C  C225  1  0.40875952  0.84956473  0.92939111  1  -0.063147  0  -0.058769  -0.071516  0  3.901642  0
C  C226  1  0.90875991  0.34956430  0.57060981  1  -0.063031  0  -0.058739  -0.071425  0  3.901642  0
C  C227  1  0.59124014  0.15043567  0.07060859  1  -0.063156  0  -0.058783  -0.071552  0  3.901698  0
C  C228  1  0.02451456  0.71491990  0.44485191  1  -0.0789  0  -0.004821  0.034499  0  4.02426  0
C  C229  1  0.47548612  0.78508011  0.94485231  1  -0.078883  0  -0.004785  0.034497  0  4.024278  0
C  C230  1  0.97548817  0.28508132  0.55514824  1  -0.079434  0  -0.004808  0.034409  0  4.024285  0
C  C231  1  0.52451273  0.21491866  0.05514784  1  -0.079316  0  -0.004753  0.034563  0  4.024276  0
C  C232  1  0.97121435  0.76149102  0.40031562  1  -0.029987  0  -0.08365  -0.127927  0  3.985997  0
C  C233  1  0.52878559  0.73850924  0.90031529  1  -0.029999  0  -0.083621  -0.127896  0  3.985977  0
C  C234  1  0.02878619  0.23850938  0.59968499  1  -0.029557  0  -0.083637  -0.127924  0  3.986015  0
C  C235  1  0.47121415  0.26148954  0.09968441  1  -0.029548  0  -0.083675  -0.127963  0  3.986033  0
C  C236  1  0.90812596  0.82431047  0.41664090  1  -0.038642  0  -0.078306  -0.116241  0  3.975698  0
C  C237  1  0.59187313  0.67568977  0.91664111  1  -0.038628  0  -0.078327  -0.116314  0  3.975775  0
C  C238  1  0.09187369  0.17568993  0.58335880  1  -0.038628  0  -0.078299  -0.116202  0  3.975707  0
C  C239  1  0.40812572  0.32430900  0.08335860  1  -0.038616  0  -0.078312  -0.116258  0  3.975712  0
C  C240  1  0.89487688  0.84581009  0.47883805  1  0.0436  0  -0.002253  0.044887  0  4.007067  0
C  C241  1  0.60512146  0.65419011  0.97883873  1  0.043496  0  -0.002231  0.044917  0  4.007025  0
C  C242  1  0.10512317  0.15419112  0.52116165  1  0.043605  0  -0.002261  0.044791  0  4.007077  0
C  C243  1  0.39487650  0.34580866  0.02116143  1  0.043591  0  -0.002241  0.044832  0  4.007082  0
C  C244  1  0.83133396  0.91106171  0.49750834  1  -0.09676  0  -0.067289  -0.083457  0  3.93697  0
C  C245  1  0.66866532  0.58893848  0.99750909  1  -0.096733  0  -0.067324  -0.083424  0  3.936886  0
C  C246  1  0.16866619  0.08893788  0.50249046  1  -0.096915  0  -0.067302  -0.083385  0  3.936911  0
C  C247  1  0.33133434  0.41106191  0.00249106  1  -0.096734  0  -0.067315  -0.08341  0  3.93694  0
C  C248  1  0.82422176  0.93093907  0.55817462  1  -0.003783  0  -0.085776  -0.136864  0  4.010955  0
C  C249  1  0.67577781  0.56906222  0.05817575  1  -0.003733  0  -0.08575  -0.136861  0  4.010755  0
C  C250  1  0.17577968  0.06906133  0.44182464  1  -0.003571  0  -0.085801  -0.136936  0  4.010862  0
C  C251  1  0.32422225  0.43093899  0.94182486  1  -0.00374  0  -0.085738  -0.136781  0  4.010856  0
C  C252  1  0.87928462  0.88422266  0.60008044  1  0.526484  0  0.066706  0.115436  0  3.936387  0
C  C253  1  0.62071375  0.61577778  0.10008151  1  0.526465  0  0.066645  0.115337  0  3.936382  0
C  C254  1  0.12071415  0.11577773  0.39991926  1  0.526506  0  0.066677  0.11536  0  3.936363  0
C  C255  1  0.37928502  0.38422261  0.89991910  1  0.526571  0  0.066657  0.115302  0  3.936423  0
C  C256  1  0.94686169  0.80157865  0.52454493  1  0.492269  0  0.114925  0.113218  0  3.979485  0
C  C257  1  0.55313748  0.69842024  0.02454501  1  0.49236  0  0.114923  0.113195  0  3.979513  0
C  C258  1  0.05313837  0.19842256  0.47545567  1  0.492227  0  0.114919  0.113208  0  3.979374  0
C  C259  1  0.44686185  0.30157773  0.97545560  1  0.492238  0  0.114914  0.113245  0  3.979381  0
C  C260  1  0.01233410  0.73382536  0.50731232  1  0.516662  0  0.115372  0.119097  0  3.970222  0
C  C261  1  0.48766557  0.76617493  0.00731221  1  0.516652  0  0.115355  0.11909  0  3.970259  0
C  C262  1  0.98766733  0.26617504  0.49268738  1  0.516582  0  0.115359  0.119244  0  3.970132  0
C  C263  1  0.51233368  0.23382465  0.99268750  1  0.516605  0  0.115348  0.119139  0  3.970206  0
N  N264  1  0.55581328  0.19042855  0.55378629  1  -1.207704  0  -0.327741  -0.254762  0  3.541793  0
N  N265  1  0.94418851  0.30957144  0.05378612  1  -1.207323  0  -0.327741  -0.254751  0  3.541786  0
N  N266  1  0.44418678  0.80957266  0.44621386  1  -1.20773  0  -0.327673  -0.254639  0  3.541763  0
N  N267  1  0.05581382  0.69042897  0.94621358  1  -1.207732  0  -0.327786  -0.254826  0  3.541791  0
N  N268  1  0.43192696  0.32759779  0.56069771  1  -1.188526  0  -0.326322  -0.258915  0  3.529366  0
N  N269  1  0.06807289  0.17240034  0.06069736  1  -1.188428  0  -0.326392  -0.259007  0  3.529371  0
N  N270  1  0.56807229  0.67240179  0.43930199  1  -1.188527  0  -0.326343  -0.258981  0  3.529468  0
N  N271  1  0.93192814  0.82759925  0.93930189  1  -1.188472  0  -0.326335  -0.258972  0  3.529421  0
N  N272  1  0.06118558  0.69129408  0.55103843  1  -1.219867  0  -0.32384  -0.259048  0  3.533822  0
N  N273  1  0.43881420  0.80870619  0.05103826  1  -1.21987  0  -0.32384  -0.25906  0  3.533854  0
N  N274  1  0.93881497  0.30870631  0.44896217  1  -1.220327  0  -0.323803  -0.259068  0  3.533866  0
N  N275  1  0.56118505  0.19129340  0.94896144  1  -1.219889  0  -0.323807  -0.259076  0  3.533923  0
N  N276  1  0.93756263  0.82108035  0.58380068  1  -1.202656  0  -0.316703  -0.244423  0  3.504427  0
N  N277  1  0.56243619  0.67891930  0.08380123  1  -1.202687  0  -0.316696  -0.244395  0  3.504505  0
N  N278  1  0.06243703  0.17892004  0.41619902  1  -1.202656  0  -0.316706  -0.244414  0  3.504379  0
N  N279  1  0.43756217  0.32108028  0.91619893  1  -1.202738  0  -0.316688  -0.244397  0  3.504338  0
