# generated using pymatgen
data_CdP2H12C7(NO5)2
_symmetry_space_group_name_H-M   'P 1'
_cell_length_a   8.68610466
_cell_length_b   9.34857914
_cell_length_c   10.14763585
_cell_angle_alpha   70.02727132
_cell_angle_beta   66.60893450
_cell_angle_gamma   65.19371715
_symmetry_Int_Tables_number   1
_chemical_formula_structural   CdP2H12C7(NO5)2
_chemical_formula_sum   'Cd2 P4 H24 C14 N4 O20'
_cell_volume   671.19570659
_cell_formula_units_Z   2
loop_
 _symmetry_equiv_pos_site_id
 _symmetry_equiv_pos_as_xyz
  1  'x, y, z'
loop_
 _atom_site_type_symbol
 _atom_site_label
 _atom_site_symmetry_multiplicity
 _atom_site_fract_x
 _atom_site_fract_y
 _atom_site_fract_z
 _atom_site_occupancy
 _atom_site_hle17_bader_spin_density
 _atom_site_hle17_ddec_charge
 _atom_site_hle17_ddec_spin_density
 _atom_site_hle17_ddec_sum_bond_order
 _atom_site_hle17_magmom
 _atom_site_hse06_10hf_bader_spin_density
 _atom_site_hse06_10hf_ddec_charge
 _atom_site_hse06_10hf_ddec_spin_density
 _atom_site_hse06_10hf_ddec_sum_bond_order
 _atom_site_hse06_10hf_magmom
 _atom_site_hse06_bader_spin_density
 _atom_site_hse06_ddec_charge
 _atom_site_hse06_ddec_spin_density
 _atom_site_hse06_ddec_sum_bond_order
 _atom_site_hse06_magmom
 _atom_site_pbe_bader_spin_density
 _atom_site_pbe_cm5_charge
 _atom_site_pbe_ddec_charge
 _atom_site_pbe_ddec_spin_density
 _atom_site_pbe_ddec_sum_bond_order
 _atom_site_pbe_magmom
Cd  Cd0  1  0.17438822  0.35790183  0.58260275  1  0  1.311578  0  1.60043  0  0  1.144028  0  2.03981  0  0  1.197209  0  1.981915  0  0  0.792246  1.105091  0  2.08053  0
Cd  Cd1  1  0.82561725  0.64209300  0.41739383  1  0  1.31162  0  1.600514  0  0  1.144028  0  2.039905  0  0  1.197209  0  1.982009  0  0  0.792252  1.105087  0  2.080623  0
P  P2  1  0.99392859  0.76386776  0.60037351  1  0  1.483535  0  4.779648  0  0  1.314972  0  5.290241  0  0  1.364977  0  5.253019  0  0  0.357198  1.27986  0  5.315447  0
P  P3  1  0.00607178  0.23613561  0.39962103  1  0  1.483507  0  4.779508  0  0  1.314982  0  5.290054  0  0  1.364991  0  5.252827  0  0  0.357238  1.279869  0  5.315264  0
P  P4  1  0.24748822  0.53550390  0.79013545  1  0  1.492683  0  4.782508  0  0  1.328953  0  5.298421  0  0  1.379652  0  5.258563  0  0  0.356933  1.293442  0  5.325685  0
P  P5  1  0.75250613  0.46450567  0.20986294  1  0  1.492482  0  4.782441  0  0  1.328792  0  5.298317  0  0  1.379493  0  5.258464  0  0  0.356973  1.29328  0  5.325573  0
H  H6  1  0.42222211  0.10086061  0.44652847  1  0  0.431841  0  0.834124  0  0  0.402583  0  0.910242  0  0  0.411903  0  0.898061  0  0  0.311409  0.395792  0  0.91818  0
H  H7  1  0.57780260  0.89912142  0.55347917  1  0  0.431766  0  0.834064  0  0  0.402501  0  0.910205  0  0  0.411821  0  0.89815  0  0  0.311352  0.395708  0  0.918147  0
H  H8  1  0.53422085  0.21381706  0.41057260  1  0  0.442075  0  0.844568  0  0  0.412924  0  0.902967  0  0  0.423072  0  0.888283  0  0  0.305406  0.405574  0  0.913609  0
H  H9  1  0.46578871  0.78618471  0.58942074  1  0  0.442084  0  0.844555  0  0  0.412929  0  0.902974  0  0  0.423067  0  0.888303  0  0  0.305428  0.40558  0  0.913615  0
H  H10  1  0.28257453  0.63455394  0.39567696  1  0  0.439049  0  0.839423  0  0  0.407803  0  0.912353  0  0  0.417941  0  0.897642  0  0  0.305398  0.400679  0  0.920959  0
H  H11  1  0.71743681  0.36544060  0.60432393  1  0  0.43902  0  0.839477  0  0  0.407786  0  0.91238  0  0  0.417924  0  0.897669  0  0  0.305396  0.400661  0  0.920991  0
H  H12  1  0.22877714  0.58347684  0.28976436  1  0  0.434063  0  0.867484  0  0  0.403465  0  0.929398  0  0  0.41394  0  0.914436  0  0  0.299945  0.395954  0  0.940111  0
H  H13  1  0.77123393  0.41652011  0.71022997  1  0  0.434035  0  0.867501  0  0  0.403447  0  0.929402  0  0  0.413922  0  0.91444  0  0  0.299949  0.395937  0  0.940115  0
H  H14  1  0.83142347  0.02727343  0.57526958  1  0  0.450037  0  0.85101  0  0  0.412265  0  0.924449  0  0  0.424338  0  0.907312  0  0  0.30266  0.403662  0  0.936592  0
H  H15  1  0.16857263  0.97273132  0.42472677  1  0  0.450062  0  0.850986  0  0  0.412279  0  0.924433  0  0  0.424349  0  0.907301  0  0  0.302676  0.403681  0  0.936569  0
H  H16  1  0.50939933  0.55733584  0.70313535  1  0  0.431449  0  0.878824  0  0  0.400617  0  0.940582  0  0  0.412313  0  0.923898  0  0  0.306449  0.392375  0  0.952359  0
H  H17  1  0.49059629  0.44266891  0.29686707  1  0  0.431546  0  0.878721  0  0  0.400738  0  0.940435  0  0  0.412433  0  0.923753  0  0  0.30652  0.392497  0  0.95221  0
H  H18  1  0.76394269  0.72831558  0.02874456  1  0  0.322623  0  0.936008  0  0  0.29449  0  1.008261  0  0  0.304695  0  1.000639  0  0  0.305212  0.287481  0  1.013496  0
H  H19  1  0.23604392  0.27167891  0.97125955  1  0  0.322443  0  0.936284  0  0  0.294317  0  1.008528  0  0  0.304517  0  1.000911  0  0  0.305178  0.287313  0  1.013762  0
H  H20  1  0.10076424  0.90061235  0.76142002  1  0  0.302218  0  0.929038  0  0  0.28349  0  0.992237  0  0  0.292256  0  0.985723  0  0  0.309829  0.27734  0  0.99688  0
H  H21  1  0.89922845  0.09938896  0.23858723  1  0  0.302223  0  0.928832  0  0  0.283455  0  0.992144  0  0  0.292222  0  0.985628  0  0  0.309786  0.277304  0  0.996788  0
H  H22  1  0.52022951  0.86175823  0.19340259  1  0  0.107456  0  0.911014  0  0  0.118224  0  0.966765  0  0  0.121149  0  0.964119  0  0  0.134146  0.115916  0  0.968833  0
H  H23  1  0.47976127  0.13825151  0.80659383  1  0  0.107431  0  0.911073  0  0  0.118188  0  0.966835  0  0  0.121117  0  0.964184  0  0  0.134157  0.11587  0  0.968916  0
H  H24  1  0.45540816  0.15113981  0.19293381  1  0  0.122831  0  0.945848  0  0  0.133387  0  1.001263  0  0  0.137267  0  1.000126  0  0  0.112092  0.130402  0  1.002608  0
H  H25  1  0.54458803  0.84886970  0.80705716  1  0  0.122885  0  0.945781  0  0  0.133423  0  1.001207  0  0  0.137286  0  1.000092  0  0  0.112087  0.130437  0  1.00255  0
H  H26  1  0.67664057  0.28858548  0.00856702  1  0  0.124871  0  0.918632  0  0  0.133593  0  0.977664  0  0  0.137439  0  0.972989  0  0  0.120221  0.131018  0  0.980558  0
H  H27  1  0.32337636  0.71141473  0.99143255  1  0  0.124958  0  0.918601  0  0  0.133619  0  0.977677  0  0  0.137462  0  0.973004  0  0  0.120219  0.131051  0  0.980573  0
H  H28  1  0.93311071  0.63908920  0.85788559  1  0  0.175388  0  0.953725  0  0  0.182215  0  1.006678  0  0  0.186446  0  1.004681  0  0  0.139797  0.179389  0  1.007912  0
H  H29  1  0.06687682  0.36091234  0.14212407  1  0  0.175471  0  0.953664  0  0  0.182232  0  1.006697  0  0  0.186464  0  1.004698  0  0  0.139807  0.179406  0  1.00793  0
C  C30  1  0.60564648  0.93158056  0.11643787  1  0  0.169681  0  3.65197  0  0  0.124234  0  3.919495  0  0  0.136438  0  3.933524  0  0  0.065272  0.11619  0  3.910414  0
C  C31  1  0.39435687  0.06842028  0.88356051  1  0  0.16955  0  3.652056  0  0  0.124133  0  3.919577  0  0  0.136329  0  3.933607  0  0  0.065203  0.116098  0  3.910497  0
C  C32  1  0.57398778  0.08879262  0.11590780  1  0  -0.145913  0  3.729446  0  0  -0.167291  0  4.006564  0  0  -0.177996  0  4.025036  0  0  -0.096654  -0.160742  0  3.994612  0
C  C33  1  0.42600352  0.91121947  0.88408777  1  0  -0.145921  0  3.729358  0  0  -0.167292  0  4.006442  0  0  -0.177986  0  4.024924  0  0  -0.096637  -0.160739  0  3.994485  0
C  C34  1  0.69647631  0.16419419  0.01283354  1  0  0.05064  0  3.654776  0  0  0.011575  0  3.919821  0  0  0.025612  0  3.929077  0  0  -0.048609  0.002929  0  3.912635  0
C  C35  1  0.30351660  0.83579284  0.98718379  1  0  0.05047  0  3.654668  0  0  0.01146  0  3.919721  0  0  0.025505  0  3.928964  0  0  -0.048604  0.002804  0  3.912544  0
C  C36  1  0.84691432  0.08223653  0.91490481  1  0  -0.23164  0  3.714141  0  0  -0.209062  0  3.967035  0  0  -0.227615  0  3.989052  0  0  -0.023428  -0.196854  0  3.951843  0
C  C37  1  0.15307790  0.91777429  0.08509975  1  0  -0.231436  0  3.714131  0  0  -0.20892  0  3.966957  0  0  -0.227474  0  3.988972  0  0  -0.023404  -0.196714  0  3.951767  0
C  C38  1  0.87335319  0.91904489  0.91869820  1  0  0.433462  0  3.715826  0  0  0.385379  0  3.9842  0  0  0.40861  0  3.996776  0  0  0.256181  0.369839  0  3.975301  0
C  C39  1  0.12664152  0.08096226  0.08130575  1  0  0.433274  0  3.715911  0  0  0.38539  0  3.98411  0  0  0.408624  0  3.996681  0  0  0.256192  0.369849  0  3.975218  0
C  C40  1  0.97367106  0.16573278  0.80413092  1  0  0.641422  0  3.93297  0  0  0.583206  0  4.235125  0  0  0.618078  0  4.230399  0  0  0.196248  0.559462  0  4.237514  0
C  C41  1  0.02633510  0.83425609  0.19586624  1  0  0.641648  0  3.932687  0  0  0.583449  0  4.23484  0  0  0.61832  0  4.230113  0  0  0.196366  0.559708  0  4.237222  0
C  C42  1  0.03358903  0.69583979  0.78149406  1  0  -0.456106  0  3.632703  0  0  -0.440686  0  3.878056  0  0  -0.452225  0  3.886356  0  0  -0.002803  -0.433178  0  3.872644  0
C  C43  1  0.96640766  0.30415779  0.21850918  1  0  -0.456176  0  3.63277  0  0  -0.440676  0  3.878184  0  0  -0.452212  0  3.886488  0  0  -0.00284  -0.433168  0  3.872772  0
N  N44  1  0.74962627  0.85161082  0.01955315  1  0  -0.33563  0  3.378624  0  0  -0.262598  0  3.609409  0  0  -0.283473  0  3.623051  0  0  -0.349628  -0.248603  0  3.600089  0
N  N45  1  0.25037199  0.14840333  0.98043881  1  0  -0.335364  0  3.378321  0  0  -0.262384  0  3.609061  0  0  -0.283258  0  3.622707  0  0  -0.349644  -0.248383  0  3.599726  0
N  N46  1  0.01621904  0.83444981  0.82683407  1  0  -0.340868  0  3.390661  0  0  -0.288436  0  3.638448  0  0  -0.308379  0  3.651692  0  0  -0.402998  -0.274777  0  3.628812  0
N  N47  1  0.98378790  0.16555207  0.17316098  1  0  -0.340695  0  3.390706  0  0  -0.288428  0  3.638633  0  0  -0.308379  0  3.651897  0  0  -0.402936  -0.274772  0  3.629002  0
O  O48  1  0.44617128  0.16605718  0.48905746  1  0  -0.8205  0  1.854625  0  0  -0.756615  0  2.050615  0  0  -0.778295  0  2.01969  0  0  -0.570379  -0.741032  0  2.071618  0
O  O49  1  0.55383455  0.83394000  0.51094030  1  0  -0.820454  0  1.854584  0  0  -0.756551  0  2.050511  0  0  -0.778223  0  2.01972  0  0  -0.570338  -0.740968  0  2.071512  0
O  O50  1  0.12104920  0.08726401  0.72509584  1  0  -0.622583  0  1.986738  0  0  -0.563619  0  2.220861  0  0  -0.590884  0  2.214308  0  0  -0.309182  -0.544907  0  2.225242  0
O  O51  1  0.87895613  0.91271306  0.27489913  1  0  -0.622743  0  1.986925  0  0  -0.563706  0  2.220909  0  0  -0.590971  0  2.214353  0  0  -0.309211  -0.544992  0  2.22529  0
O  O52  1  0.30674604  0.54142900  0.35535494  1  0  -0.825227  0  1.954074  0  0  -0.757579  0  2.14139  0  0  -0.781322  0  2.11003  0  0  -0.554537  -0.741061  0  2.161858  0
O  O53  1  0.69325162  0.45856973  0.64464669  1  0  -0.825217  0  1.954123  0  0  -0.757543  0  2.141399  0  0  -0.78129  0  2.110047  0  0  -0.554549  -0.741026  0  2.16187  0
O  O54  1  0.92802997  0.31867457  0.79020541  1  0  -0.646947  0  2.013787  0  0  -0.580908  0  2.251653  0  0  -0.609247  0  2.240969  0  0  -0.322709  -0.560951  0  2.257836  0
O  O55  1  0.07199633  0.68130988  0.20977242  1  0  -0.647138  0  2.01366  0  0  -0.580995  0  2.251332  0  0  -0.609327  0  2.24064  0  0  -0.322723  -0.561055  0  2.257555  0
O  O56  1  0.95523293  0.62880792  0.58044859  1  0  -0.89584  0  2.079285  0  0  -0.797824  0  2.366746  0  0  -0.828917  0  2.344941  0  0  -0.381611  -0.774908  0  2.380667  0
O  O57  1  0.04476554  0.37119195  0.41955345  1  0  -0.895783  0  2.079392  0  0  -0.797779  0  2.366849  0  0  -0.828866  0  2.345038  0  0  -0.38157  -0.774869  0  2.380789  0
O  O58  1  0.81659762  0.91369162  0.61796774  1  0  -0.757303  0  1.990521  0  0  -0.682595  0  2.225797  0  0  -0.70429  0  2.200679  0  0  -0.384656  -0.666956  0  2.243146  0
O  O59  1  0.18339943  0.08630837  0.38202085  1  0  -0.757291  0  1.990411  0  0  -0.682591  0  2.225722  0  0  -0.704287  0  2.20061  0  0  -0.384673  -0.66696  0  2.243071  0
O  O60  1  0.15165360  0.80926804  0.48187774  1  0  -0.837029  0  1.923204  0  0  -0.751555  0  2.156042  0  0  -0.776576  0  2.13608  0  0  -0.365167  -0.733288  0  2.168911  0
O  O61  1  0.84834066  0.19073201  0.51813041  1  0  -0.837023  0  1.923026  0  0  -0.751592  0  2.155865  0  0  -0.776624  0  2.135907  0  0  -0.365198  -0.73332  0  2.168737  0
O  O62  1  0.37977407  0.63637248  0.73521165  1  0  -0.769853  0  2.022829  0  0  -0.690641  0  2.243963  0  0  -0.713124  0  2.219064  0  0  -0.389757  -0.675139  0  2.261126  0
O  O63  1  0.62022111  0.36362992  0.26479060  1  0  -0.769906  0  2.022744  0  0  -0.690722  0  2.243871  0  0  -0.713211  0  2.218976  0  0  -0.389815  -0.675216  0  2.261033  0
O  O64  1  0.30660646  0.42995450  0.68174475  1  0  -0.878375  0  1.976336  0  0  -0.790893  0  2.253734  0  0  -0.819472  0  2.231108  0  0  -0.396233  -0.770557  0  2.269192  0
O  O65  1  0.69338236  0.57005765  0.31826633  1  0  -0.878328  0  1.976344  0  0  -0.790857  0  2.253751  0  0  -0.81944  0  2.231126  0  0  -0.396231  -0.770519  0  2.269202  0
O  O66  1  0.23391426  0.44558095  0.94780760  1  0  -0.803089  0  1.88417  0  0  -0.737136  0  2.127357  0  0  -0.761543  0  2.109335  0  0  -0.378325  -0.71947  0  2.138771  0
O  O67  1  0.76607631  0.55443113  0.05219707  1  0  -0.803001  0  1.884248  0  0  -0.73708  0  2.127454  0  0  -0.761485  0  2.109429  0  0  -0.37837  -0.719413  0  2.138868  0
