# generated using pymatgen
data_NaErH12(CO)12
_symmetry_space_group_name_H-M   'P 1'
_cell_length_a   6.82710043
_cell_length_b   7.44566624
_cell_length_c   15.58696362
_cell_angle_alpha   90.00054030
_cell_angle_beta   102.65385877
_cell_angle_gamma   90.00032193
_symmetry_Int_Tables_number   1
_chemical_formula_structural   NaErH12(CO)12
_chemical_formula_sum   'Na2 Er2 H24 C24 O24'
_cell_volume   773.07690749
_cell_formula_units_Z   2
loop_
 _symmetry_equiv_pos_site_id
 _symmetry_equiv_pos_as_xyz
  1  'x, y, z'
loop_
 _atom_site_type_symbol
 _atom_site_label
 _atom_site_symmetry_multiplicity
 _atom_site_fract_x
 _atom_site_fract_y
 _atom_site_fract_z
 _atom_site_occupancy
 _atom_site_hle17_bader_spin_density
 _atom_site_hle17_ddec_charge
 _atom_site_hle17_ddec_spin_density
 _atom_site_hle17_ddec_sum_bond_order
 _atom_site_hle17_magmom
 _atom_site_hse06_10hf_bader_spin_density
 _atom_site_hse06_10hf_ddec_charge
 _atom_site_hse06_10hf_ddec_spin_density
 _atom_site_hse06_10hf_ddec_sum_bond_order
 _atom_site_hse06_10hf_magmom
 _atom_site_hse06_bader_spin_density
 _atom_site_hse06_ddec_charge
 _atom_site_hse06_ddec_spin_density
 _atom_site_hse06_ddec_sum_bond_order
 _atom_site_hse06_magmom
 _atom_site_pbe_bader_spin_density
 _atom_site_pbe_cm5_charge
 _atom_site_pbe_ddec_charge
 _atom_site_pbe_ddec_spin_density
 _atom_site_pbe_ddec_sum_bond_order
 _atom_site_pbe_magmom
Na  Na0  1  0.35854694  0.74989516  0.71697498  1  0  0.927451  0  0.360005  0  0  0.899567  0  0.493345  0  0  0.907993  0  0.473096  0  0  0.699561  0.893201  0  0.508204  0
Na  Na1  1  0.64145567  0.24989478  0.28302344  1  0  0.927449  0  0.360036  0  0  0.899555  0  0.493352  0  0  0.907992  0  0.473119  0  0  0.69956  0.893205  0  0.508217  0
Er  Er2  1  0.19593987  0.25002226  0.39185911  1  0  2.206725  0  1.711761  0  0  2.058743  0  2.204224  0  0  2.121492  0  2.134265  0  0  1.531749  2.022209  0  2.235545  0
Er  Er3  1  0.80404772  0.75000944  0.60814299  1  0  2.206745  0  1.711641  0  0  2.058799  0  2.204065  0  0  2.121661  0  2.133951  0  0  1.531806  2.022277  0  2.235367  0
H  H4  1  0.63305382  0.75148513  0.89582969  1  0  0.107606  0  0.955177  0  0  0.117722  0  1.016267  0  0  0.121012  0  1.014115  0  0  0.112387  0.115186  0  1.018115  0
H  H5  1  0.36695183  0.25148384  0.10416390  1  0  0.107585  0  0.955179  0  0  0.117709  0  1.016274  0  0  0.121001  0  1.014123  0  0  0.112372  0.115184  0  1.018108  0
H  H6  1  0.26297165  0.74862343  0.89590374  1  0  0.106535  0  0.956142  0  0  0.117549  0  1.016312  0  0  0.120772  0  1.014226  0  0  0.112173  0.115058  0  1.01811  0
H  H7  1  0.73703247  0.24862947  0.10409098  1  0  0.10662  0  0.95605  0  0  0.117588  0  1.016266  0  0  0.120823  0  1.014163  0  0  0.112177  0.115068  0  1.01811  0
H  H8  1  0.71467674  0.74581081  0.05975331  1  0  0.092054  0  0.964643  0  0  0.102541  0  1.025949  0  0  0.105885  0  1.023716  0  0  0.10523  0.10001  0  1.027831  0
H  H9  1  0.28532286  0.24581062  0.94023967  1  0  0.092147  0  0.96463  0  0  0.102549  0  1.025999  0  0  0.10589  0  1.023772  0  0  0.105245  0.10002  0  1.027877  0
H  H10  1  0.34510218  0.75424562  0.05983925  1  0  0.091581  0  0.964571  0  0  0.101494  0  1.026496  0  0  0.10482  0  1.024272  0  0  0.104574  0.098977  0  1.028358  0
H  H11  1  0.65490649  0.25425543  0.94015785  1  0  0.091584  0  0.96468  0  0  0.101474  0  1.026603  0  0  0.104801  0  1.024374  0  0  0.1046  0.098958  0  1.028464  0
H  H12  1  0.43024441  0.73263002  0.41537935  1  0  0.104936  0  0.920135  0  0  0.111732  0  0.978446  0  0  0.114995  0  0.975609  0  0  0.131615  0.10932  0  0.98068  0
H  H13  1  0.56974305  0.23262843  0.58461688  1  0  0.104884  0  0.920178  0  0  0.111675  0  0.978498  0  0  0.114956  0  0.975625  0  0  0.131596  0.109263  0  0.98073  0
H  H14  1  0.98515544  0.76748397  0.41541304  1  0  0.104926  0  0.92022  0  0  0.111242  0  0.97873  0  0  0.11452  0  0.975908  0  0  0.131091  0.108854  0  0.980944  0
H  H15  1  0.01482930  0.26745662  0.58458695  1  0  0.104855  0  0.92022  0  0  0.111169  0  0.978813  0  0  0.114447  0  0.975998  0  0  0.131077  0.108776  0  0.981025  0
H  H16  1  0.25605801  0.88738557  0.29944887  1  0  0.402497  0  0.889762  0  0  0.372595  0  0.965262  0  0  0.384658  0  0.95204  0  0  0.306494  0.364051  0  0.974545  0
H  H17  1  0.74394128  0.38737641  0.70055178  1  0  0.402452  0  0.889795  0  0  0.372548  0  0.965325  0  0  0.384614  0  0.952102  0  0  0.306447  0.363999  0  0.974611  0
H  H18  1  0.04332706  0.61269636  0.29944349  1  0  0.401616  0  0.891059  0  0  0.372042  0  0.965933  0  0  0.383993  0  0.952965  0  0  0.306526  0.363568  0  0.975109  0
H  H19  1  0.95666084  0.11269772  0.70055673  1  0  0.401708  0  0.890914  0  0  0.372153  0  0.965758  0  0  0.384103  0  0.952791  0  0  0.306568  0.363681  0  0.974934  0
H  H20  1  0.51656567  0.41314885  0.80373260  1  0  0.416838  0  0.887974  0  0  0.386068  0  0.95258  0  0  0.396129  0  0.937571  0  0  0.288307  0.378875  0  0.963299  0
H  H21  1  0.48346083  0.91313840  0.19628042  1  0  0.416857  0  0.887946  0  0  0.38607  0  0.952575  0  0  0.396134  0  0.937562  0  0  0.288339  0.378882  0  0.963285  0
H  H22  1  0.28737790  0.08672212  0.80367033  1  0  0.416528  0  0.888498  0  0  0.385726  0  0.953136  0  0  0.395775  0  0.938138  0  0  0.287739  0.378545  0  0.963841  0
H  H23  1  0.71261128  0.58671288  0.19632798  1  0  0.416521  0  0.888492  0  0  0.385726  0  0.953121  0  0  0.395775  0  0.93812  0  0  0.287724  0.37855  0  0.96382  0
H  H24  1  0.28118398  0.40065493  0.79063154  1  0  0.415693  0  0.872377  0  0  0.389445  0  0.93103  0  0  0.398228  0  0.917941  0  0  0.296424  0.383195  0  0.940344  0
H  H25  1  0.71883638  0.90064463  0.20938789  1  0  0.416052  0  0.872114  0  0  0.389712  0  0.930762  0  0  0.398504  0  0.917658  0  0  0.296522  0.383466  0  0.940072  0
H  H26  1  0.50963065  0.09922918  0.79056811  1  0  0.415523  0  0.874568  0  0  0.389406  0  0.931333  0  0  0.398191  0  0.918248  0  0  0.296082  0.383145  0  0.940658  0
H  H27  1  0.49036914  0.59922574  0.20943320  1  0  0.41551  0  0.8746  0  0  0.389393  0  0.931356  0  0  0.39818  0  0.918269  0  0  0.296062  0.383133  0  0.940679  0
C  C28  1  0.89437488  0.75001412  0.78865232  1  0  0.670653  0  3.887017  0  0  0.627481  0  4.171844  0  0  0.661017  0  4.165123  0  0  0.20269  0.604523  0  4.176622  0
C  C29  1  0.10561573  0.25001086  0.21134302  1  0  0.670843  0  3.887201  0  0  0.627625  0  4.172063  0  0  0.661165  0  4.165325  0  0  0.202748  0.604665  0  4.176843  0
C  C30  1  0.94321683  0.75000983  0.88627047  1  0  -0.057548  0  3.740612  0  0  -0.036683  0  3.974877  0  0  -0.044335  0  3.99786  0  0  -0.010354  -0.031662  0  3.959291  0
C  C31  1  0.05679330  0.25001649  0.11372611  1  0  -0.057758  0  3.740754  0  0  -0.036841  0  3.975014  0  0  -0.04449  0  3.998  0  0  -0.010393  -0.031816  0  3.959423  0
C  C32  1  0.30288126  0.81384078  0.42583885  1  0  0.057656  0  3.59888  0  0  0.032303  0  3.845455  0  0  0.033666  0  3.851057  0  0  0.002196  0.031215  0  3.842221  0
C  C33  1  0.69711290  0.31383429  0.57415969  1  0  0.057812  0  3.598857  0  0  0.032533  0  3.845435  0  0  0.0339  0  3.851054  0  0  0.002281  0.031448  0  3.842208  0
C  C34  1  0.12290080  0.68619962  0.42585652  1  0  0.057761  0  3.597508  0  0  0.034075  0  3.8435  0  0  0.035178  0  3.849462  0  0  0.004606  0.032984  0  3.840249  0
C  C35  1  0.87708023  0.18618467  0.57414274  1  0  0.057812  0  3.597317  0  0  0.033875  0  3.843699  0  0  0.034969  0  3.849661  0  0  0.004568  0.032806  0  3.840418  0
C  C36  1  0.36677646  0.91303104  0.51284574  1  0  0.709619  0  3.831151  0  0  0.660883  0  4.130124  0  0  0.695061  0  4.120214  0  0  0.2363  0.637277  0  4.137333  0
C  C37  1  0.63322756  0.41301983  0.48715677  1  0  0.709576  0  3.830928  0  0  0.660858  0  4.129907  0  0  0.695026  0  4.120001  0  0  0.236194  0.637209  0  4.137185  0
C  C38  1  0.14610068  0.58696965  0.51284762  1  0  0.712362  0  3.827377  0  0  0.661683  0  4.129555  0  0  0.695972  0  4.119456  0  0  0.236186  0.638083  0  4.136789  0
C  C39  1  0.85388548  0.08693676  0.48715617  1  0  0.712191  0  3.827435  0  0  0.661606  0  4.12958  0  0  0.695891  0  4.119478  0  0  0.235988  0.637998  0  4.13683  0
C  C40  1  0.78833770  0.74986616  0.93230995  1  0  -0.054144  0  3.699635  0  0  -0.078263  0  3.945759  0  0  -0.078741  0  3.96647  0  0  -0.073326  -0.077682  0  3.931688  0
C  C41  1  0.21166643  0.24986737  0.06768477  1  0  -0.054015  0  3.699702  0  0  -0.078165  0  3.94581  0  0  -0.078648  0  3.966521  0  0  -0.073321  -0.077591  0  3.931739  0
C  C42  1  0.14412293  0.75016933  0.93234914  1  0  -0.051993  0  3.699384  0  0  -0.0766  0  3.945082  0  0  -0.076998  0  3.965793  0  0  -0.071467  -0.076084  0  3.931009  0
C  C43  1  0.85588120  0.25017664  0.06764687  1  0  -0.052087  0  3.699494  0  0  -0.076664  0  3.945143  0  0  -0.077078  0  3.965851  0  0  -0.07152  -0.076132  0  3.931103  0
C  C44  1  0.03506555  0.74999948  0.07006379  1  0  -0.062921  0  3.755359  0  0  -0.045051  0  3.997486  0  0  -0.051684  0  4.021501  0  0  -0.011153  -0.040624  0  3.981114  0
C  C45  1  0.96494159  0.25001073  0.92993058  1  0  -0.062671  0  3.755143  0  0  -0.044972  0  3.997382  0  0  -0.051599  0  4.021393  0  0  -0.011135  -0.040538  0  3.981002  0
C  C46  1  0.83425549  0.74752452  0.02363898  1  0  -0.066019  0  3.728214  0  0  -0.087404  0  3.975209  0  0  -0.0894  0  3.996871  0  0  -0.078566  -0.085912  0  3.960489  0
C  C47  1  0.16574563  0.24752978  0.97635480  1  0  -0.066209  0  3.728302  0  0  -0.087464  0  3.975352  0  0  -0.089465  0  3.997019  0  0  -0.078542  -0.085975  0  3.960636  0
C  C48  1  0.18944001  0.75244783  0.02367912  1  0  -0.066453  0  3.728617  0  0  -0.087503  0  3.975817  0  0  -0.089478  0  3.997442  0  0  -0.07895  -0.086014  0  3.96112  0
C  C49  1  0.81056563  0.25245112  0.97632025  1  0  -0.066526  0  3.728755  0  0  -0.087474  0  3.975898  0  0  -0.08945  0  3.997531  0  0  -0.078977  -0.085985  0  3.961193  0
C  C50  1  0.08415446  0.75004488  0.16824923  1  0  0.670185  0  3.828907  0  0  0.611127  0  4.131785  0  0  0.644857  0  4.123887  0  0  0.228351  0.588279  0  4.136267  0
C  C51  1  0.91584366  0.25006068  0.83174619  1  0  0.669929  0  3.829054  0  0  0.611017  0  4.13181  0  0  0.64475  0  4.12391  0  0  0.228407  0.58817  0  4.136281  0
O  O52  1  0.25153904  0.94609142  0.35817694  1  0  -0.667276  0  2.194691  0  0  -0.616198  0  2.446455  0  0  -0.634773  0  2.432338  0  0  -0.448758  -0.603876  0  2.455416  0
O  O53  1  0.74846077  0.44608248  0.64182147  1  0  -0.667273  0  2.194588  0  0  -0.616178  0  2.446273  0  0  -0.634774  0  2.432158  0  0  -0.44874  -0.603855  0  2.455231  0
O  O54  1  0.10638441  0.55393808  0.35819093  1  0  -0.666656  0  2.195063  0  0  -0.616066  0  2.446557  0  0  -0.634534  0  2.432601  0  0  -0.449271  -0.603795  0  2.455454  0
O  O55  1  0.89358495  0.05393663  0.64181237  1  0  -0.666798  0  2.195021  0  0  -0.616101  0  2.4465  0  0  -0.634578  0  2.432538  0  0  -0.449244  -0.603839  0  2.455393  0
O  O56  1  0.39347464  0.48500639  0.79900881  1  0  -0.870547  0  1.75693  0  0  -0.834747  0  1.91782  0  0  -0.848947  0  1.887009  0  0  -0.658443  -0.824617  0  1.939661  0
O  O57  1  0.60654943  0.98499265  0.20101778  1  0  -0.870908  0  1.756708  0  0  -0.835045  0  1.917478  0  0  -0.849262  0  1.886653  0  0  -0.658585  -0.824924  0  1.939315  0
O  O58  1  0.40570080  0.01485239  0.79889406  1  0  -0.869841  0  1.759925  0  0  -0.834103  0  1.919304  0  0  -0.848297  0  1.888519  0  0  -0.657322  -0.823967  0  1.941127  0
O  O59  1  0.59429374  0.51484933  0.20110957  1  0  -0.86984  0  1.759981  0  0  -0.834095  0  1.919342  0  0  -0.8483  0  1.888562  0  0  -0.657314  -0.823969  0  1.941161  0
O  O60  1  0.71150921  0.75813204  0.74587813  1  0  -0.741449  0  2.005451  0  0  -0.694494  0  2.256652  0  0  -0.719877  0  2.246067  0  0  -0.43895  -0.677604  0  2.263247  0
O  O61  1  0.28850549  0.25814266  0.25412086  1  0  -0.741493  0  2.005092  0  0  -0.694562  0  2.256363  0  0  -0.719939  0  2.245785  0  0  -0.438961  -0.67767  0  2.262965  0
O  O62  1  0.03448299  0.74185501  0.74588162  1  0  -0.740517  0  2.005143  0  0  -0.694146  0  2.257364  0  0  -0.719521  0  2.246736  0  0  -0.438922  -0.677254  0  2.263979  0
O  O63  1  0.96553007  0.24185309  0.25411713  1  0  -0.740535  0  2.005571  0  0  -0.694131  0  2.25779  0  0  -0.719485  0  2.247158  0  0  -0.438906  -0.677242  0  2.264408  0
O  O64  1  0.47549763  0.83042418  0.57780910  1  0  -0.776843  0  2.082529  0  0  -0.733898  0  2.35749  0  0  -0.759705  0  2.342339  0  0  -0.438883  -0.716882  0  2.36676  0
O  O65  1  0.52448766  0.33041247  0.42218930  1  0  -0.77693  0  2.082317  0  0  -0.733911  0  2.357144  0  0  -0.759704  0  2.342012  0  0  -0.438905  -0.716878  0  2.366436  0
O  O66  1  0.10215772  0.66948931  0.57779294  1  0  -0.778212  0  2.080636  0  0  -0.734788  0  2.357039  0  0  -0.760655  0  2.341867  0  0  -0.439476  -0.717758  0  2.366303  0
O  O67  1  0.89784869  0.16945405  0.42220805  1  0  -0.778146  0  2.080326  0  0  -0.734722  0  2.356678  0  0  -0.760569  0  2.341512  0  0  -0.439376  -0.717688  0  2.365949  0
O  O68  1  0.30712808  0.07279852  0.51585170  1  0  -0.665832  0  2.037802  0  0  -0.615397  0  2.286801  0  0  -0.641371  0  2.275761  0  0  -0.363737  -0.598255  0  2.293495  0
O  O69  1  0.69288652  0.57277732  0.48414579  1  0  -0.665833  0  2.037898  0  0  -0.61543  0  2.286844  0  0  -0.641427  0  2.275834  0  0  -0.363706  -0.598273  0  2.293564  0
O  O70  1  0.20897586  0.42725680  0.51585492  1  0  -0.666984  0  2.03703  0  0  -0.615728  0  2.286841  0  0  -0.641706  0  2.275694  0  0  -0.363472  -0.598599  0  2.293571  0
O  O71  1  0.79101326  0.92724955  0.48415071  1  0  -0.66678  0  2.03743  0  0  -0.615583  0  2.287263  0  0  -0.641581  0  2.276123  0  0  -0.363361  -0.598458  0  2.293999  0
O  O72  1  0.26237186  0.79151686  0.20929668  1  0  -0.643656  0  2.00914  0  0  -0.572117  0  2.222787  0  0  -0.598113  0  2.21224  0  0  -0.300205  -0.553881  0  2.22956  0
O  O73  1  0.73762661  0.29154300  0.79070281  1  0  -0.643579  0  2.009281  0  0  -0.572137  0  2.222934  0  0  -0.598141  0  2.212389  0  0  -0.300203  -0.553899  0  2.229709  0
O  O74  1  0.94701480  0.70856034  0.20930006  1  0  -0.641887  0  2.008478  0  0  -0.570248  0  2.221827  0  0  -0.596138  0  2.21127  0  0  -0.299045  -0.552108  0  2.228651  0
O  O75  1  0.05297548  0.20858690  0.79068993  1  0  -0.641719  0  2.00859  0  0  -0.570145  0  2.221854  0  0  -0.596033  0  2.211296  0  0  -0.299075  -0.552007  0  2.228677  0
