# generated using pymatgen
data_Sr3P2H12C4(SO7)2
_symmetry_space_group_name_H-M   'P 1'
_cell_length_a   7.01643173
_cell_length_b   9.94742592
_cell_length_c   12.69470004
_cell_angle_alpha   108.32623544
_cell_angle_beta   97.57355768
_cell_angle_gamma   92.35419434
_symmetry_Int_Tables_number   1
_chemical_formula_structural   Sr3P2H12C4(SO7)2
_chemical_formula_sum   'Sr6 P4 H24 C8 S4 O28'
_cell_volume   830.54475342
_cell_formula_units_Z   2
loop_
 _symmetry_equiv_pos_site_id
 _symmetry_equiv_pos_as_xyz
  1  'x, y, z'
loop_
 _atom_site_type_symbol
 _atom_site_label
 _atom_site_symmetry_multiplicity
 _atom_site_fract_x
 _atom_site_fract_y
 _atom_site_fract_z
 _atom_site_occupancy
 _atom_site_hle17_bader_spin_density
 _atom_site_hle17_ddec_charge
 _atom_site_hle17_ddec_spin_density
 _atom_site_hle17_ddec_sum_bond_order
 _atom_site_hle17_magmom
 _atom_site_hse06_10hf_bader_spin_density
 _atom_site_hse06_10hf_ddec_charge
 _atom_site_hse06_10hf_ddec_spin_density
 _atom_site_hse06_10hf_ddec_sum_bond_order
 _atom_site_hse06_10hf_magmom
 _atom_site_hse06_bader_spin_density
 _atom_site_hse06_ddec_charge
 _atom_site_hse06_ddec_spin_density
 _atom_site_hse06_ddec_sum_bond_order
 _atom_site_hse06_magmom
 _atom_site_pbe_bader_spin_density
 _atom_site_pbe_cm5_charge
 _atom_site_pbe_ddec_charge
 _atom_site_pbe_ddec_spin_density
 _atom_site_pbe_ddec_sum_bond_order
 _atom_site_pbe_magmom
Sr  Sr0  1  0.33546009  0.65711549  0.06645842  1  0  1.64828  0  1.138249  0  0  1.51845  0  1.493164  0  0  1.553174  0  1.452207  0  0  1.045797  1.493451  0  1.521809  0
Sr  Sr1  1  0.66454082  0.34288634  0.93354111  1  0  1.648258  0  1.138297  0  0  1.518421  0  1.493197  0  0  1.553143  0  1.452243  0  0  1.045785  1.493418  0  1.521848  0
Sr  Sr2  1  0.23259490  0.01915141  0.40799405  1  0  1.655396  0  1.124407  0  0  1.522207  0  1.488787  0  0  1.557007  0  1.4459  0  0  1.043994  1.496466  0  1.519623  0
Sr  Sr3  1  0.76740408  0.98084614  0.59200743  1  0  1.655369  0  1.124463  0  0  1.522191  0  1.488814  0  0  1.556997  0  1.44592  0  0  1.043985  1.496449  0  1.51965  0
Sr  Sr4  1  0.89017922  0.66432739  0.22058865  1  0  1.656575  0  1.116395  0  0  1.526318  0  1.46679  0  0  1.561702  0  1.424954  0  0  1.029963  1.499913  0  1.496834  0
Sr  Sr5  1  0.10982170  0.33567444  0.77940930  1  0  1.656574  0  1.116423  0  0  1.526359  0  1.466709  0  0  1.561742  0  1.424876  0  0  1.02997  1.499956  0  1.496755  0
P  P6  1  0.15105505  0.34445294  0.04364399  1  0  1.500759  0  4.936124  0  0  1.352625  0  5.426264  0  0  1.400744  0  5.390248  0  0  0.288925  1.31926  0  5.45007  0
P  P7  1  0.84894574  0.65554783  0.95635448  1  0  1.500783  0  4.936078  0  0  1.352789  0  5.425938  0  0  1.400917  0  5.389903  0  0  0.288973  1.319396  0  5.449795  0
P  P8  1  0.42130901  0.71969581  0.33877899  1  0  1.507168  0  4.943865  0  0  1.354006  0  5.446439  0  0  1.403202  0  5.408098  0  0  0.29374  1.319662  0  5.472198  0
P  P9  1  0.57868972  0.28029963  0.66122115  1  0  1.507236  0  4.943832  0  0  1.354049  0  5.446433  0  0  1.403259  0  5.40809  0  0  0.293807  1.319704  0  5.472186  0
H  H10  1  0.29909140  0.68837779  0.82403063  1  0  0.44335  0  0.844862  0  0  0.416748  0  0.899191  0  0  0.426577  0  0.884867  0  0  0.310001  0.409727  0  0.909433  0
H  H11  1  0.70091070  0.31162191  0.17596924  1  0  0.443349  0  0.844866  0  0  0.416742  0  0.899207  0  0  0.426573  0  0.88488  0  0  0.309994  0.409721  0  0.909448  0
H  H12  1  0.39678364  0.54112389  0.80538460  1  0  0.425805  0  0.878129  0  0  0.397405  0  0.9387  0  0  0.407774  0  0.923384  0  0  0.308518  0.39003  0  0.949613  0
H  H13  1  0.60321859  0.45887688  0.19461476  1  0  0.425814  0  0.878124  0  0  0.397409  0  0.938703  0  0  0.407779  0  0.923386  0  0  0.308518  0.390034  0  0.949616  0
H  H14  1  0.97772040  0.89354877  0.15462628  1  0  0.427931  0  0.877214  0  0  0.397668  0  0.940162  0  0  0.408542  0  0.924289  0  0  0.302993  0.389993  0  0.951356  0
H  H15  1  0.02227895  0.10645199  0.84537287  1  0  0.427933  0  0.877218  0  0  0.397671  0  0.940163  0  0  0.408545  0  0.924289  0  0  0.302985  0.389994  0  0.951359  0
H  H16  1  0.85940117  0.01641942  0.22104662  1  0  0.43406  0  0.856269  0  0  0.403768  0  0.91805  0  0  0.413776  0  0.903313  0  0  0.307156  0.396556  0  0.928651  0
H  H17  1  0.14059962  0.98358133  0.77895500  1  0  0.43406  0  0.856255  0  0  0.403766  0  0.91804  0  0  0.413773  0  0.903304  0  0  0.307163  0.396555  0  0.928641  0
H  H18  1  0.36505397  0.33053248  0.20003209  1  0  0.116633  0  0.960822  0  0  0.131494  0  1.021191  0  0  0.133765  0  1.020284  0  0  0.112765  0.129645  0  1.022302  0
H  H19  1  0.63495019  0.66947255  0.79996690  1  0  0.116576  0  0.960871  0  0  0.13145  0  1.021239  0  0  0.133719  0  1.020337  0  0  0.112753  0.129603  0  1.022344  0
H  H20  1  0.13325178  0.25426751  0.19636642  1  0  0.15186  0  0.911822  0  0  0.169041  0  0.960114  0  0  0.171775  0  0.959355  0  0  0.121339  0.167074  0  0.96078  0
H  H21  1  0.86675094  0.74573750  0.80363482  1  0  0.151858  0  0.911745  0  0  0.169007  0  0.960112  0  0  0.17174  0  0.959355  0  0  0.121326  0.167041  0  0.960773  0
H  H22  1  0.37332661  0.10470432  0.01384378  1  0  0.127403  0  0.973237  0  0  0.136238  0  1.03911  0  0  0.13957  0  1.037411  0  0  0.116215  0.133732  0  1.040593  0
H  H23  1  0.62667261  0.89529535  0.98615981  1  0  0.127368  0  0.9732  0  0  0.136213  0  1.039036  0  0  0.139544  0  1.037341  0  0  0.1162  0.133706  0  1.040525  0
H  H24  1  0.18753966  0.02858142  0.06561648  1  0  0.133301  0  0.915962  0  0  0.147851  0  0.971307  0  0  0.150809  0  0.969716  0  0  0.120293  0.145721  0  0.972521  0
H  H25  1  0.81245993  0.97142145  0.93438636  1  0  0.13327  0  0.916008  0  0  0.147815  0  0.971344  0  0  0.150788  0  0.969736  0  0  0.120271  0.145684  0  0.972561  0
H  H26  1  0.26764267  0.50705157  0.35871128  1  0  0.141534  0  0.936918  0  0  0.154423  0  0.996212  0  0  0.156944  0  0.995851  0  0  0.115776  0.152545  0  0.996739  0
H  H27  1  0.73235356  0.49294706  0.64128711  1  0  0.14156  0  0.936853  0  0  0.154435  0  0.99615  0  0  0.15696  0  0.995794  0  0  0.115771  0.152556  0  0.996677  0
H  H28  1  0.49415750  0.56802325  0.44493069  1  0  0.135366  0  0.932572  0  0  0.153249  0  0.984894  0  0  0.154966  0  0.98524  0  0  0.116177  0.152009  0  0.984832  0
H  H29  1  0.50583955  0.43197006  0.55506643  1  0  0.135349  0  0.932551  0  0  0.15321  0  0.984905  0  0  0.154931  0  0.985255  0  0  0.116169  0.151969  0  0.984843  0
H  H30  1  0.34002968  0.76350021  0.57957609  1  0  0.136742  0  0.95736  0  0  0.144852  0  1.022115  0  0  0.148709  0  1.019835  0  0  0.119631  0.142099  0  1.023739  0
H  H31  1  0.65996774  0.23649630  0.42042107  1  0  0.136753  0  0.957303  0  0  0.144885  0  1.022028  0  0  0.148741  0  1.019749  0  0  0.119666  0.142136  0  1.023645  0
H  H32  1  0.24498849  0.58857751  0.56479745  1  0  0.141115  0  0.935115  0  0  0.153656  0  0.992321  0  0  0.156857  0  0.990871  0  0  0.115552  0.15117  0  0.993746  0
H  H33  1  0.75500893  0.41141900  0.43520128  1  0  0.141126  0  0.935125  0  0  0.15368  0  0.992303  0  0  0.156885  0  0.990846  0  0  0.115557  0.151196  0  0.993728  0
C  C34  1  0.24458733  0.25867999  0.14395851  1  0  -0.400056  0  3.67578  0  0  -0.423153  0  3.929896  0  0  -0.430613  0  3.936293  0  0  -0.159386  -0.417986  0  3.925717  0
C  C35  1  0.75541383  0.74132396  0.85604236  1  0  -0.399889  0  3.675572  0  0  -0.423092  0  3.929843  0  0  -0.430552  0  3.936237  0  0  -0.159331  -0.41792  0  3.92566  0
C  C36  1  0.30781821  0.11164760  0.08904734  1  0  -0.269313  0  3.645623  0  0  -0.309246  0  3.908209  0  0  -0.313635  0  3.914947  0  0  -0.146027  -0.30623  0  3.903688  0
C  C37  1  0.69218139  0.88835526  0.91095629  1  0  -0.269342  0  3.645585  0  0  -0.309233  0  3.908178  0  0  -0.313635  0  3.914919  0  0  -0.146027  -0.306215  0  3.903643  0
C  C38  1  0.35519474  0.60241765  0.41610531  1  0  -0.409581  0  3.642944  0  0  -0.432855  0  3.89926  0  0  -0.440359  0  3.906134  0  0  -0.157124  -0.427667  0  3.894764  0
C  C39  1  0.64480255  0.39757778  0.58389393  1  0  -0.409606  0  3.642844  0  0  -0.432786  0  3.899058  0  0  -0.440324  0  3.905977  0  0  -0.157122  -0.427596  0  3.89456  0
C  C40  1  0.25956461  0.66635422  0.52045203  1  0  -0.260331  0  3.608467  0  0  -0.298451  0  3.86731  0  0  -0.303384  0  3.874167  0  0  -0.142449  -0.294843  0  3.862788  0
C  C41  1  0.74043294  0.33364335  0.47954620  1  0  -0.260386  0  3.608437  0  0  -0.29853  0  3.867317  0  0  -0.303459  0  3.874188  0  0  -0.142479  -0.294928  0  3.862798  0
S  S42  1  0.48630258  0.06068966  0.17992261  1  0  1.385653  0  5.535704  0  0  1.286222  0  6.064342  0  0  1.332099  0  6.041371  0  0  0.546268  1.254657  0  6.079121  0
S  S43  1  0.51369714  0.93931427  0.82008051  1  0  1.385669  0  5.535746  0  0  1.286212  0  6.064389  0  0  1.332089  0  6.041422  0  0  0.546261  1.254652  0  6.079166  0
S  S44  1  0.01570143  0.70701913  0.49298022  1  0  1.345424  0  5.560269  0  0  1.254685  0  6.079752  0  0  1.300573  0  6.058062  0  0  0.513968  1.222891  0  6.093612  0
S  S45  1  0.98429731  0.29297633  0.50701520  1  0  1.345299  0  5.560394  0  0  1.254518  0  6.079941  0  0  1.300406  0  6.058251  0  0  0.513864  1.222725  0  6.093798  0
O  O46  1  0.08542332  0.48603002  0.11225650  1  0  -0.990605  0  2.009749  0  0  -0.907403  0  2.278745  0  0  -0.934301  0  2.259774  0  0  -0.474423  -0.888439  0  2.291054  0
O  O47  1  0.91457459  0.51397075  0.88774019  1  0  -0.990616  0  2.009803  0  0  -0.907387  0  2.278678  0  0  -0.934282  0  2.259701  0  0  -0.474428  -0.888436  0  2.291029  0
O  O48  1  0.31352968  0.37567808  0.97938805  1  0  -1.031272  0  1.927404  0  0  -0.939365  0  2.192374  0  0  -0.966922  0  2.173921  0  0  -0.491871  -0.919625  0  2.204437  0
O  O49  1  0.68646955  0.62432162  0.02061082  1  0  -1.031282  0  1.927388  0  0  -0.939395  0  2.192338  0  0  -0.966958  0  2.173887  0  0  -0.491888  -0.919633  0  2.20437  0
O  O50  1  0.98704694  0.24310547  0.95856148  1  0  -0.948881  0  1.913575  0  0  -0.85746  0  2.156097  0  0  -0.884582  0  2.13764  0  0  -0.437184  -0.838191  0  2.16824  0
O  O51  1  0.01295529  0.75689530  0.04143631  1  0  -0.948925  0  1.913561  0  0  -0.857522  0  2.156061  0  0  -0.884645  0  2.137601  0  0  -0.437209  -0.838243  0  2.168199  0
O  O52  1  0.67511571  0.13483952  0.18228690  1  0  -0.692007  0  1.921478  0  0  -0.626373  0  2.148651  0  0  -0.6479  0  2.134126  0  0  -0.325786  -0.61099  0  2.158284  0
O  O53  1  0.32488544  0.86516440  0.81771869  1  0  -0.692028  0  1.921519  0  0  -0.626375  0  2.14867  0  0  -0.647897  0  2.134138  0  0  -0.325778  -0.611  0  2.158302  0
O  O54  1  0.42622575  0.10389958  0.29153067  1  0  -0.737222  0  2.006981  0  0  -0.672372  0  2.273572  0  0  -0.69464  0  2.258106  0  0  -0.39969  -0.656479  0  2.283873  0
O  O55  1  0.57377685  0.89610436  0.70847266  1  0  -0.737248  0  2.007033  0  0  -0.672382  0  2.273619  0  0  -0.694653  0  2.258152  0  0  -0.399689  -0.656492  0  2.283918  0
O  O56  1  0.48948662  0.90581592  0.13071309  1  0  -0.744646  0  2.006766  0  0  -0.68639  0  2.279213  0  0  -0.707619  0  2.262892  0  0  -0.383545  -0.671472  0  2.290018  0
O  O57  1  0.51051154  0.09418694  0.86929122  1  0  -0.744625  0  2.00677  0  0  -0.686353  0  2.279222  0  0  -0.707584  0  2.262906  0  0  -0.383529  -0.671409  0  2.289966  0
O  O58  1  0.52979550  0.85459640  0.42495488  1  0  -0.973516  0  1.897904  0  0  -0.888557  0  2.165465  0  0  -0.915119  0  2.144912  0  0  -0.465597  -0.86939  0  2.179162  0
O  O59  1  0.47020611  0.14539903  0.57504626  1  0  -0.973543  0  1.897879  0  0  -0.888605  0  2.165482  0  0  -0.915163  0  2.144911  0  0  -0.465656  -0.869441  0  2.179181  0
O  O60  1  0.23895349  0.76111913  0.27705331  1  0  -1.035425  0  2.020234  0  0  -0.944388  0  2.286152  0  0  -0.972517  0  2.26848  0  0  -0.510972  -0.924278  0  2.298133  0
O  O61  1  0.76105006  0.23888057  0.72294589  1  0  -1.03543  0  2.020243  0  0  -0.944397  0  2.286148  0  0  -0.972528  0  2.268474  0  0  -0.510993  -0.924287  0  2.298127  0
O  O62  1  0.54003740  0.63542566  0.24920342  1  0  -0.983764  0  1.965901  0  0  -0.892569  0  2.227555  0  0  -0.91965  0  2.206976  0  0  -0.461098  -0.87309  0  2.241366  0
O  O63  1  0.45996170  0.36457298  0.75079596  1  0  -0.983743  0  1.965866  0  0  -0.892576  0  2.227543  0  0  -0.919657  0  2.206959  0  0  -0.461098  -0.873098  0  2.241353  0
O  O64  1  0.01895580  0.84190832  0.46276142  1  0  -0.848351  0  2.012859  0  0  -0.775808  0  2.273949  0  0  -0.799001  0  2.258948  0  0  -0.419193  -0.759442  0  2.284522  0
O  O65  1  0.98104330  0.15809030  0.53723876  1  0  -0.848289  0  2.012931  0  0  -0.775748  0  2.274021  0  0  -0.798941  0  2.259023  0  0  -0.419142  -0.759382  0  2.284593  0
O  O66  1  0.92767682  0.73028557  0.59489265  1  0  -0.67134  0  1.897354  0  0  -0.62156  0  2.141623  0  0  -0.642222  0  2.128419  0  0  -0.341773  -0.60689  0  2.150198  0
O  O67  1  0.07232047  0.26970987  0.40510502  1  0  -0.671238  0  1.897387  0  0  -0.621457  0  2.141678  0  0  -0.642113  0  2.128466  0  0  -0.341706  -0.606788  0  2.150254  0
O  O68  1  0.92020309  0.58786618  0.39591979  1  0  -0.709531  0  1.962693  0  0  -0.649118  0  2.214835  0  0  -0.670944  0  2.201017  0  0  -0.373086  -0.63377  0  2.224213  0
O  O69  1  0.07979746  0.41213248  0.60407498  1  0  -0.709604  0  1.96271  0  0  -0.649124  0  2.214781  0  0  -0.670948  0  2.200962  0  0  -0.373091  -0.633774  0  2.224155  0
O  O70  1  0.30694786  0.60302787  0.84810288  1  0  -0.900127  0  1.825564  0  0  -0.844818  0  2.006689  0  0  -0.864536  0  1.976568  0  0  -0.623791  -0.830776  0  2.027993  0
O  O71  1  0.69305281  0.39697183  0.15189610  1  0  -0.900162  0  1.825569  0  0  -0.844827  0  2.006676  0  0  -0.864545  0  1.976553  0  0  -0.623791  -0.830787  0  2.027982  0
O  O72  1  0.95167890  0.94788954  0.23175305  1  0  -0.908324  0  1.788569  0  0  -0.851028  0  1.969166  0  0  -0.870635  0  1.93757  0  0  -0.616071  -0.837055  0  1.991613  0
O  O73  1  0.04832177  0.05211016  0.76824672  1  0  -0.908313  0  1.788546  0  0  -0.851026  0  1.969135  0  0  -0.870633  0  1.937541  0  0  -0.61607  -0.837056  0  1.99158  0
