# generated using pymatgen
data_NaVH9C8(NO3)2
_symmetry_space_group_name_H-M   'P 1'
_cell_length_a   7.91691434
_cell_length_b   8.35696907
_cell_length_c   9.07626984
_cell_angle_alpha   85.26117684
_cell_angle_beta   68.47854161
_cell_angle_gamma   79.60061493
_symmetry_Int_Tables_number   1
_chemical_formula_structural   NaVH9C8(NO3)2
_chemical_formula_sum   'Na2 V2 H18 C16 N4 O12'
_cell_volume   549.36753868
_cell_formula_units_Z   2
loop_
 _symmetry_equiv_pos_site_id
 _symmetry_equiv_pos_as_xyz
  1  'x, y, z'
loop_
 _atom_site_type_symbol
 _atom_site_label
 _atom_site_symmetry_multiplicity
 _atom_site_fract_x
 _atom_site_fract_y
 _atom_site_fract_z
 _atom_site_occupancy
 _atom_site_pbe_bader_spin_density
 _atom_site_pbe_cm5_charge
 _atom_site_pbe_ddec_charge
 _atom_site_pbe_ddec_spin_density
 _atom_site_pbe_ddec_sum_bond_order
 _atom_site_pbe_magmom
Na  Na0  1  0.45329365  0.59530449  0.34518993  1  0  0.689968  0.843372  0  0.545918  0
Na  Na1  1  0.54670033  0.40469780  0.65482284  1  0  0.689932  0.84336  0  0.545897  0
V  V2  1  0.23878832  0.22845020  0.27314711  1  0  1.493573  1.764781  0  3.453586  0
V  V3  1  0.76119531  0.77154235  0.72686299  1  0  1.493485  1.764837  0  3.453505  0
H  H4  1  0.02956634  0.76561452  0.34309806  1  0  0.11533  0.130777  0  1.008084  0
H  H5  1  0.97043220  0.23436549  0.65688987  1  0  0.115362  0.130837  0  1.007949  0
H  H6  1  0.00048716  0.58268444  0.15392229  1  0  0.104915  0.099179  0  1.028542  0
H  H7  1  0.99952318  0.41730748  0.84605116  1  0  0.104887  0.09907  0  1.028605  0
H  H8  1  0.11840130  0.64386016  0.86272052  1  0  0.104216  0.105254  0  1.037464  0
H  H9  1  0.88161261  0.35614999  0.13725251  1  0  0.104251  0.105179  0  1.037567  0
H  H10  1  0.26537919  0.88725138  0.76195024  1  0  0.108279  0.107347  0  1.021358  0
H  H11  1  0.73463344  0.11276385  0.23803707  1  0  0.108244  0.107296  0  1.021272  0
H  H12  1  0.37854026  0.12041222  0.80378667  1  0  0.131162  0.091148  0  1.008366  0
H  H13  1  0.62147599  0.87959475  0.19621899  1  0  0.131225  0.091217  0  1.008478  0
H  H14  1  0.83440986  0.46929652  0.39096858  1  0  0.291303  0.415564  0  0.913202  0
H  H15  1  0.16559060  0.53070921  0.60903203  1  0  0.291256  0.415503  0  0.913281  0
H  H16  1  0.49121987  0.84495605  0.51553533  1  0  0.28539  0.390902  0  0.948215  0
H  H17  1  0.50877267  0.15504852  0.48446666  1  0  0.285399  0.390849  0  0.948315  0
H  H18  1  0.72625713  0.64146588  0.46389214  1  0  0.28881  0.3879  0  0.954238  0
H  H19  1  0.27373417  0.35853641  0.53612034  1  0  0.28878  0.38787  0  0.954283  0
H  H20  1  0.34580440  0.95270608  0.45219950  1  0  0.290689  0.391974  0  0.940361  0
H  H21  1  0.65419329  0.04730081  0.54779633  1  0  0.290731  0.392053  0  0.940251  0
C  C22  1  0.16679596  0.92881463  0.15995709  1  0  0.106189  0.344687  0  4.055461  0
C  C23  1  0.83320325  0.07117527  0.84004193  1  0  0.106183  0.344717  0  4.055565  0
C  C24  1  0.08150196  0.79068065  0.21585369  1  0  -0.09582  -0.209302  0  3.914045  0
C  C25  1  0.91850571  0.20930904  0.78413287  1  0  -0.095899  -0.20947  0  3.914031  0
C  C26  1  0.06572750  0.68972439  0.10889278  1  0  -0.077051  -0.029125  0  3.982044  0
C  C27  1  0.93428675  0.31026759  0.89108499  1  0  -0.077104  -0.029056  0  3.982343  0
C  C28  1  0.13299605  0.72295885  0.94512918  1  0  -0.102387  -0.122214  0  4.015728  0
C  C29  1  0.86702223  0.27704157  0.05484446  1  0  -0.10223  -0.122016  0  4.016022  0
C  C30  1  0.21492799  0.85951217  0.88868443  1  0  -0.074164  -0.079767  0  3.9634  0
C  C31  1  0.78508601  0.14049459  0.11130649  1  0  -0.074284  -0.079821  0  3.963342  0
C  C32  1  0.23363346  0.96472857  0.99411494  1  0  -0.02719  -0.089504  0  4.063246  0
C  C33  1  0.76637543  0.03526851  0.00587835  1  0  -0.027169  -0.089526  0  4.063315  0
C  C34  1  0.32089523  0.10280098  0.93275797  1  0  0.08424  0.09988  0  3.924786  0
C  C35  1  0.67911440  0.89719750  0.06724819  1  0  0.084305  0.10001  0  3.925087  0
C  C36  1  0.45147834  0.42987720  0.03389682  1  0  0.219514  0.35295  0  4.164202  0
C  C37  1  0.54851155  0.57012289  0.96613170  1  0  0.219377  0.352793  0  4.164238  0
N  N38  1  0.34000059  0.21150450  0.01992342  1  0  -0.291344  -0.240246  0  3.61384  0
N  N39  1  0.66000054  0.78849533  0.98008961  1  0  -0.291412  -0.240487  0  3.613902  0
N  N40  1  0.43347253  0.33352721  0.93545950  1  0  -0.319736  -0.34197  0  3.340814  0
N  N41  1  0.56652230  0.66647642  0.06456282  1  0  -0.319697  -0.341844  0  3.340731  0
O  O42  1  0.18828065  0.02067823  0.26170848  1  0  -0.380864  -0.560317  0  2.39545  0
O  O43  1  0.81170985  0.97931423  0.73829736  1  0  -0.380839  -0.560307  0  2.395575  0
O  O44  1  0.38968329  0.40595079  0.18750133  1  0  -0.39636  -0.613513  0  2.399429  0
O  O45  1  0.61030612  0.59404442  0.81252665  1  0  -0.39639  -0.613611  0  2.39936  0
O  O46  1  0.03649888  0.34269881  0.33720700  1  0  -0.579131  -0.73759  0  1.646784  0
O  O47  1  0.96348797  0.65730815  0.66279099  1  0  -0.579056  -0.737488  0  1.646733  0
O  O48  1  0.32212695  0.18529713  0.42009233  1  0  -0.5948  -0.819546  0  1.755523  0
O  O49  1  0.67785473  0.81469906  0.57991695  1  0  -0.594789  -0.819646  0  1.755616  0
O  O50  1  0.39853906  0.83971464  0.46746021  1  0  -0.664455  -0.812223  0  1.897482  0
O  O51  1  0.60145688  0.16029580  0.53252814  1  0  -0.664482  -0.81221  0  1.897503  0
O  O52  1  0.71217318  0.54041121  0.42245289  1  0  -0.710217  -0.870288  0  1.906185  0
O  O53  1  0.28782160  0.45959468  0.57755713  1  0  -0.710123  -0.870216  0  1.90629  0
