# generated using pymatgen
data_ZnH10C22S2N5O18
_symmetry_space_group_name_H-M   'P 1'
_cell_length_a   10.94531503
_cell_length_b   14.12272670
_cell_length_c   15.23289742
_cell_angle_alpha   90.01302791
_cell_angle_beta   90.26471996
_cell_angle_gamma   89.67611448
_symmetry_Int_Tables_number   1
_chemical_formula_structural   ZnH10C22S2N5O18
_chemical_formula_sum   'Zn2 H20 C44 S4 N10 O36'
_cell_volume   2354.60333727
_cell_formula_units_Z   2
loop_
 _symmetry_equiv_pos_site_id
 _symmetry_equiv_pos_as_xyz
  1  'x, y, z'
loop_
 _atom_site_type_symbol
 _atom_site_label
 _atom_site_symmetry_multiplicity
 _atom_site_fract_x
 _atom_site_fract_y
 _atom_site_fract_z
 _atom_site_occupancy
 _atom_site_pbe_bader_charge
 _atom_site_pbe_bader_spin_density
 _atom_site_pbe_cm5_charge
 _atom_site_pbe_ddec_charge
 _atom_site_pbe_ddec_spin_density
 _atom_site_pbe_ddec_sum_bond_order
 _atom_site_pbe_magmom
Zn  Zn0  1  0.49056607  0.59795234  0.50118146  1  1.316312  0  0.692323  0.855658  0  2.376064  0
Zn  Zn1  1  0.49951378  0.39609010  0.49571176  1  1.302261  0  0.688538  0.85085  0  2.376696  0
H  H2  1  0.79532404  0.27947062  0.87713540  1  0.116998  0  0.113577  0.120653  0  0.990353  0
H  H3  1  0.25516669  0.83373383  0.24536024  1  0.070429  0  0.109175  0.10516  0  0.981884  0
H  H4  1  0.91066520  0.43225809  0.88037054  1  0.114937  0  0.12266  0.141171  0  0.977963  0
H  H5  1  0.18296935  0.68559504  0.17131913  1  0.154118  0  0.121475  0.131559  0  0.985437  0
H  H6  1  0.81165898  0.28081281  0.59450207  1  0.101655  0  0.102045  0.11005  0  1.046601  0
H  H7  1  0.14385710  0.71748670  0.49410069  1  0.07991  0  0.107704  0.114562  0  1.001249  0
H  H8  1  0.74436069  0.20555703  0.73372200  1  0.095748  0  0.116953  0.118821  0  0.965026  0
H  H9  1  0.23159160  0.84956144  0.40831964  1  0.080399  0  0.09647  0.087858  0  1.001957  0
H  H10  1  0.67322337  0.60324248  0.22615718  1  0.190256  0  0.117458  0.13013  0  1.032581  0
H  H11  1  0.48724794  0.34064688  0.77586816  1  0.147518  0  0.123534  0.139335  0  0.985859  0
H  H12  1  0.38533468  0.40837198  0.05494402  1  0.132954  0  0.119247  0.146904  0  1.014876  0
H  H13  1  0.59133422  0.63438161  0.93428225  1  0.1563  0  0.119224  0.126799  0  1.025696  0
H  H14  1  0.32681020  0.24744436  0.52066333  1  0.208551  0  0.139466  0.127011  0  0.993244  0
H  H15  1  0.59089672  0.74311648  0.40288319  1  0.185148  0  0.141575  0.127088  0  0.977164  0
H  H16  1  0.31455981  0.07227494  0.53256573  1  0.158004  0  0.13176  0.148503  0  0.977122  0
H  H17  1  0.60255040  0.91778856  0.38812301  1  0.142986  0  0.131365  0.145386  0  0.969404  0
H  H18  1  0.79204543  0.61183095  0.92297663  1  0.669884  0  0.315532  0.389743  0  0.935967  0
H  H19  1  0.61705041  0.32292207  0.06902111  1  0.643105  0  0.338167  0.389271  0  0.869919  0
H  H20  1  0.39628642  0.23961268  0.21614503  1  0.64255  0  0.350532  0.401738  0  0.842364  0
H  H21  1  0.81677925  0.61003541  0.68664663  1  0.671872  0  0.312294  0.36181  0  0.986898  0
C  C22  1  0.51425891  0.51876493  0.33050095  1  1.617671  0  0.224268  0.609995  0  4.165303  0
C  C23  1  0.50528087  0.48529057  0.66693418  1  1.620495  0  0.219248  0.600885  0  4.166939  0
C  C24  1  0.73199117  0.49668447  0.51235583  1  1.610932  0  0.220312  0.60596  0  4.163968  0
C  C25  1  0.26252878  0.48330195  0.48651116  1  1.626083  0  0.227654  0.621499  0  4.14838  0
C  C26  1  0.88644416  0.39823593  0.81853368  1  0.017165  0  -0.071884  -0.112306  0  3.949192  0
C  C27  1  0.17646069  0.69460231  0.24207245  1  -0.031631  0  -0.073351  -0.106162  0  3.957961  0
C  C28  1  0.91841183  0.44159308  0.73951262  1  0.205425  0  0.073489  2.5e-05  0  3.936291  0
C  C29  1  0.12462988  0.62167445  0.29118499  1  0.167139  0  0.081856  0.033548  0  3.872389  0
C  C30  1  0.89111290  0.40173700  0.65650581  1  -0.001532  0  -0.000144  0.028298  0  3.949349  0
C  C31  1  0.11342765  0.62763922  0.38272857  1  0.076862  0  0.005366  0.041455  0  3.937385  0
C  C32  1  0.82925015  0.31526981  0.65703408  1  -0.001283  0  -0.07761  -0.093424  0  3.928079  0
C  C33  1  0.15300582  0.71141774  0.42320215  1  -0.001424  0  -0.078572  -0.09301  0  3.94565  0
C  C34  1  0.79382970  0.27235315  0.73539962  1  -0.030552  0  -0.064512  -0.039581  0  3.932574  0
C  C35  1  0.20335112  0.78488037  0.37480891  1  -0.087156  0  -0.085739  -0.067247  0  4.008401  0
C  C36  1  0.82244135  0.31352576  0.81623039  1  0.008451  0  -0.07255  -0.051529  0  3.959376  0
C  C37  1  0.21607353  0.77642647  0.28386123  1  0.04762  0  -0.081911  -0.068654  0  4.009229  0
C  C38  1  0.06498355  0.43808410  0.55707148  1  0.148012  0  0.08804  0.015676  0  3.885579  0
C  C39  1  0.93057413  0.55511991  0.45352658  1  0.193241  0  0.094842  0.023989  0  3.879153  0
C  C40  1  0.12580659  0.49100088  0.49307944  1  0.102481  0  0.011598  -0.072679  0  3.850088  0
C  C41  1  0.86953067  0.49899939  0.51442333  1  0.105857  0  0.008424  -0.07295  0  3.875176  0
C  C42  1  0.05734355  0.55529964  0.44164286  1  0.09746  0  0.028028  0.053592  0  3.91582  0
C  C43  1  0.93975219  0.44423528  0.57373720  1  0.102615  0  0.008943  0.019554  0  3.948305  0
C  C44  1  0.62837417  0.55097545  0.09732641  1  -0.169221  0  -0.000983  -0.103431  0  3.84254  0
C  C45  1  0.52448099  0.40263616  0.90280293  1  -0.156633  0  -0.006632  -0.128755  0  3.892791  0
C  C46  1  0.61094426  0.55965483  0.18785920  1  -0.024701  0  -0.066127  -0.087651  0  3.899285  0
C  C47  1  0.51057341  0.40468944  0.81188638  1  0.005799  0  -0.061675  -0.079149  0  3.929451  0
C  C48  1  0.52010987  0.50992164  0.23218252  1  0.013925  0  0.010534  0.012295  0  3.885123  0
C  C49  1  0.53222875  0.48678146  0.76332456  1  0.036021  0  0.001775  -0.010999  0  3.910255  0
C  C50  1  0.44302208  0.45120678  0.18261231  1  -0.142648  0  -0.007634  -0.097354  0  3.942565  0
C  C51  1  0.57517620  0.56648371  0.80894282  1  -0.159625  0  0.001824  -0.076235  0  3.887987  0
C  C52  1  0.45308788  0.44833643  0.09169980  1  0.033506  0  -0.084224  -0.162684  0  3.979669  0
C  C53  1  0.57044001  0.56850187  0.90016929  1  0.013145  0  -0.075226  -0.132302  0  3.949342  0
C  C54  1  0.54642560  0.49580108  0.04658105  1  -0.007869  0  -0.000661  0.055317  0  3.984961  0
C  C55  1  0.54632933  0.48746082  0.94986879  1  0.022989  0  0.007946  0.084807  0  3.962859  0
C  C56  1  0.61096897  0.09811828  0.47363530  1  0.253595  0  0.099448  -0.04561  0  3.876767  0
C  C57  1  0.44214065  0.89908369  0.57760801  1  0.233857  0  0.106663  -0.033772  0  3.860898  0
C  C58  1  0.60517606  0.19540285  0.45996238  1  0.828076  0  0.231967  0.183162  0  3.907531  0
C  C59  1  0.43141479  0.80093287  0.57614905  1  0.870088  0  0.235659  0.193259  0  3.881547  0
C  C60  1  0.40567483  0.20262433  0.50615794  1  0.462807  0  0.087384  0.151012  0  3.809897  0
C  C61  1  0.54809281  0.78962944  0.45100812  1  0.49125  0  0.085152  0.142962  0  3.832042  0
C  C62  1  0.40091682  0.10473872  0.51471211  1  0.063603  0  -0.05695  -0.139742  0  3.863199  0
C  C63  1  0.55620106  0.88749044  0.44454713  1  0.035557  0  -0.056247  -0.13399  0  3.874131  0
C  C64  1  0.50594959  0.04962093  0.50084900  1  0.033183  0  0.029597  0.078993  0  3.951428  0
C  C65  1  0.50324570  0.94515731  0.50884777  1  0.031366  0  0.028143  0.069544  0  3.957714  0
S  S66  1  0.75563321  0.62291242  0.06107343  1  3.094951  0  0.541258  1.153851  0  6.002778  0
S  S67  1  0.52634392  0.28487198  0.94857523  1  3.056317  0  0.545716  1.143873  0  5.989568  0
S  S68  1  0.32509941  0.37832378  0.22786598  1  3.062595  0  0.54662  1.154169  0  5.941286  0
S  S69  1  0.66460776  0.66214850  0.76478009  1  3.138255  0  0.553762  1.18725  0  5.955883  0
N  N70  1  0.50684332  0.24745568  0.47861411  1  -1.219002  0  -0.286737  -0.209336  0  3.450568  0
N  N71  1  0.48381914  0.74711444  0.51484838  1  -1.220671  0  -0.284619  -0.212143  0  3.457961  0
N  N72  1  0.72774302  0.04682154  0.45960828  1  0.415564  0  0.056841  0.497127  0  4.295052  0
N  N73  1  0.38781231  0.95644906  0.64926843  1  0.460207  0  0.058222  0.497881  0  4.301053  0
N  N74  1  0.71199200  0.24376060  0.41919817  1  0.452584  0  0.065752  0.471985  0  4.254269  0
N  N75  1  0.35014474  0.75378273  0.64186226  1  0.459104  0  0.07029  0.475201  0  4.222835  0
N  N76  1  0.98403173  0.53144972  0.74788804  1  0.355205  0  0.059142  0.509515  0  4.18371  0
N  N77  1  0.08073908  0.53836351  0.24158760  1  0.404527  0  0.056432  0.517553  0  4.216177  0
N  N78  1  0.13783614  0.37422562  0.61503575  1  0.440027  0  0.059839  0.516801  0  4.246002  0
N  N79  1  0.85662846  0.61885834  0.39678874  1  0.421947  0  0.061232  0.520235  0  4.236323  0
O  O80  1  0.51038933  0.60118424  0.36324858  1  -1.14063  0  -0.304928  -0.533249  0  2.288031  0
O  O81  1  0.49730643  0.40488497  0.63011474  1  -1.160215  0  -0.310359  -0.531332  0  2.318675  0
O  O82  1  0.51658559  0.44066571  0.37147013  1  -1.15475  0  -0.307086  -0.544103  0  2.440771  0
O  O83  1  0.48878569  0.56568754  0.63120215  1  -1.156933  0  -0.309986  -0.543909  0  2.402081  0
O  O84  1  0.67623101  0.57502934  0.50480539  1  -1.145979  0  -0.304968  -0.531278  0  2.388589  0
O  O85  1  0.31125734  0.40216584  0.49634431  1  -1.14821  0  -0.304015  -0.537402  0  2.352694  0
O  O86  1  0.68565022  0.41465479  0.51462294  1  -1.153302  0  -0.303769  -0.534723  0  2.363822  0
O  O87  1  0.31790815  0.56035497  0.47459296  1  -1.150825  0  -0.294225  -0.526529  0  2.453678  0
O  O88  1  0.77609814  0.01235846  0.52538233  1  -0.384912  0  -0.086726  -0.260556  0  1.861559  0
O  O89  1  0.76391854  0.04188875  0.38298781  1  -0.404507  0  -0.104442  -0.291145  0  1.87258  0
O  O90  1  0.46031835  0.99418846  0.69991577  1  -0.378134  0  -0.079187  -0.247997  0  1.867254  0
O  O91  1  0.27533062  0.96492265  0.64790778  1  -0.430304  0  -0.105017  -0.294441  0  1.886189  0
O  O92  1  0.69038871  0.28760106  0.35143190  1  -0.356793  0  -0.071716  -0.230719  0  1.929987  0
O  O93  1  0.81167775  0.23173272  0.45604232  1  -0.421066  0  -0.095323  -0.280164  0  1.949092  0
O  O94  1  0.28885416  0.68755760  0.61369650  1  -0.386814  0  -0.082218  -0.260495  0  2.01032  0
O  O95  1  0.34859653  0.78794678  0.71604399  1  -0.387677  0  -0.083728  -0.251737  0  1.951501  0
O  O96  1  0.95718136  0.59705492  0.69440666  1  -0.516686  0  -0.13834  -0.351843  0  2.014631  0
O  O97  1  0.06035210  0.53994437  0.80635644  1  -0.374868  0  -0.082119  -0.253773  0  1.890448  0
O  O98  1  0.01497420  0.48124517  0.28064075  1  -0.439468  0  -0.124461  -0.323157  0  1.964548  0
O  O99  1  0.11248884  0.53123045  0.16402608  1  -0.449886  0  -0.126845  -0.32342  0  1.934685  0
O  O100  1  0.19809711  0.41147607  0.67428357  1  -0.432533  0  -0.111855  -0.298394  0  1.917734  0
O  O101  1  0.12939803  0.28833579  0.60073806  1  -0.458233  0  -0.121052  -0.315107  0  1.889958  0
O  O102  1  0.79584420  0.58127133  0.33824490  1  -0.428415  0  -0.09378  -0.280842  0  2.006726  0
O  O103  1  0.86284213  0.70472123  0.41192265  1  -0.437773  0  -0.122566  -0.320486  0  1.894703  0
O  O104  1  0.70518962  0.71359787  0.03561123  1  -1.283855  0  -0.317511  -0.528523  0  2.095576  0
O  O105  1  0.84694336  0.61648003  0.12853401  1  -1.262174  0  -0.298546  -0.500617  0  2.165626  0
O  O106  1  0.80820239  0.57133104  0.97645316  1  -1.24749  0  -0.356176  -0.535806  0  2.2194  0
O  O107  1  0.41734965  0.26567318  0.99781648  1  -1.283223  0  -0.30474  -0.521597  0  2.152453  0
O  O108  1  0.56533421  0.22176212  0.88041241  1  -1.281405  0  -0.292354  -0.496099  0  2.133716  0
O  O109  1  0.64150775  0.28992154  0.01503684  1  -1.196659  0  -0.355016  -0.521984  0  2.150713  0
O  O110  1  0.27547932  0.42336348  0.30398431  1  -1.289427  0  -0.287774  -0.494853  0  2.254974  0
O  O111  1  0.24964565  0.34507789  0.15710055  1  -1.271904  0  -0.297892  -0.506351  0  2.144226  0
O  O112  1  0.40234548  0.28696857  0.26305607  1  -1.185208  0  -0.366461  -0.541016  0  2.144981  0
O  O113  1  0.59181385  0.74257153  0.74033133  1  -1.280462  0  -0.305397  -0.515425  0  2.180216  0
O  O114  1  0.76122148  0.67510791  0.83016297  1  -1.302562  0  -0.313114  -0.558578  0  2.187111  0
O  O115  1  0.72371693  0.61818928  0.68089993  1  -1.282225  0  -0.346659  -0.522985  0  2.356987  0
