# generated using pymatgen
data_LiH4C9N4(OF)3
_symmetry_space_group_name_H-M   'P 1'
_cell_length_a   8.61662496
_cell_length_b   11.63095288
_cell_length_c   12.14906147
_cell_angle_alpha   106.36019336
_cell_angle_beta   89.99994192
_cell_angle_gamma   90.00002479
_symmetry_Int_Tables_number   1
_chemical_formula_structural   LiH4C9N4(OF)3
_chemical_formula_sum   'Li4 H16 C36 N16 O12 F12'
_cell_volume   1168.27390823
_cell_formula_units_Z   4
loop_
 _symmetry_equiv_pos_site_id
 _symmetry_equiv_pos_as_xyz
  1  'x, y, z'
loop_
 _atom_site_type_symbol
 _atom_site_label
 _atom_site_symmetry_multiplicity
 _atom_site_fract_x
 _atom_site_fract_y
 _atom_site_fract_z
 _atom_site_occupancy
 _atom_site_hle17_bader_spin_density
 _atom_site_hle17_ddec_charge
 _atom_site_hle17_ddec_spin_density
 _atom_site_hle17_ddec_sum_bond_order
 _atom_site_hle17_magmom
 _atom_site_hse06_10hf_bader_spin_density
 _atom_site_hse06_10hf_ddec_charge
 _atom_site_hse06_10hf_ddec_spin_density
 _atom_site_hse06_10hf_ddec_sum_bond_order
 _atom_site_hse06_10hf_magmom
 _atom_site_hse06_bader_spin_density
 _atom_site_hse06_ddec_charge
 _atom_site_hse06_ddec_spin_density
 _atom_site_hse06_ddec_sum_bond_order
 _atom_site_hse06_magmom
 _atom_site_pbe_bader_spin_density
 _atom_site_pbe_cm5_charge
 _atom_site_pbe_ddec_charge
 _atom_site_pbe_ddec_spin_density
 _atom_site_pbe_ddec_sum_bond_order
 _atom_site_pbe_magmom
Li  Li0  1  0.69805851  0.70882924  0.55685116  1  0  0.836241  0  0.425809  0  0  0.77281  0  0.570811  0  0  0.784675  0  0.551195  0  0  0.538596  0.764357  0  0.584674  0
Li  Li1  1  0.19805854  0.79117051  0.94314819  1  0  0.836245  0  0.4258  0  0  0.77282  0  0.570795  0  0  0.784685  0  0.55118  0  0  0.538603  0.764369  0  0.58466  0
Li  Li2  1  0.30194165  0.29117122  0.44314761  1  0  0.836245  0  0.425804  0  0  0.772824  0  0.570793  0  0  0.784688  0  0.551178  0  0  0.538613  0.764371  0  0.584657  0
Li  Li3  1  0.80194046  0.20882994  0.05685222  1  0  0.836238  0  0.425818  0  0  0.772814  0  0.570809  0  0  0.784678  0  0.551194  0  0  0.538604  0.764365  0  0.584667  0
H  H4  1  0.87326432  0.93490871  0.19055854  1  0  0.080659  0  0.946813  0  0  0.084528  0  1.020776  0  0  0.085579  0  1.020109  0  0  0.106896  0.083711  0  1.0213  0
H  H5  1  0.37326326  0.56509145  0.30944110  1  0  0.080623  0  0.946811  0  0  0.084509  0  1.020774  0  0  0.08556  0  1.020107  0  0  0.106881  0.083689  0  1.021303  0
H  H6  1  0.12673700  0.06509175  0.80944105  1  0  0.080603  0  0.946832  0  0  0.084504  0  1.020786  0  0  0.085554  0  1.020122  0  0  0.106893  0.083686  0  1.021314  0
H  H7  1  0.62673574  0.43490900  0.69055849  1  0  0.080622  0  0.946825  0  0  0.084511  0  1.020774  0  0  0.085562  0  1.020109  0  0  0.10688  0.083708  0  1.021265  0
H  H8  1  0.98168727  0.79526970  0.15476908  1  0  0.093026  0  0.945982  0  0  0.100306  0  1.011011  0  0  0.10179  0  1.010248  0  0  0.111278  0.099194  0  1.011597  0
H  H9  1  0.48168624  0.70473047  0.34523049  1  0  0.093028  0  0.945968  0  0  0.100339  0  1.010985  0  0  0.101824  0  1.010222  0  0  0.111294  0.099225  0  1.011576  0
H  H10  1  0.01831405  0.20473076  0.84523052  1  0  0.093025  0  0.945954  0  0  0.100344  0  1.010968  0  0  0.101828  0  1.010204  0  0  0.111292  0.09923  0  1.011562  0
H  H11  1  0.51831393  0.29526998  0.65476993  1  0  0.093044  0  0.945966  0  0  0.100327  0  1.011  0  0  0.101811  0  1.010238  0  0  0.111294  0.099203  0  1.011605  0
H  H12  1  0.13590242  0.86946313  0.32366248  1  0  0.087635  0  0.934269  0  0  0.091472  0  1.003617  0  0  0.093872  0  1.000678  0  0  0.106898  0.089648  0  1.00588  0
H  H13  1  0.63590217  0.63053700  0.17633814  1  0  0.087646  0  0.934273  0  0  0.091474  0  1.003617  0  0  0.093875  0  1.000677  0  0  0.106901  0.08965  0  1.00588  0
H  H14  1  0.86409774  0.13053733  0.67633876  1  0  0.087641  0  0.934279  0  0  0.091465  0  1.003639  0  0  0.093867  0  1.000698  0  0  0.106902  0.08964  0  1.005906  0
H  H15  1  0.36409683  0.36946346  0.82366227  1  0  0.087663  0  0.934257  0  0  0.091468  0  1.003628  0  0  0.093869  0  1.000687  0  0  0.106893  0.08964  0  1.005902  0
H  H16  1  0.03116508  0.00895173  0.35749282  1  0  0.08302  0  0.939604  0  0  0.088015  0  1.011201  0  0  0.089168  0  1.010215  0  0  0.108147  0.08712  0  1.011986  0
H  H17  1  0.53116625  0.49104671  0.14250648  1  0  0.083039  0  0.939611  0  0  0.088008  0  1.01123  0  0  0.089161  0  1.010245  0  0  0.108141  0.087117  0  1.012008  0
H  H18  1  0.96883392  0.99104784  0.64250736  1  0  0.083019  0  0.939624  0  0  0.088018  0  1.011217  0  0  0.089171  0  1.010231  0  0  0.108154  0.087124  0  1.012001  0
H  H19  1  0.46883275  0.50895285  0.85749287  1  0  0.083047  0  0.939595  0  0  0.088015  0  1.011216  0  0  0.089168  0  1.010229  0  0  0.108142  0.087119  0  1.012007  0
C  C20  1  0.66284865  0.30043764  0.40591993  1  0  0.082193  0  3.894777  0  0  0.07832  0  4.151155  0  0  0.07826  0  4.170948  0  0  0.107923  0.078462  0  4.137722  0
C  C21  1  0.16284797  0.19956260  0.09407975  1  0  0.082171  0  3.89479  0  0  0.078306  0  4.151161  0  0  0.078243  0  4.170954  0  0  0.107916  0.07847  0  4.137687  0
C  C22  1  0.33715151  0.69956281  0.59408048  1  0  0.082212  0  3.894775  0  0  0.078344  0  4.151146  0  0  0.078286  0  4.170939  0  0  0.107918  0.078507  0  4.137683  0
C  C23  1  0.83715219  0.80043785  0.90592066  1  0  0.0822  0  3.894796  0  0  0.078329  0  4.151173  0  0  0.078268  0  4.170966  0  0  0.10792  0.078466  0  4.13774  0
C  C24  1  0.78740554  0.21870015  0.37136896  1  0  0.069768  0  3.884867  0  0  0.066212  0  4.1472  0  0  0.067202  0  4.165102  0  0  0.10845  0.06558  0  4.135095  0
C  C25  1  0.28740486  0.28130012  0.12863147  1  0  0.069794  0  3.884892  0  0  0.066233  0  4.147229  0  0  0.067225  0  4.165132  0  0  0.108469  0.065595  0  4.135115  0
C  C26  1  0.21259462  0.78130031  0.62863228  1  0  0.069782  0  3.884801  0  0  0.066221  0  4.14714  0  0  0.06721  0  4.165042  0  0  0.108469  0.065577  0  4.135035  0
C  C27  1  0.71259530  0.71870034  0.87136895  1  0  0.069739  0  3.884834  0  0  0.066178  0  4.147172  0  0  0.067168  0  4.165074  0  0  0.108448  0.065526  0  4.135077  0
C  C28  1  0.57500567  0.12348261  0.34053323  1  0  0.153173  0  3.839517  0  0  0.136888  0  4.118775  0  0  0.140844  0  4.135866  0  0  0.194164  0.134414  0  4.107186  0
C  C29  1  0.07500616  0.37651763  0.15946734  1  0  0.153195  0  3.839524  0  0  0.136911  0  4.118789  0  0  0.14087  0  4.135877  0  0  0.19418  0.134436  0  4.1072  0
C  C30  1  0.42499449  0.87651785  0.65946719  1  0  0.153176  0  3.839562  0  0  0.136897  0  4.118821  0  0  0.140853  0  4.135911  0  0  0.194183  0.134421  0  4.107231  0
C  C31  1  0.92499400  0.62348283  0.84053307  1  0  0.153163  0  3.839518  0  0  0.136888  0  4.11877  0  0  0.140844  0  4.135861  0  0  0.194166  0.13446  0  4.107106  0
C  C32  1  0.67291060  0.42543475  0.45199420  1  0  0.326069  0  3.750096  0  0  0.307615  0  4.020741  0  0  0.321338  0  4.034997  0  0  0.226552  0.298117  0  4.011334  0
C  C33  1  0.17291108  0.07456550  0.04800713  1  0  0.326115  0  3.749991  0  0  0.307657  0  4.020639  0  0  0.321382  0  4.034894  0  0  0.22657  0.298148  0  4.011233  0
C  C34  1  0.32708840  0.57456571  0.54800704  1  0  0.326014  0  3.75002  0  0  0.307557  0  4.020668  0  0  0.32128  0  4.034925  0  0  0.226535  0.298051  0  4.011254  0
C  C35  1  0.82708908  0.92543496  0.95199411  1  0  0.326023  0  3.750135  0  0  0.30757  0  4.020776  0  0  0.321295  0  4.035031  0  0  0.226518  0.298064  0  4.011379  0
C  C36  1  0.94748795  0.24435362  0.37696884  1  0  0.328972  0  3.732349  0  0  0.308825  0  4.009536  0  0  0.322425  0  4.022899  0  0  0.225547  0.299433  0  4.000728  0
C  C37  1  0.44748726  0.25564666  0.12303147  1  0  0.328978  0  3.732437  0  0  0.308834  0  4.009621  0  0  0.322433  0  4.022986  0  0  0.225547  0.299424  0  4.000841  0
C  C38  1  0.05251221  0.75564684  0.62303240  1  0  0.328946  0  3.732391  0  0  0.308802  0  4.00958  0  0  0.322401  0  4.022944  0  0  0.225548  0.299397  0  4.00079  0
C  C39  1  0.55251174  0.74435379  0.87696894  1  0  0.328985  0  3.73235  0  0  0.308841  0  4.009533  0  0  0.32244  0  4.022897  0  0  0.225545  0.299425  0  4.00076  0
C  C40  1  0.46294207  0.02140256  0.30276841  1  0  0.754172  0  3.643444  0  0  0.672717  0  3.992494  0  0  0.703799  0  3.965365  0  0  0.317016  0.650616  0  4.011924  0
C  C41  1  0.96294199  0.47859773  0.19723190  1  0  0.754201  0  3.643328  0  0  0.672726  0  3.99241  0  0  0.703806  0  3.965281  0  0  0.317015  0.650624  0  4.011839  0
C  C42  1  0.53705809  0.97859790  0.69723119  1  0  0.754255  0  3.643257  0  0  0.672772  0  3.992349  0  0  0.703857  0  3.965217  0  0  0.317023  0.650671  0  4.011781  0
C  C43  1  0.03705701  0.52140183  0.80276828  1  0  0.754228  0  3.643363  0  0  0.672747  0  3.992438  0  0  0.703825  0  3.965314  0  0  0.317029  0.650751  0  4.011658  0
C  C44  1  0.80718260  0.81635650  0.37418149  1  0  0.834138  0  3.830806  0  0  0.758185  0  4.156468  0  0  0.800689  0  4.13547  0  0  0.330042  0.728943  0  4.170755  0
C  C45  1  0.30718303  0.68364275  0.12581713  1  0  0.834396  0  3.830555  0  0  0.758354  0  4.15632  0  0  0.800858  0  4.135319  0  0  0.330098  0.729111  0  4.170602  0
C  C46  1  0.19281640  0.18364305  0.62581704  1  0  0.834412  0  3.830511  0  0  0.758431  0  4.156184  0  0  0.800937  0  4.135182  0  0  0.330149  0.729229  0  4.170391  0
C  C47  1  0.69281597  0.31635592  0.87418280  1  0  0.834253  0  3.830617  0  0  0.758268  0  4.156313  0  0  0.800774  0  4.135313  0  0  0.330106  0.729016  0  4.170609  0
C  C48  1  0.92170668  0.86320256  0.22211998  1  0  0.056881  0  3.51284  0  0  -0.005274  0  3.785314  0  0  0.001307  0  3.788769  0  0  -0.063646  -0.009632  0  3.782848  0
C  C49  1  0.42170686  0.63679761  0.27787962  1  0  0.056971  0  3.512774  0  0  -0.00526  0  3.785291  0  0  0.001322  0  3.788745  0  0  -0.063643  -0.009619  0  3.782829  0
C  C50  1  0.07829348  0.13679790  0.77787961  1  0  0.056989  0  3.51274  0  0  -0.005271  0  3.785304  0  0  0.001311  0  3.788758  0  0  -0.063645  -0.009638  0  3.782854  0
C  C51  1  0.57829330  0.36320285  0.72212079  1  0  0.056895  0  3.512869  0  0  -0.005305  0  3.785369  0  0  0.001278  0  3.788821  0  0  -0.063653  -0.009648  0  3.782889  0
C  C52  1  0.02128330  0.91133335  0.33022700  1  0  0.068498  0  3.503223  0  0  0.00881  0  3.774262  0  0  0.016296  0  3.776401  0  0  -0.061184  0.003771  0  3.772891  0
C  C53  1  0.52128304  0.58866587  0.16977263  1  0  0.068445  0  3.503247  0  0  0.008826  0  3.774259  0  0  0.016312  0  3.776399  0  0  -0.061177  0.003786  0  3.772879  0
C  C54  1  0.97871570  0.08866621  0.66977317  1  0  0.068521  0  3.503198  0  0  0.008846  0  3.774251  0  0  0.016334  0  3.776389  0  0  -0.061183  0.003805  0  3.772882  0
C  C55  1  0.47871596  0.41133369  0.83022754  1  0  0.068469  0  3.503245  0  0  0.008836  0  3.774252  0  0  0.016322  0  3.776392  0  0  -0.061175  0.00377  0  3.772913  0
N  N56  1  0.52663174  0.23770958  0.38588247  1  0  -0.470603  0  3.068969  0  0  -0.440324  0  3.335801  0  0  -0.452745  0  3.350937  0  0  -0.387618  -0.431525  0  3.325212  0
N  N57  1  0.02663107  0.26229065  0.11411813  1  0  -0.470617  0  3.068996  0  0  -0.440341  0  3.335826  0  0  -0.452763  0  3.350963  0  0  -0.387622  -0.431543  0  3.325223  0
N  N58  1  0.47336842  0.76229088  0.61411795  1  0  -0.470609  0  3.069043  0  0  -0.440333  0  3.335873  0  0  -0.452754  0  3.351009  0  0  -0.387621  -0.431536  0  3.325268  0
N  N59  1  0.97336793  0.73770980  0.88588228  1  0  -0.470599  0  3.069008  0  0  -0.440322  0  3.335839  0  0  -0.452744  0  3.350977  0  0  -0.387617  -0.431553  0  3.325253  0
N  N60  1  0.68582865  0.52883448  0.49048242  1  0  -0.47022  0  2.653381  0  0  -0.441778  0  2.89471  0  0  -0.452327  0  2.901228  0  0  -0.364083  -0.434767  0  2.890723  0
N  N61  1  0.18582825  0.97116566  0.00951817  1  0  -0.470284  0  2.653317  0  0  -0.441848  0  2.894653  0  0  -0.452397  0  2.901174  0  0  -0.364121  -0.434844  0  2.890685  0
N  N62  1  0.31417035  0.47116509  0.50951858  1  0  -0.470193  0  2.653332  0  0  -0.441756  0  2.894662  0  0  -0.452305  0  2.90118  0  0  -0.364083  -0.434724  0  2.890635  0
N  N63  1  0.81417075  0.02883480  0.99048307  1  0  -0.470191  0  2.653434  0  0  -0.441755  0  2.894759  0  0  -0.452304  0  2.901277  0  0  -0.364061  -0.434754  0  2.890794  0
N  N64  1  0.07980947  0.26643609  0.38200519  1  0  -0.463839  0  2.662433  0  0  -0.440704  0  2.914287  0  0  -0.451431  0  2.921932  0  0  -0.360252  -0.433546  0  2.909464  0
N  N65  1  0.57980821  0.23356415  0.11799537  1  0  -0.463849  0  2.66252  0  0  -0.440716  0  2.914372  0  0  -0.451443  0  2.922017  0  0  -0.36026  -0.433574  0  2.909595  0
N  N66  1  0.92019069  0.73356347  0.61799416  1  0  -0.463846  0  2.66251  0  0  -0.440711  0  2.914368  0  0  -0.451438  0  2.922011  0  0  -0.360275  -0.433551  0  2.909551  0
N  N67  1  0.42019079  0.76643630  0.88200504  1  0  -0.463846  0  2.66244  0  0  -0.440708  0  2.914291  0  0  -0.451436  0  2.921937  0  0  -0.360258  -0.433573  0  2.90952  0
N  N68  1  0.72904510  0.10580759  0.32984279  1  0  -0.350867  0  2.945746  0  0  -0.33658  0  3.214513  0  0  -0.347556  0  3.22961  0  0  -0.310058  -0.328788  0  3.20413  0
N  N69  1  0.22904559  0.39419267  0.17015767  1  0  -0.350877  0  2.945746  0  0  -0.336586  0  3.214504  0  0  -0.347562  0  3.229599  0  0  -0.310059  -0.328793  0  3.204123  0
N  N70  1  0.27095506  0.89419287  0.67015763  1  0  -0.350847  0  2.945705  0  0  -0.336559  0  3.214466  0  0  -0.347534  0  3.229561  0  0  -0.31005  -0.328771  0  3.204087  0
N  N71  1  0.77095457  0.60580689  0.82984250  1  0  -0.350842  0  2.94571  0  0  -0.336555  0  3.214471  0  0  -0.347529  0  3.229566  0  0  -0.310053  -0.328738  0  3.204019  0
O  O72  1  0.71361575  0.77536598  0.42874573  1  0  -0.661777  0  2.010008  0  0  -0.629036  0  2.259963  0  0  -0.650224  0  2.244501  0  0  -0.350055  -0.614445  0  2.270579  0
O  O73  1  0.21361628  0.72463326  0.07125295  1  0  -0.66183  0  2.009906  0  0  -0.629055  0  2.259901  0  0  -0.650244  0  2.244439  0  0  -0.350069  -0.614468  0  2.270522  0
O  O74  1  0.28638325  0.22463179  0.57125149  1  0  -0.661853  0  2.009888  0  0  -0.629111  0  2.259858  0  0  -0.650299  0  2.244394  0  0  -0.350104  -0.614507  0  2.270411  0
O  O75  1  0.78638388  0.27536809  0.92874770  1  0  -0.661748  0  2.009883  0  0  -0.629008  0  2.25986  0  0  -0.650196  0  2.244399  0  0  -0.350071  -0.614423  0  2.27049  0
O  O76  1  0.79171723  0.80502445  0.26179991  1  0  -0.334811  0  2.208004  0  0  -0.271709  0  2.44791  0  0  -0.291072  0  2.441196  0  0  -0.160034  -0.258464  0  2.452335  0
O  O77  1  0.29171750  0.69497570  0.23819896  1  0  -0.334946  0  2.207967  0  0  -0.271804  0  2.447931  0  0  -0.291166  0  2.441212  0  0  -0.160059  -0.258559  0  2.452361  0
O  O78  1  0.20828294  0.19497511  0.73819862  1  0  -0.33494  0  2.207959  0  0  -0.271815  0  2.447915  0  0  -0.291178  0  2.441196  0  0  -0.160086  -0.258566  0  2.452316  0
O  O79  1  0.70828266  0.30502566  0.76180087  1  0  -0.334847  0  2.208001  0  0  -0.271737  0  2.447936  0  0  -0.291101  0  2.44122  0  0  -0.160051  -0.258451  0  2.452287  0
O  O80  1  0.93562963  0.87633340  0.41927273  1  0  -0.330108  0  2.196633  0  0  -0.26329  0  2.42853  0  0  -0.283573  0  2.423425  0  0  -0.152277  -0.24936  0  2.431803  0
O  O81  1  0.43563125  0.62366587  0.08072662  1  0  -0.330213  0  2.196593  0  0  -0.263391  0  2.428519  0  0  -0.283674  0  2.423412  0  0  -0.152313  -0.249457  0  2.431789  0
O  O82  1  0.06436821  0.12366526  0.58072638  1  0  -0.330275  0  2.19662  0  0  -0.263421  0  2.4285  0  0  -0.283707  0  2.423395  0  0  -0.15232  -0.249482  0  2.431734  0
O  O83  1  0.56436891  0.37633548  0.91927403  1  0  -0.330235  0  2.196671  0  0  -0.263377  0  2.42853  0  0  -0.283662  0  2.423425  0  0  -0.152315  -0.249447  0  2.431813  0
F  F84  1  0.31536806  0.06276576  0.29678699  1  0  -0.268136  0  1.178463  0  0  -0.224558  0  1.348457  0  0  -0.235644  0  1.334021  0  0  -0.078821  -0.216581  0  1.35846  0
F  F85  1  0.81536795  0.43723451  0.20321424  1  0  -0.268177  0  1.178444  0  0  -0.224582  0  1.348433  0  0  -0.235666  0  1.333998  0  0  -0.078835  -0.216603  0  1.358436  0
F  F86  1  0.68463210  0.93723470  0.70321425  1  0  -0.268209  0  1.178388  0  0  -0.224611  0  1.348375  0  0  -0.235696  0  1.33394  0  0  -0.078849  -0.216632  0  1.358378  0
F  F87  1  0.18463105  0.56276594  0.79678535  1  0  -0.268198  0  1.178418  0  0  -0.2246  0  1.348403  0  0  -0.235683  0  1.33397  0  0  -0.07885  -0.216587  0  1.358326  0
F  F88  1  0.45804942  0.95097752  0.37592031  1  0  -0.253893  0  1.140473  0  0  -0.211267  0  1.295766  0  0  -0.221238  0  1.280265  0  0  -0.098267  -0.204096  0  1.3066  0
F  F89  1  0.95804920  0.54902264  0.12407926  1  0  -0.253873  0  1.140407  0  0  -0.211234  0  1.295696  0  0  -0.221204  0  1.280195  0  0  -0.098248  -0.204066  0  1.306531  0
F  F90  1  0.54195306  0.04902204  0.62407904  1  0  -0.253876  0  1.140413  0  0  -0.211246  0  1.295715  0  0  -0.221217  0  1.280215  0  0  -0.098252  -0.204082  0  1.306553  0
F  F91  1  0.04195213  0.45097781  0.87592033  1  0  -0.253887  0  1.140478  0  0  -0.211257  0  1.295779  0  0  -0.221226  0  1.28028  0  0  -0.09826  -0.204063  0  1.306548  0
F  F92  1  0.49904356  0.94767348  0.19712916  1  0  -0.250182  0  1.130944  0  0  -0.210176  0  1.28521  0  0  -0.221431  0  1.271585  0  0  -0.095209  -0.20216  0  1.294798  0
F  F93  1  0.99904308  0.55232759  0.30287145  1  0  -0.25018  0  1.130906  0  0  -0.210181  0  1.285186  0  0  -0.221439  0  1.271561  0  0  -0.095207  -0.202175  0  1.294781  0
F  F94  1  0.50095777  0.05232698  0.80287125  1  0  -0.250203  0  1.130934  0  0  -0.210194  0  1.285215  0  0  -0.22145  0  1.271586  0  0  -0.095205  -0.20218  0  1.294804  0
F  F95  1  0.00095708  0.44767376  0.69712838  1  0  -0.250172  0  1.13095  0  0  -0.210165  0  1.285225  0  0  -0.221423  0  1.271606  0  0  -0.095195  -0.202258  0  1.294805  0
