# generated using pymatgen
data_MgH3C7NO3
_symmetry_space_group_name_H-M   'P 1'
_cell_length_a   6.85815103
_cell_length_b   24.78958616
_cell_length_c   24.79020967
_cell_angle_alpha   119.15039013
_cell_angle_beta   95.29267284
_cell_angle_gamma   95.27644342
_symmetry_Int_Tables_number   1
_chemical_formula_structural   MgH3C7NO3
_chemical_formula_sum   'Mg6 H18 C42 N6 O18'
_cell_volume   3619.40878826
_cell_formula_units_Z   6
loop_
 _symmetry_equiv_pos_site_id
 _symmetry_equiv_pos_as_xyz
  1  'x, y, z'
loop_
 _atom_site_type_symbol
 _atom_site_label
 _atom_site_symmetry_multiplicity
 _atom_site_fract_x
 _atom_site_fract_y
 _atom_site_fract_z
 _atom_site_occupancy
 _atom_site_pbe_bader_charge
 _atom_site_pbe_bader_spin_density
 _atom_site_pbe_cm5_charge
 _atom_site_pbe_ddec_charge
 _atom_site_pbe_ddec_spin_density
 _atom_site_pbe_ddec_sum_bond_order
 _atom_site_pbe_magmom
Mg  Mg0  1  0.64974486  0.62043009  0.29610991  1  1.682327  0  0.909279  1.410292  0  1.32818  0
Mg  Mg1  1  0.06223464  0.37901897  0.70461824  1  1.683964  0  0.908876  1.409161  0  1.329247  0
Mg  Mg2  1  0.02933463  0.67571203  0.37954068  1  1.683183  0  0.909022  1.409555  0  1.328469  0
Mg  Mg3  1  0.68335026  0.32544343  0.62081934  1  1.685236  0  0.908935  1.409363  0  1.328888  0
Mg  Mg4  1  0.35356242  0.70386292  0.32423783  1  1.68293  0  0.909273  1.409432  0  1.328553  0
Mg  Mg5  1  0.35774630  0.29523556  0.67439513  1  1.68397  0  0.90884  1.409375  0  1.328169  0
H  H6  1  0.32443581  0.59860240  0.47873060  1  0.09797  0  0.10674  0.110126  0  1.006377  0
H  H7  1  0.52779103  0.54329421  0.51932328  1  0.098897  0  0.104983  0.11229  0  1.025063  0
H  H8  1  0.73041179  0.44782841  0.58852290  1  0.096056  0  0.111955  0.132791  0  1.006324  0
H  H9  1  0.39115386  0.40682133  0.52557888  1  0.105447  0  0.106946  0.110355  0  1.006508  0
H  H10  1  0.18789275  0.46321270  0.48645209  1  0.113432  0  0.104918  0.11207  0  1.027289  0
H  H11  1  0.98331515  0.55536156  0.41523775  1  0.093786  0  0.111889  0.132163  0  1.006872  0
H  H12  1  0.72569763  0.88029106  0.40187849  1  0.086621  0  0.10676  0.11042  0  1.006832  0
H  H13  1  0.98446594  0.97610106  0.45721800  1  0.092937  0  0.104748  0.112464  0  1.025485  0
H  H14  1  0.28267236  0.14055382  0.55202837  1  0.093054  0  0.11209  0.132833  0  1.006627  0
H  H15  1  0.98422717  0.11864565  0.59332846  1  0.100023  0  0.106802  0.110631  0  1.006495  0
H  H16  1  0.72463669  0.02313189  0.53697903  1  0.087636  0  0.104802  0.112188  0  1.027693  0
H  H17  1  0.42786083  0.85978775  0.44466015  1  0.104003  0  0.112129  0.133033  0  1.005575  0
H  H18  1  0.84526877  0.52158471  0.11970630  1  0.082043  0  0.106983  0.110526  0  1.005809  0
H  H19  1  0.00827520  0.48108114  0.02386783  1  0.065388  0  0.105131  0.112618  0  1.025619  0
H  H20  1  0.14131693  0.41148088  0.85928781  1  0.083125  0  0.111947  0.132934  0  1.00704  0
H  H21  1  0.86493972  0.47438860  0.88115033  1  0.100728  0  0.106726  0.110155  0  1.006753  0
H  H22  1  0.70076975  0.51355432  0.97665692  1  0.093544  0  0.104736  0.11174  0  1.02653  0
H  H23  1  0.56784077  0.58493500  0.14010587  1  0.10894  0  0.111767  0.132464  0  1.006497  0
C  C24  1  0.72468930  0.59462960  0.40405046  1  0.598258  0  0.095617  0.374655  0  4.079289  0
C  C25  1  0.53503688  0.60681817  0.42312011  1  0.009358  0  -0.036728  -0.201289  0  3.935365  0
C  C26  1  0.46865058  0.58810305  0.46476407  1  -0.062977  0  -0.080708  -0.051897  0  4.007681  0
C  C27  1  0.57976052  0.55772660  0.48744012  1  -0.030272  0  -0.099244  -0.181045  0  3.982429  0
C  C28  1  0.76667374  0.54572803  0.46868598  1  0.359109  0  0.091019  0.200255  0  4.059888  0
C  C29  1  0.94781764  0.45906623  0.53605483  1  0.356763  0  0.091032  0.198636  0  4.059895  0
C  C30  1  0.87634042  0.43901519  0.57527765  1  -0.012156  0  -0.092497  -0.267403  0  3.882577  0
C  C31  1  0.98937973  0.40833403  0.59898831  1  0.585208  0  0.096126  0.37407  0  4.077037  0
C  C32  1  0.17946807  0.39672626  0.57999523  1  -0.03808  0  -0.036721  -0.20112  0  3.933283  0
C  C33  1  0.24647213  0.41679682  0.53941299  1  -0.048396  0  -0.081474  -0.05292  0  4.008203  0
C  C34  1  0.13538892  0.44777988  0.51754379  1  -0.033797  0  -0.099519  -0.180438  0  3.983889  0
C  C35  1  0.30983820  0.36375684  0.60027775  1  1.513757  0  0.237921  0.675904  0  4.122914  0
C  C36  1  0.83777433  0.56463690  0.42857968  1  -0.024318  0  -0.091808  -0.267475  0  3.883928  0
C  C37  1  0.40425337  0.63892236  0.40175568  1  1.504963  0  0.237364  0.674427  0  4.125497  0
C  C38  1  0.12981381  0.80941640  0.40545316  1  0.632428  0  0.09646  0.375617  0  4.076617  0
C  C39  1  0.92799605  0.81639940  0.39338647  1  -0.069231  0  -0.036416  -0.201595  0  3.933892  0
C  C40  1  0.88037760  0.87678599  0.41225648  1  0.012833  0  -0.08094  -0.052505  0  4.009429  0
C  C41  1  0.02192426  0.92976035  0.44262749  1  -0.078042  0  -0.098931  -0.18047  0  3.983962  0
C  C42  1  0.22083722  0.92290722  0.45444659  1  0.332362  0  0.090969  0.199314  0  4.060453  0
C  C43  1  0.48890029  0.07689004  0.54096243  1  0.346801  0  0.091539  0.200138  0  4.059869  0
C  C44  1  0.43740046  0.13614425  0.56089926  1  -0.050903  0  -0.092208  -0.267167  0  3.88387  0
C  C45  1  0.58104241  0.19050974  0.59156691  1  0.610782  0  0.095581  0.373734  0  4.079617  0
C  C46  1  0.78263785  0.18309051  0.60322147  1  -0.0797  0  -0.03671  -0.20226  0  3.934577  0
C  C47  1  0.82964987  0.12244772  0.58325064  1  -0.022466  0  -0.081379  -0.052947  0  4.008537  0
C  C48  1  0.68763765  0.06962861  0.55230223  1  0.063979  0  -0.099379  -0.180669  0  3.985173  0
C  C49  1  0.94590332  0.23633833  0.63612063  1  1.48273  0  0.238016  0.676904  0  4.122371  0
C  C50  1  0.27301581  0.86387460  0.43544714  1  -0.004793  0  -0.092538  -0.268817  0  3.882897  0
C  C51  1  0.76516936  0.76293678  0.36121201  1  1.505458  0  0.237156  0.676036  0  4.121662  0
C  C52  1  0.32028360  0.59606954  0.19050441  1  0.623227  0  0.096286  0.375414  0  4.076726  0
C  C53  1  0.11150877  0.57703752  0.18357060  1  -0.049888  0  -0.036215  -0.201196  0  3.932753  0
C  C54  1  0.00346377  0.53550331  0.12320490  1  0.023256  0  -0.081386  -0.053098  0  4.007703  0
C  C55  1  0.09200377  0.51288889  0.07019854  1  -0.015799  0  -0.099702  -0.18057  0  3.983357  0
C  C56  1  0.29772602  0.53158241  0.07697181  1  0.283988  0  0.091284  0.199413  0  4.059364  0
C  C57  1  0.41118978  0.46396011  0.92294869  1  0.363683  0  0.091006  0.199849  0  4.059387  0
C  C58  1  0.30045198  0.42469549  0.86370248  1  -0.001518  0  -0.092325  -0.268604  0  3.883239  0
C  C59  1  0.38980074  0.40090616  0.80931885  1  0.60676  0  0.095954  0.375368  0  4.078094  0
C  C60  1  0.59884411  0.41991754  0.81668516  1  -0.046289  0  -0.037056  -0.202777  0  3.93487  0
C  C61  1  0.70647553  0.46055037  0.87731195  1  -0.009573  0  -0.081033  -0.052172  0  4.008815  0
C  C62  1  0.61724664  0.48243138  0.93013863  1  -0.059025  0  -0.099275  -0.17995  0  3.983318  0
C  C63  1  0.70903706  0.39963678  0.76344913  1  1.52036  0  0.237915  0.675673  0  4.121577  0
C  C64  1  0.40891358  0.57161603  0.13599302  1  0.004032  0  -0.092122  -0.267978  0  3.882061  0
C  C65  1  0.00215097  0.59830614  0.23705552  1  1.519065  0  0.237099  0.675232  0  4.123117  0
N  N66  1  0.89555571  0.51491703  0.48812568  1  -0.487845  0  -0.142368  -0.125523  0  3.2544  0
N  N67  1  0.81869565  0.49006011  0.51691709  1  -0.471109  0  -0.143313  -0.125803  0  3.250871  0
N  N68  1  0.38055876  0.97311262  0.48522142  1  -0.448562  0  -0.142676  -0.124805  0  3.255926  0
N  N69  1  0.32876936  0.02678759  0.50998683  1  -0.482512  0  -0.143426  -0.127318  0  3.253564  0
N  N70  1  0.40710587  0.51211715  0.02672083  1  -0.447617  0  -0.142831  -0.125917  0  3.254806  0
N  N71  1  0.30132933  0.48317281  0.97309861  1  -0.489113  0  -0.142838  -0.12568  0  3.251624  0
O  O72  1  0.24265696  0.65270545  0.42287554  1  -1.23707  0  -0.353889  -0.640503  0  2.146459  0
O  O73  1  0.45674334  0.65210680  0.36010423  1  -1.294057  0  -0.402629  -0.768027  0  2.416589  0
O  O74  1  0.80031598  0.61006928  0.36443907  1  -1.311072  0  -0.448594  -0.777166  0  2.305118  0
O  O75  1  0.47156381  0.35042467  0.57907226  1  -1.240626  0  -0.354603  -0.641237  0  2.147127  0
O  O76  1  0.25663833  0.34917065  0.64093251  1  -1.293445  0  -0.402575  -0.76856  0  2.415333  0
O  O77  1  0.91319966  0.39171804  0.63773580  1  -1.312017  0  -0.447941  -0.776041  0  2.303488  0
O  O78  1  0.58978991  0.77027692  0.34743949  1  -1.240338  0  -0.354041  -0.641085  0  2.145528  0
O  O79  1  0.80446367  0.70804527  0.34782998  1  -1.290985  0  -0.402565  -0.76948  0  2.415273  0
O  O80  1  0.19009790  0.75435859  0.38990320  1  -1.308784  0  -0.448866  -0.776955  0  2.304705  0
O  O81  1  0.12104672  0.22848872  0.64939197  1  -1.239722  0  -0.353986  -0.641363  0  2.147678  0
O  O82  1  0.90743900  0.29161136  0.65073441  1  -1.293183  0  -0.403484  -0.769747  0  2.415569  0
O  O83  1  0.52148240  0.24586538  0.60813489  1  -1.309503  0  -0.447531  -0.775548  0  2.303943  0
O  O84  1  0.81944987  0.57717145  0.22971719  1  -1.24488  0  -0.35404  -0.640807  0  2.145593  0
O  O85  1  0.09640455  0.63983780  0.29190591  1  -1.308122  0  -0.402113  -0.76821  0  2.415617  0
O  O86  1  0.43556276  0.63555237  0.24557456  1  -1.316601  0  -0.448856  -0.777397  0  2.305051  0
O  O87  1  0.89200712  0.42079679  0.77133684  1  -1.241433  0  -0.35416  -0.640805  0  2.145998  0
O  O88  1  0.61536806  0.35896722  0.70819019  1  -1.309327  0  -0.403105  -0.769031  0  2.415923  0
O  O89  1  0.27508633  0.36207072  0.75395895  1  -1.309259  0  -0.447879  -0.776251  0  2.304176  0
