# generated using pymatgen
data_AgH9C7(NO)2
_symmetry_space_group_name_H-M   'P 1'
_cell_length_a   5.75997417
_cell_length_b   10.38268411
_cell_length_c   13.92388617
_cell_angle_alpha   104.71738738
_cell_angle_beta   89.99994775
_cell_angle_gamma   89.99962988
_symmetry_Int_Tables_number   1
_chemical_formula_structural   AgH9C7(NO)2
_chemical_formula_sum   'Ag4 H36 C28 N8 O8'
_cell_volume   805.38354626
_cell_formula_units_Z   4
loop_
 _symmetry_equiv_pos_site_id
 _symmetry_equiv_pos_as_xyz
  1  'x, y, z'
loop_
 _atom_site_type_symbol
 _atom_site_label
 _atom_site_symmetry_multiplicity
 _atom_site_fract_x
 _atom_site_fract_y
 _atom_site_fract_z
 _atom_site_occupancy
 _atom_site_hle17_bader_spin_density
 _atom_site_hle17_ddec_charge
 _atom_site_hle17_ddec_spin_density
 _atom_site_hle17_ddec_sum_bond_order
 _atom_site_hle17_magmom
 _atom_site_hse06_10hf_bader_spin_density
 _atom_site_hse06_10hf_ddec_charge
 _atom_site_hse06_10hf_ddec_spin_density
 _atom_site_hse06_10hf_ddec_sum_bond_order
 _atom_site_hse06_10hf_magmom
 _atom_site_hse06_bader_spin_density
 _atom_site_hse06_ddec_charge
 _atom_site_hse06_ddec_spin_density
 _atom_site_hse06_ddec_sum_bond_order
 _atom_site_hse06_magmom
 _atom_site_pbe_bader_spin_density
 _atom_site_pbe_cm5_charge
 _atom_site_pbe_ddec_charge
 _atom_site_pbe_ddec_spin_density
 _atom_site_pbe_ddec_sum_bond_order
 _atom_site_pbe_magmom
Ag  Ag0  1  0.07994628  0.30190787  0.45775287  1  0  0.598677  0  1.450642  0  0  0.482235  0  1.9095  0  0  0.5035  0  1.858997  0  0  0.509425  0.468795  0  1.943368  0
Ag  Ag1  1  0.57995576  0.19809270  0.54223774  1  0  0.598729  0  1.45055  0  0  0.482269  0  1.90941  0  0  0.503545  0  1.858889  0  0  0.509453  0.468832  0  1.94328  0
Ag  Ag2  1  0.92005716  0.69810014  0.54223530  1  0  0.598729  0  1.450701  0  0  0.482236  0  1.909561  0  0  0.503503  0  1.859046  0  0  0.509487  0.468807  0  1.943437  0
Ag  Ag3  1  0.42003900  0.80190843  0.45776352  1  0  0.598694  0  1.450708  0  0  0.482231  0  1.909563  0  0  0.50349  0  1.859063  0  0  0.509436  0.468803  0  1.943443  0
H  H4  1  0.28709567  0.15419900  0.09131868  1  0  0.097596  0  0.967639  0  0  0.118094  0  1.032514  0  0  0.119317  0  1.032616  0  0  0.086303  0.117217  0  1.032316  0
H  H5  1  0.78708253  0.34580422  0.90868573  1  0  0.097473  0  0.967758  0  0  0.118045  0  1.032576  0  0  0.119269  0  1.032675  0  0  0.086282  0.117167  0  1.032377  0
H  H6  1  0.71290256  0.84580214  0.90868545  1  0  0.097612  0  0.967647  0  0  0.118114  0  1.032534  0  0  0.119337  0  1.032637  0  0  0.08632  0.117238  0  1.032336  0
H  H7  1  0.21290876  0.65419994  0.09132255  1  0  0.097601  0  0.967594  0  0  0.118098  0  1.03248  0  0  0.119322  0  1.032585  0  0  0.086298  0.117219  0  1.032283  0
H  H8  1  0.27136186  0.40542806  0.10744594  1  0  0.099051  0  0.971158  0  0  0.12012  0  1.034762  0  0  0.121423  0  1.035117  0  0  0.086599  0.119118  0  1.034521  0
H  H9  1  0.77136307  0.09456207  0.89255181  1  0  0.099012  0  0.971102  0  0  0.120052  0  1.034761  0  0  0.121352  0  1.035119  0  0  0.0866  0.119055  0  1.034515  0
H  H10  1  0.72863811  0.59456708  0.89255133  1  0  0.098976  0  0.971072  0  0  0.120042  0  1.034718  0  0  0.121346  0  1.035074  0  0  0.086595  0.11904  0  1.034476  0
H  H11  1  0.22863516  0.90543113  0.10745300  1  0  0.098978  0  0.971011  0  0  0.120009  0  1.034693  0  0  0.121311  0  1.035051  0  0  0.086582  0.119006  0  1.034448  0
H  H12  1  0.86211597  0.40771372  0.22675905  1  0  0.103781  0  0.969792  0  0  0.123343  0  1.033518  0  0  0.124361  0  1.034073  0  0  0.08557  0.122435  0  1.033554  0
H  H13  1  0.36210978  0.09229304  0.77324421  1  0  0.103756  0  0.969857  0  0  0.123357  0  1.033553  0  0  0.124361  0  1.034122  0  0  0.085581  0.122449  0  1.033591  0
H  H14  1  0.13789268  0.59228537  0.77323393  1  0  0.103813  0  0.9697  0  0  0.123354  0  1.033473  0  0  0.12435  0  1.034051  0  0  0.085598  0.122447  0  1.033508  0
H  H15  1  0.63787283  0.90770910  0.22676011  1  0  0.103763  0  0.969787  0  0  0.123351  0  1.033503  0  0  0.124362  0  1.034066  0  0  0.085577  0.122442  0  1.033536  0
H  H16  1  0.55969515  0.15110632  0.03005365  1  0  0.090482  0  0.974473  0  0  0.112902  0  1.037738  0  0  0.11364  0  1.038509  0  0  0.084034  0.11235  0  1.037109  0
H  H17  1  0.05969976  0.34889118  0.96994798  1  0  0.090562  0  0.974294  0  0  0.112973  0  1.037593  0  0  0.113712  0  1.038365  0  0  0.084073  0.112421  0  1.036962  0
H  H18  1  0.44028572  0.84888883  0.96994506  1  0  0.090551  0  0.974332  0  0  0.112964  0  1.037623  0  0  0.113701  0  1.038392  0  0  0.08406  0.112415  0  1.036984  0
H  H19  1  0.94029327  0.65110698  0.03005632  1  0  0.09057  0  0.974344  0  0  0.113003  0  1.037595  0  0  0.113741  0  1.038365  0  0  0.084085  0.112453  0  1.036962  0
H  H20  1  0.54877919  0.39952914  0.04983391  1  0  0.102808  0  0.955184  0  0  0.126508  0  1.014317  0  0  0.127858  0  1.014673  0  0  0.088361  0.125523  0  1.013991  0
H  H21  1  0.04878576  0.10047025  0.95016526  1  0  0.102742  0  0.955195  0  0  0.126449  0  1.014324  0  0  0.127801  0  1.014678  0  0  0.088338  0.125465  0  1.013992  0
H  H22  1  0.45121210  0.60046499  0.95016174  1  0  0.102695  0  0.955159  0  0  0.12643  0  1.014273  0  0  0.127782  0  1.014626  0  0  0.088337  0.125444  0  1.013943  0
H  H23  1  0.95121247  0.89952990  0.04983941  1  0  0.102692  0  0.955132  0  0  0.126407  0  1.014254  0  0  0.127758  0  1.01461  0  0  0.088321  0.125422  0  1.013927  0
H  H24  1  0.88937827  0.28405202  0.11306207  1  0  0.098968  0  0.958767  0  0  0.123404  0  1.019197  0  0  0.124512  0  1.01972  0  0  0.087605  0.122512  0  1.018923  0
H  H25  1  0.38936335  0.21595497  0.88694396  1  0  0.098911  0  0.958803  0  0  0.12339  0  1.019203  0  0  0.1245  0  1.019722  0  0  0.087602  0.122499  0  1.018925  0
H  H26  1  0.11062170  0.71594510  0.88693413  1  0  0.098899  0  0.958755  0  0  0.123357  0  1.019189  0  0  0.124463  0  1.019708  0  0  0.087604  0.122466  0  1.018912  0
H  H27  1  0.61061926  0.78404817  0.11305982  1  0  0.098909  0  0.958774  0  0  0.123421  0  1.019148  0  0  0.124528  0  1.01967  0  0  0.087613  0.12253  0  1.018872  0
H  H28  1  0.53258007  0.08344121  0.13486520  1  0  0.107736  0  0.952071  0  0  0.13042  0  1.010435  0  0  0.131443  0  1.011217  0  0  0.090193  0.129404  0  1.010383  0
H  H29  1  0.03257154  0.41656205  0.86513549  1  0  0.107749  0  0.951961  0  0  0.130395  0  1.010395  0  0  0.131418  0  1.011174  0  0  0.090175  0.129379  0  1.010341  0
H  H30  1  0.46741296  0.91655892  0.86513587  1  0  0.107702  0  0.952089  0  0  0.130397  0  1.01046  0  0  0.13142  0  1.011239  0  0  0.090177  0.129382  0  1.010412  0
H  H31  1  0.96741454  0.58343811  0.13486918  1  0  0.107701  0  0.952025  0  0  0.130381  0  1.010402  0  0  0.131404  0  1.011183  0  0  0.09015  0.129365  0  1.01035  0
H  H32  1  0.49691992  0.51119984  0.16767050  1  0  0.106632  0  0.974946  0  0  0.125249  0  1.041218  0  0  0.126507  0  1.041664  0  0  0.087665  0.124091  0  1.041391  0
H  H33  1  0.99693561  0.98880135  0.83232728  1  0  0.106548  0  0.975025  0  0  0.125158  0  1.041313  0  0  0.126419  0  1.041756  0  0  0.087622  0.123999  0  1.041502  0
H  H34  1  0.50308004  0.48879726  0.83232210  1  0  0.106504  0  0.975009  0  0  0.125159  0  1.041254  0  0  0.126415  0  1.041705  0  0  0.087623  0.124004  0  1.041418  0
H  H35  1  0.00306957  0.01119880  0.16767595  1  0  0.106515  0  0.974995  0  0  0.125146  0  1.041259  0  0  0.126407  0  1.041705  0  0  0.087624  0.123986  0  1.041439  0
H  H36  1  0.86282179  0.23713352  0.22689522  1  0  0.114713  0  0.976215  0  0  0.131077  0  1.044696  0  0  0.132632  0  1.045045  0  0  0.086631  0.129842  0  1.044853  0
H  H37  1  0.36281542  0.26287524  0.77310839  1  0  0.11475  0  0.976209  0  0  0.131103  0  1.044718  0  0  0.13266  0  1.045058  0  0  0.086591  0.129867  0  1.044876  0
H  H38  1  0.13718339  0.76286259  0.77309863  1  0  0.11471  0  0.976147  0  0  0.131094  0  1.044633  0  0  0.132648  0  1.044978  0  0  0.086606  0.12986  0  1.044798  0
H  H39  1  0.63716718  0.73712789  0.22689539  1  0  0.114743  0  0.976233  0  0  0.131154  0  1.044671  0  0  0.132712  0  1.045011  0  0  0.086664  0.129918  0  1.044833  0
C  C40  1  0.43601905  0.44713368  0.34439107  1  0  -0.059101  0  3.777828  0  0  -0.060579  0  4.037576  0  0  -0.072909  0  4.053674  0  0  0.077404  -0.053031  0  4.027578  0
C  C41  1  0.93602160  0.05287265  0.65561244  1  0  -0.05899  0  3.777667  0  0  -0.060616  0  4.037659  0  0  -0.072783  0  4.053539  0  0  0.077347  -0.05312  0  4.027736  0
C  C42  1  0.56400522  0.55287540  0.65560880  1  0  -0.058973  0  3.777363  0  0  -0.060699  0  4.037405  0  0  -0.072817  0  4.053229  0  0  0.077285  -0.053236  0  4.027512  0
C  C43  1  0.06398879  0.94712850  0.34439097  1  0  -0.059064  0  3.777674  0  0  -0.06065  0  4.037609  0  0  -0.072848  0  4.053537  0  0  0.077348  -0.053177  0  4.027718  0
C  C44  1  0.60984206  0.54329399  0.35018847  1  0  0.287035  0  3.752964  0  0  0.262615  0  4.028921  0  0  0.282518  0  4.040052  0  0  0.179664  0.248517  0  4.022877  0
C  C45  1  0.10982250  0.95670825  0.64981076  1  0  0.286931  0  3.75325  0  0  0.262576  0  4.029226  0  0  0.282427  0  4.040312  0  0  0.179609  0.248497  0  4.023209  0
C  C46  1  0.39019263  0.45670414  0.64981008  1  0  0.28713  0  3.753377  0  0  0.262816  0  4.029322  0  0  0.282649  0  4.040398  0  0  0.179762  0.248744  0  4.023287  0
C  C47  1  0.89017747  0.04329685  0.35018980  1  0  0.287001  0  3.753505  0  0  0.262638  0  4.029466  0  0  0.28249  0  4.040571  0  0  0.179654  0.248568  0  4.023435  0
C  C48  1  0.41332340  0.31894702  0.26950539  1  0  0.376662  0  3.637857  0  0  0.358272  0  3.892262  0  0  0.380049  0  3.898546  0  0  0.168014  0.343624  0  3.887637  0
C  C49  1  0.91330211  0.18105811  0.73049370  1  0  0.376496  0  3.638575  0  0  0.357966  0  3.893173  0  0  0.379688  0  3.89944  0  0  0.167958  0.343334  0  3.888566  0
C  C50  1  0.58671476  0.68107300  0.73049507  1  0  0.376427  0  3.63922  0  0  0.357996  0  3.893609  0  0  0.379697  0  3.899877  0  0  0.167948  0.343383  0  3.88901  0
C  C51  1  0.08668744  0.81893906  0.26951113  1  0  0.37653  0  3.638707  0  0  0.357988  0  3.893262  0  0  0.379718  0  3.899535  0  0  0.167928  0.343365  0  3.888656  0
C  C52  1  0.53902977  0.30058580  0.16974749  1  0  0.144784  0  3.610521  0  0  0.182025  0  3.83228  0  0  0.178475  0  3.85352  0  0  -0.018982  0.184093  0  3.818321  0
C  C53  1  0.03901252  0.19940650  0.83024323  1  0  0.144696  0  3.61057  0  0  0.182176  0  3.832017  0  0  0.178615  0  3.853286  0  0  -0.018985  0.184246  0  3.818059  0
C  C54  1  0.46097541  0.69940531  0.83024185  1  0  0.144552  0  3.610659  0  0  0.182106  0  3.831918  0  0  0.178552  0  3.853186  0  0  -0.018994  0.184179  0  3.817944  0
C  C55  1  0.96097703  0.80059067  0.16976088  1  0  0.144598  0  3.610661  0  0  0.18211  0  3.832073  0  0  0.17856  0  3.853315  0  0  -0.018984  0.184178  0  3.818113  0
C  C56  1  0.47541932  0.16411949  0.10260059  1  0  -0.327525  0  3.67471  0  0  -0.410286  0  3.910176  0  0  -0.412104  0  3.920835  0  0  -0.245575  -0.408456  0  3.902621  0
C  C57  1  0.97541161  0.33588116  0.89740094  1  0  -0.327477  0  3.674437  0  0  -0.410309  0  3.909814  0  0  -0.412128  0  3.920471  0  0  -0.245565  -0.408478  0  3.902255  0
C  C58  1  0.52457370  0.83587765  0.89739848  1  0  -0.327535  0  3.674584  0  0  -0.410393  0  3.909961  0  0  -0.412212  0  3.920617  0  0  -0.245578  -0.408564  0  3.902403  0
C  C59  1  0.02457968  0.66411701  0.10260335  1  0  -0.327546  0  3.674401  0  0  -0.410366  0  3.909804  0  0  -0.41219  0  3.920464  0  0  -0.245558  -0.408535  0  3.902248  0
C  C60  1  0.45920996  0.41104038  0.12125729  1  0  -0.340794  0  3.647047  0  0  -0.421149  0  3.879136  0  0  -0.424379  0  3.890066  0  0  -0.242081  -0.418334  0  3.871578  0
C  C61  1  0.95921805  0.08895814  0.87874106  1  0  -0.340567  0  3.647075  0  0  -0.420942  0  3.879115  0  0  -0.424163  0  3.89003  0  0  -0.242022  -0.418135  0  3.871561  0
C  C62  1  0.54078480  0.58895673  0.87873676  1  0  -0.340462  0  3.646947  0  0  -0.420952  0  3.878953  0  0  -0.424179  0  3.889871  0  0  -0.242027  -0.418138  0  3.871396  0
C  C63  1  0.04078192  0.91104202  0.12126289  1  0  -0.340401  0  3.646777  0  0  -0.420808  0  3.87881  0  0  -0.424032  0  3.889724  0  0  -0.241973  -0.417998  0  3.871257  0
C  C64  1  0.80360735  0.30823847  0.18597685  1  0  -0.340051  0  3.638483  0  0  -0.42004  0  3.870851  0  0  -0.423223  0  3.881256  0  0  -0.245832  -0.417405  0  3.863933  0
C  C65  1  0.30360051  0.19176584  0.81402337  1  0  -0.339984  0  3.638532  0  0  -0.420077  0  3.870807  0  0  -0.423256  0  3.881237  0  0  -0.245793  -0.417439  0  3.863887  0
C  C66  1  0.19639088  0.69175664  0.81401611  1  0  -0.33991  0  3.638192  0  0  -0.420016  0  3.870494  0  0  -0.42318  0  3.880921  0  0  -0.245833  -0.41738  0  3.863579  0
C  C67  1  0.69638210  0.80823630  0.18598023  1  0  -0.339966  0  3.638399  0  0  -0.420147  0  3.870678  0  0  -0.423323  0  3.881094  0  0  -0.245896  -0.417509  0  3.863759  0
N  N68  1  0.27482582  0.47514747  0.41733362  1  0  0.027646  0  3.242361  0  0  0.058304  0  3.546541  0  0  0.067433  0  3.556636  0  0  -0.180468  0.053076  0  3.538711  0
N  N69  1  0.77481407  0.02485163  0.58266290  1  0  0.027502  0  3.242059  0  0  0.058267  0  3.546229  0  0  0.067349  0  3.55628  0  0  -0.18041  0.053053  0  3.538427  0
N  N70  1  0.72520019  0.52486157  0.58265977  1  0  0.027306  0  3.242084  0  0  0.058101  0  3.546282  0  0  0.067164  0  3.556333  0  0  -0.180543  0.052895  0  3.53847  0
N  N71  1  0.22519631  0.97514753  0.41734086  1  0  0.027579  0  3.242021  0  0  0.0583  0  3.546254  0  0  0.067391  0  3.556316  0  0  -0.180387  0.05309  0  3.538453  0
N  N72  1  0.72660264  0.63875261  0.37962696  1  0  -0.427224  0  2.804904  0  0  -0.389077  0  3.10199  0  0  -0.399638  0  3.099404  0  0  -0.351006  -0.383081  0  3.104875  0
N  N73  1  0.22658554  0.86125356  0.62038174  1  0  -0.42712  0  2.804969  0  0  -0.389001  0  3.1021  0  0  -0.399564  0  3.099526  0  0  -0.350922  -0.382999  0  3.104988  0
N  N74  1  0.27342337  0.36125651  0.62037938  1  0  -0.427251  0  2.805277  0  0  -0.389136  0  3.10236  0  0  -0.399701  0  3.099794  0  0  -0.35096  -0.383133  0  3.105225  0
N  N75  1  0.77341096  0.13874057  0.37961319  1  0  -0.42711  0  2.805225  0  0  -0.388983  0  3.102315  0  0  -0.399548  0  3.099748  0  0  -0.350925  -0.38298  0  3.10518  0
O  O76  1  0.27951472  0.58777198  0.48196695  1  0  -0.40275  0  2.122117  0  0  -0.340572  0  2.415205  0  0  -0.366815  0  2.413663  0  0  -0.176668  -0.32229  0  2.414982  0
O  O77  1  0.77950900  0.91222753  0.51802587  1  0  -0.402684  0  2.122033  0  0  -0.340525  0  2.415074  0  0  -0.366771  0  2.413557  0  0  -0.17668  -0.322236  0  2.414848  0
O  O78  1  0.72050087  0.41223506  0.51802463  1  0  -0.402572  0  2.121977  0  0  -0.340462  0  2.415076  0  0  -0.366714  0  2.41356  0  0  -0.176682  -0.322162  0  2.414826  0
O  O79  1  0.22049096  0.08777658  0.48197522  1  0  -0.4027  0  2.121926  0  0  -0.340561  0  2.415036  0  0  -0.366809  0  2.413513  0  0  -0.176719  -0.322272  0  2.414802  0
O  O80  1  0.28709965  0.23031689  0.28600613  1  0  -0.459171  0  2.022324  0  0  -0.412872  0  2.260978  0  0  -0.434608  0  2.25894  0  0  -0.256894  -0.398029  0  2.262162  0
O  O81  1  0.78710459  0.26967836  0.71399536  1  0  -0.45901  0  2.022742  0  0  -0.412672  0  2.261494  0  0  -0.4344  0  2.259471  0  0  -0.256837  -0.39783  0  2.262675  0
O  O82  1  0.71288122  0.76967631  0.71399868  1  0  -0.458909  0  2.023705  0  0  -0.412541  0  2.262331  0  0  -0.434265  0  2.26032  0  0  -0.256757  -0.397689  0  2.263482  0
O  O83  1  0.21288322  0.73032080  0.28600840  1  0  -0.459058  0  2.022876  0  0  -0.412715  0  2.261607  0  0  -0.434444  0  2.259586  0  0  -0.256846  -0.397872  0  2.262786  0
