# generated using pymatgen
data_Cd3H24(C9N7)2
_symmetry_space_group_name_H-M   'P 1'
_cell_length_a   8.81968565
_cell_length_b   11.34926998
_cell_length_c   13.17918149
_cell_angle_alpha   90.00014615
_cell_angle_beta   89.99988835
_cell_angle_gamma   105.10148108
_symmetry_Int_Tables_number   1
_chemical_formula_structural   Cd3H24(C9N7)2
_chemical_formula_sum   'Cd6 H48 C36 N28'
_cell_volume   1273.63917835
_cell_formula_units_Z   2
loop_
 _symmetry_equiv_pos_site_id
 _symmetry_equiv_pos_as_xyz
  1  'x, y, z'
loop_
 _atom_site_type_symbol
 _atom_site_label
 _atom_site_symmetry_multiplicity
 _atom_site_fract_x
 _atom_site_fract_y
 _atom_site_fract_z
 _atom_site_occupancy
 _atom_site_hle17_bader_spin_density
 _atom_site_hle17_ddec_charge
 _atom_site_hle17_ddec_spin_density
 _atom_site_hle17_ddec_sum_bond_order
 _atom_site_hle17_magmom
 _atom_site_hse06_10hf_bader_spin_density
 _atom_site_hse06_10hf_ddec_charge
 _atom_site_hse06_10hf_ddec_spin_density
 _atom_site_hse06_10hf_ddec_sum_bond_order
 _atom_site_hse06_10hf_magmom
 _atom_site_hse06_bader_spin_density
 _atom_site_hse06_ddec_charge
 _atom_site_hse06_ddec_spin_density
 _atom_site_hse06_ddec_sum_bond_order
 _atom_site_hse06_magmom
 _atom_site_pbe_bader_spin_density
 _atom_site_pbe_cm5_charge
 _atom_site_pbe_ddec_charge
 _atom_site_pbe_ddec_spin_density
 _atom_site_pbe_ddec_sum_bond_order
 _atom_site_pbe_magmom
Cd  Cd0  1  0.52654543  0.79435455  0.21528324  1  0  0.764163  0  2.222894  0  0  0.579454  0  2.673503  0  0  0.616963  0  2.640531  0  0  0.616557  0.553545  0  2.696014  0
Cd  Cd1  1  0.47345730  0.70564700  0.71528161  1  0  0.764058  0  2.222969  0  0  0.57935  0  2.673563  0  0  0.61686  0  2.640592  0  0  0.616546  0.553444  0  2.696072  0
Cd  Cd2  1  0.47345347  0.20564713  0.78471709  1  0  0.764061  0  2.223063  0  0  0.579367  0  2.673637  0  0  0.616877  0  2.640664  0  0  0.616554  0.553461  0  2.696147  0
Cd  Cd3  1  0.52654614  0.29435469  0.28471872  1  0  0.764056  0  2.223063  0  0  0.579367  0  2.673635  0  0  0.616875  0  2.640665  0  0  0.616548  0.553458  0  2.696146  0
Cd  Cd4  1  0.00000016  0.50000033  0.99999968  1  0  1.075115  0  1.900115  0  0  0.877545  0  2.355228  0  0  0.927295  0  2.313617  0  0  0.820093  0.842554  0  2.383248  0
Cd  Cd5  1  0.00000062  0.00000064  0.49999994  1  0  1.075143  0  1.900131  0  0  0.877581  0  2.355252  0  0  0.927335  0  2.313635  0  0  0.820105  0.842589  0  2.383277  0
H  H6  1  0.81979722  0.63148432  0.81996382  1  0  0.078683  0  0.901626  0  0  0.093543  0  0.961906  0  0  0.093948  0  0.961766  0  0  0.121787  0.09313  0  0.962195  0
H  H7  1  0.18020325  0.86851476  0.31996380  1  0  0.078666  0  0.901567  0  0  0.093514  0  0.961869  0  0  0.093911  0  0.961727  0  0  0.12177  0.093101  0  0.962159  0
H  H8  1  0.18020304  0.36851463  0.18003650  1  0  0.078663  0  0.901582  0  0  0.093504  0  0.96188  0  0  0.0939  0  0.961737  0  0  0.121769  0.09309  0  0.962172  0
H  H9  1  0.81979504  0.13148509  0.68003577  1  0  0.078701  0  0.901634  0  0  0.093548  0  0.961904  0  0  0.093945  0  0.96176  0  0  0.121784  0.093135  0  0.962192  0
H  H10  1  0.66228230  0.54895601  0.89770235  1  0  0.067465  0  0.927844  0  0  0.079482  0  0.99732  0  0  0.079423  0  0.997927  0  0  0.112363  0.079378  0  0.997139  0
H  H11  1  0.33771884  0.95104236  0.39770078  1  0  0.06744  0  0.927861  0  0  0.079467  0  0.997323  0  0  0.079401  0  0.997927  0  0  0.11236  0.079363  0  0.997141  0
H  H12  1  0.33771765  0.45104203  0.10229874  1  0  0.067417  0  0.927863  0  0  0.079438  0  0.997321  0  0  0.079374  0  0.997923  0  0  0.112344  0.079336  0  0.99714  0
H  H13  1  0.66227945  0.04895749  0.60229803  1  0  0.067456  0  0.927845  0  0  0.079458  0  0.997311  0  0  0.079389  0  0.997914  0  0  0.112363  0.079354  0  0.997129  0
H  H14  1  0.83668014  0.69218720  0.13463528  1  0  0.080097  0  0.902557  0  0  0.093735  0  0.964563  0  0  0.094311  0  0.964022  0  0  0.121341  0.093216  0  0.965113  0
H  H15  1  0.16332192  0.80781506  0.63463427  1  0  0.080093  0  0.902611  0  0  0.093713  0  0.964631  0  0  0.094288  0  0.964089  0  0  0.12133  0.093194  0  0.965181  0
H  H16  1  0.16332042  0.30781266  0.86536505  1  0  0.080076  0  0.902557  0  0  0.093716  0  0.96457  0  0  0.094292  0  0.964026  0  0  0.121346  0.093198  0  0.965119  0
H  H17  1  0.83667864  0.19218480  0.36536530  1  0  0.080094  0  0.902568  0  0  0.093712  0  0.964576  0  0  0.094286  0  0.964037  0  0  0.121337  0.093192  0  0.965125  0
H  H18  1  0.67230774  0.58479012  0.08086182  1  0  0.071834  0  0.915736  0  0  0.083843  0  0.983766  0  0  0.083903  0  0.984199  0  0  0.114967  0.083696  0  0.98363  0
H  H19  1  0.32769413  0.91521109  0.58086084  1  0  0.07184  0  0.915753  0  0  0.083858  0  0.983758  0  0  0.083916  0  0.98419  0  0  0.114979  0.083711  0  0.983621  0
H  H20  1  0.32769312  0.41521065  0.91913926  1  0  0.071817  0  0.915719  0  0  0.083828  0  0.983758  0  0  0.083887  0  0.98419  0  0  0.11497  0.08368  0  0.983621  0
H  H21  1  0.67230530  0.08478877  0.41913873  1  0  0.07187  0  0.915723  0  0  0.083862  0  0.983751  0  0  0.083922  0  0.984183  0  0  0.114975  0.083715  0  0.983613  0
H  H22  1  0.73659101  0.95938478  0.02759788  1  0  0.0715  0  0.904076  0  0  0.088928  0  0.961728  0  0  0.089026  0  0.961446  0  0  0.118787  0.08877  0  0.962042  0
H  H23  1  0.26340983  0.54061630  0.52759692  1  0  0.071497  0  0.904079  0  0  0.088924  0  0.961732  0  0  0.089022  0  0.96145  0  0  0.11879  0.088763  0  0.962047  0
H  H24  1  0.26340924  0.04061417  0.97240169  1  0  0.071502  0  0.904071  0  0  0.08892  0  0.961724  0  0  0.089018  0  0.961442  0  0  0.11878  0.088761  0  0.96204  0
H  H25  1  0.73659103  0.45938447  0.47240189  1  0  0.071438  0  0.90415  0  0  0.088891  0  0.961768  0  0  0.088989  0  0.961485  0  0  0.11877  0.088733  0  0.962082  0
H  H26  1  0.87458529  0.90938933  0.10433467  1  0  0.071907  0  0.932793  0  0  0.079  0  1.007002  0  0  0.080153  0  1.005579  0  0  0.113777  0.078125  0  1.008053  0
H  H27  1  0.12541540  0.59061194  0.60433400  1  0  0.071874  0  0.932822  0  0  0.078967  0  1.007034  0  0  0.080121  0  1.005609  0  0  0.113759  0.078091  0  1.008086  0
H  H28  1  0.12541527  0.09061053  0.89566490  1  0  0.071894  0  0.93282  0  0  0.078978  0  1.007028  0  0  0.080132  0  1.005603  0  0  0.113767  0.078103  0  1.008079  0
H  H29  1  0.87458463  0.40938975  0.39566481  1  0  0.071907  0  0.932803  0  0  0.078988  0  1.007023  0  0  0.080142  0  1.0056  0  0  0.11377  0.078115  0  1.008075  0
H  H30  1  0.85782037  0.84591040  0.79174984  1  0  0.073814  0  0.926956  0  0  0.08772  0  0.988525  0  0  0.088151  0  0.988213  0  0  0.115202  0.08736  0  0.988844  0
H  H31  1  0.14217819  0.65408952  0.29174939  1  0  0.073827  0  0.926926  0  0  0.087717  0  0.988516  0  0  0.088156  0  0.988189  0  0  0.115199  0.087356  0  0.988836  0
H  H32  1  0.14217762  0.15408854  0.20825049  1  0  0.073849  0  0.926895  0  0  0.087731  0  0.988494  0  0  0.088174  0  0.988162  0  0  0.1152  0.08737  0  0.988812  0
H  H33  1  0.85782040  0.34591125  0.70825018  1  0  0.073835  0  0.926947  0  0  0.087747  0  0.9885  0  0  0.088185  0  0.988181  0  0  0.115214  0.087387  0  0.988819  0
H  H34  1  0.72787898  0.92398355  0.84849329  1  0  0.073715  0  0.935864  0  0  0.088831  0  0.996588  0  0  0.088826  0  0.996906  0  0  0.115669  0.088748  0  0.996536  0
H  H35  1  0.27211855  0.57601378  0.34849250  1  0  0.073714  0  0.935832  0  0  0.088827  0  0.99655  0  0  0.088822  0  0.996869  0  0  0.115693  0.088742  0  0.996499  0
H  H36  1  0.27211870  0.07601449  0.15150704  1  0  0.073727  0  0.935806  0  0  0.088843  0  0.996514  0  0  0.088838  0  0.996834  0  0  0.115695  0.08876  0  0.996461  0
H  H37  1  0.72788118  0.42398699  0.65150706  1  0  0.073763  0  0.935753  0  0  0.088874  0  0.99647  0  0  0.08887  0  0.99679  0  0  0.115719  0.088789  0  0.996417  0
H  H38  1  0.48799841  0.65443676  0.97669231  1  0  0.06489  0  0.926346  0  0  0.077953  0  0.995048  0  0  0.078177  0  0.994872  0  0  0.111533  0.077697  0  0.995321  0
H  H39  1  0.51200174  0.84556273  0.47669104  1  0  0.064914  0  0.926329  0  0  0.077976  0  0.995029  0  0  0.0782  0  0.994852  0  0  0.111545  0.077716  0  0.995301  0
H  H40  1  0.51200154  0.34556127  0.02330802  1  0  0.0649  0  0.926362  0  0  0.077947  0  0.995071  0  0  0.078172  0  0.994893  0  0  0.111519  0.077686  0  0.995343  0
H  H41  1  0.48799829  0.15443896  0.52330777  1  0  0.064912  0  0.926374  0  0  0.077959  0  0.995066  0  0  0.078183  0  0.994889  0  0  0.111527  0.077701  0  0.995339  0
H  H42  1  0.51445427  0.81344872  0.95468276  1  0  0.079328  0  0.921915  0  0  0.092571  0  0.985311  0  0  0.092591  0  0.985778  0  0  0.119139  0.092473  0  0.985097  0
H  H43  1  0.48554562  0.68654980  0.45468193  1  0  0.079337  0  0.921871  0  0  0.092559  0  0.98529  0  0  0.092577  0  0.985763  0  0  0.119142  0.092458  0  0.985075  0
H  H44  1  0.48554568  0.18654932  0.04531757  1  0  0.079358  0  0.92186  0  0  0.092562  0  0.985286  0  0  0.092581  0  0.985755  0  0  0.119154  0.092461  0  0.98507  0
H  H45  1  0.51445411  0.31345097  0.54531688  1  0  0.079348  0  0.921884  0  0  0.092548  0  0.985302  0  0  0.092566  0  0.985774  0  0  0.11915  0.092449  0  0.985086  0
H  H46  1  0.04723666  0.80250965  0.02839639  1  0  0.074523  0  0.918768  0  0  0.089011  0  0.979192  0  0  0.089395  0  0.978969  0  0  0.11816  0.088599  0  0.979546  0
H  H47  1  0.95276532  0.69749142  0.52839790  1  0  0.07458  0  0.918757  0  0  0.08906  0  0.979162  0  0  0.089444  0  0.978941  0  0  0.118196  0.088645  0  0.979519  0
H  H48  1  0.95276534  0.19749112  0.97160242  1  0  0.074539  0  0.918762  0  0  0.089021  0  0.979178  0  0  0.089405  0  0.978956  0  0  0.118178  0.088607  0  0.979535  0
H  H49  1  0.04723297  0.30250844  0.47160243  1  0  0.074591  0  0.918782  0  0  0.089063  0  0.979177  0  0  0.089447  0  0.978956  0  0  0.1182  0.088649  0  0.979534  0
H  H50  1  0.04131365  0.77645986  0.89450175  1  0  0.077471  0  0.915973  0  0  0.091229  0  0.977002  0  0  0.091583  0  0.976935  0  0  0.119079  0.090856  0  0.9772  0
H  H51  1  0.95868583  0.72354032  0.39450266  1  0  0.077486  0  0.916016  0  0  0.091227  0  0.977034  0  0  0.091581  0  0.97697  0  0  0.119073  0.090855  0  0.977229  0
H  H52  1  0.95868577  0.22354000  0.10549706  1  0  0.077477  0  0.916033  0  0  0.091226  0  0.977053  0  0  0.091579  0  0.976988  0  0  0.119076  0.090853  0  0.977248  0
H  H53  1  0.04131359  0.27645953  0.60549691  1  0  0.077501  0  0.916022  0  0  0.091232  0  0.977035  0  0  0.091587  0  0.976971  0  0  0.119078  0.09086  0  0.977229  0
C  C54  1  0.74900990  0.63716250  0.88748855  1  0  0.085245  0  3.61696  0  0  0.012268  0  3.882251  0  0  0.020451  0  3.892686  0  0  0.017581  0.006697  0  3.875065  0
C  C55  1  0.25098930  0.86283675  0.38749070  1  0  0.085351  0  3.616832  0  0  0.012388  0  3.882085  0  0  0.020601  0  3.892483  0  0  0.017653  0.006821  0  3.874897  0
C  C56  1  0.25098809  0.36283644  0.11250950  1  0  0.085347  0  3.616911  0  0  0.012428  0  3.882116  0  0  0.020644  0  3.892508  0  0  0.017682  0.006859  0  3.874929  0
C  C57  1  0.74900703  0.13716402  0.61251114  1  0  0.085296  0  3.616988  0  0  0.012401  0  3.882143  0  0  0.020628  0  3.892522  0  0  0.017652  0.006833  0  3.874954  0
C  C58  1  0.75946780  0.67219605  0.06800674  1  0  0.087071  0  3.605385  0  0  0.014823  0  3.869169  0  0  0.02314  0  3.879293  0  0  0.017973  0.009214  0  3.862128  0
C  C59  1  0.24053327  0.82780604  0.56800643  1  0  0.087049  0  3.605489  0  0  0.014821  0  3.869289  0  0  0.023135  0  3.879425  0  0  0.017975  0.009217  0  3.862244  0
C  C60  1  0.24053276  0.32780381  0.93199359  1  0  0.087051  0  3.605449  0  0  0.01478  0  3.869239  0  0  0.023087  0  3.879387  0  0  0.017906  0.009174  0  3.862199  0
C  C61  1  0.75946563  0.17219564  0.43199238  1  0  0.087046  0  3.605324  0  0  0.01486  0  3.869094  0  0  0.023178  0  3.879214  0  0  0.018004  0.009258  0  3.862045  0
C  C62  1  0.79783853  0.88728666  0.03766060  1  0  0.083638  0  3.636164  0  0  0.009136  0  3.907968  0  0  0.01767  0  3.916732  0  0  0.018745  0.003375  0  3.90189  0
C  C63  1  0.20216055  0.61271262  0.53766139  1  0  0.083651  0  3.636166  0  0  0.009161  0  3.90799  0  0  0.017695  0  3.916753  0  0  0.01875  0.003395  0  3.901914  0
C  C64  1  0.20216059  0.11271229  0.96233897  1  0  0.083612  0  3.636215  0  0  0.009139  0  3.907969  0  0  0.017674  0  3.916734  0  0  0.018756  0.003378  0  3.901887  0
C  C65  1  0.79783970  0.38728633  0.46233893  1  0  0.083613  0  3.63618  0  0  0.00913  0  3.907995  0  0  0.017663  0  3.916759  0  0  0.018754  0.003361  0  3.901921  0
C  C66  1  0.78842527  0.85199601  0.85964485  1  0  0.075599  0  3.633732  0  0  0.004529  0  3.895322  0  0  0.012917  0  3.904258  0  0  0.013114  -0.001176  0  3.889204  0
C  C67  1  0.21157573  0.64800500  0.35964506  1  0  0.075599  0  3.633689  0  0  0.004535  0  3.895267  0  0  0.012923  0  3.904206  0  0  0.013108  -0.001171  0  3.889148  0
C  C68  1  0.21157560  0.14800477  0.14035396  1  0  0.075549  0  3.633707  0  0  0.004502  0  3.895306  0  0  0.012883  0  3.904248  0  0  0.013117  -0.001202  0  3.889185  0
C  C69  1  0.78842400  0.35199577  0.64035375  1  0  0.075507  0  3.633623  0  0  0.004435  0  3.895238  0  0  0.012815  0  3.904184  0  0  0.013079  -0.001269  0  3.889116  0
C  C70  1  0.57590640  0.74179055  0.96508161  1  0  0.079563  0  3.624431  0  0  0.005069  0  3.888198  0  0  0.013415  0  3.898178  0  0  0.014046  -0.00056  0  3.881224  0
C  C71  1  0.42409233  0.75820799  0.46508027  1  0  0.079496  0  3.624414  0  0  0.005027  0  3.888173  0  0  0.013371  0  3.898158  0  0  0.01401  -0.000592  0  3.881185  0
C  C72  1  0.42409242  0.25820749  0.03491947  1  0  0.07947  0  3.624493  0  0  0.005029  0  3.88821  0  0  0.013375  0  3.89819  0  0  0.014006  -0.000585  0  3.881211  0
C  C73  1  0.57590626  0.24179277  0.53491854  1  0  0.079407  0  3.624482  0  0  0.005014  0  3.888165  0  0  0.01336  0  3.898145  0  0  0.013991  -0.000611  0  3.881184  0
C  C74  1  0.97038818  0.78309632  0.96163202  1  0  0.086139  0  3.61269  0  0  0.015892  0  3.876837  0  0  0.024285  0  3.885845  0  0  0.019438  0.010263  0  3.870537  0
C  C75  1  0.02961374  0.71690495  0.46163262  1  0  0.086011  0  3.61292  0  0  0.015845  0  3.876959  0  0  0.024234  0  3.885973  0  0  0.019415  0.010212  0  3.870657  0
C  C76  1  0.02961268  0.21690445  0.03836755  1  0  0.08608  0  3.612857  0  0  0.015877  0  3.876947  0  0  0.024271  0  3.885955  0  0  0.019436  0.010251  0  3.870643  0
C  C77  1  0.97038682  0.28309491  0.53836695  1  0  0.085976  0  3.612952  0  0  0.015857  0  3.876921  0  0  0.024246  0  3.885936  0  0  0.019417  0.010227  0  3.870616  0
C  C78  1  0.52349310  0.49487940  0.29853695  1  0  -0.127507  0  3.191801  0  0  -0.116713  0  3.496947  0  0  -0.114096  0  3.507349  0  0  -0.020581  -0.118309  0  3.490038  0
C  C79  1  0.47650761  0.00512245  0.79853335  1  0  -0.127698  0  3.191739  0  0  -0.116928  0  3.496925  0  0  -0.11431  0  3.507329  0  0  -0.020676  -0.118523  0  3.490013  0
C  C80  1  0.47651291  0.50512320  0.70146490  1  0  -0.127639  0  3.191751  0  0  -0.116854  0  3.496915  0  0  -0.114235  0  3.507315  0  0  -0.020639  -0.118448  0  3.490002  0
C  C81  1  0.52348841  0.99487740  0.20147380  1  0  -0.127629  0  3.191683  0  0  -0.116854  0  3.496857  0  0  -0.114234  0  3.507259  0  0  -0.020671  -0.118451  0  3.489946  0
C  C82  1  0.23478113  0.63149657  0.80087273  1  0  -0.08065  0  3.143681  0  0  -0.068007  0  3.438928  0  0  -0.064571  0  3.450764  0  0  -0.00485  -0.070096  0  3.430753  0
C  C83  1  0.76521733  0.86849973  0.30087118  1  0  -0.080661  0  3.143005  0  0  -0.068028  0  3.438283  0  0  -0.064588  0  3.450122  0  0  -0.00485  -0.070116  0  3.430105  0
C  C84  1  0.76521768  0.36850147  0.19913139  1  0  -0.080598  0  3.142793  0  0  -0.067974  0  3.438072  0  0  -0.064533  0  3.449909  0  0  -0.004858  -0.070065  0  3.429896  0
C  C85  1  0.23478406  0.13149922  0.69912990  1  0  -0.080594  0  3.142961  0  0  -0.067964  0  3.43824  0  0  -0.064523  0  3.450077  0  0  -0.004851  -0.070055  0  3.430062  0
C  C86  1  0.69591093  0.30295567  0.87312997  1  0  -0.073968  0  3.187729  0  0  -0.062542  0  3.49122  0  0  -0.058852  0  3.502362  0  0  0.007133  -0.064954  0  3.483741  0
C  C87  1  0.30408728  0.19704272  0.37313017  1  0  -0.073905  0  3.18771  0  0  -0.062474  0  3.491196  0  0  -0.058785  0  3.502339  0  0  0.007171  -0.064886  0  3.483715  0
C  C88  1  0.30408767  0.69704510  0.12686808  1  0  -0.073973  0  3.187724  0  0  -0.062542  0  3.491212  0  0  -0.058854  0  3.502356  0  0  0.007131  -0.064952  0  3.483731  0
C  C89  1  0.69591192  0.80295987  0.62686940  1  0  -0.073894  0  3.187777  0  0  -0.06246  0  3.49127  0  0  -0.058769  0  3.502411  0  0  0.007183  -0.064872  0  3.483789  0
N  N90  1  0.67782237  0.76976592  0.05592497  1  0  -0.289095  0  3.19082  0  0  -0.197196  0  3.432501  0  0  -0.215648  0  3.451877  0  0  -0.345044  -0.184337  0  3.418928  0
N  N91  1  0.32217811  0.73023431  0.55592510  1  0  -0.289028  0  3.190643  0  0  -0.197172  0  3.43237  0  0  -0.215624  0  3.451743  0  0  -0.345034  -0.184314  0  3.418795  0
N  N92  1  0.32217706  0.23023394  0.94407460  1  0  -0.28904  0  3.19079  0  0  -0.197107  0  3.432387  0  0  -0.21556  0  3.45176  0  0  -0.345005  -0.184252  0  3.418811  0
N  N93  1  0.67782161  0.26976646  0.44407447  1  0  -0.288953  0  3.190678  0  0  -0.197151  0  3.432386  0  0  -0.215601  0  3.451761  0  0  -0.345029  -0.184288  0  3.418808  0
N  N94  1  0.85469966  0.66190160  0.97728468  1  0  -0.301443  0  3.161148  0  0  -0.212233  0  3.408558  0  0  -0.230904  0  3.426581  0  0  -0.340149  -0.199099  0  3.395592  0
N  N95  1  0.14530306  0.83809880  0.47728464  1  0  -0.301431  0  3.161264  0  0  -0.212252  0  3.408668  0  0  -0.230929  0  3.426683  0  0  -0.340198  -0.199122  0  3.395698  0
N  N96  1  0.14530317  0.33809826  0.02271565  1  0  -0.301394  0  3.161253  0  0  -0.212213  0  3.408651  0  0  -0.23089  0  3.426664  0  0  -0.340173  -0.199083  0  3.395688  0
N  N97  1  0.85469637  0.16190106  0.52271569  1  0  -0.301487  0  3.161271  0  0  -0.212351  0  3.408639  0  0  -0.231033  0  3.42665  0  0  -0.340246  -0.199219  0  3.39567  0
N  N98  1  0.66712330  0.73377510  0.87257125  1  0  -0.2835  0  3.173942  0  0  -0.194551  0  3.417034  0  0  -0.212535  0  3.435469  0  0  -0.340406  -0.181829  0  3.403833  0
N  N99  1  0.33287758  0.76622229  0.37257080  1  0  -0.283545  0  3.173932  0  0  -0.194568  0  3.416984  0  0  -0.212563  0  3.435415  0  0  -0.340404  -0.181852  0  3.403781  0
N  N100  1  0.33287748  0.26622202  0.12742984  1  0  -0.28349  0  3.174002  0  0  -0.194571  0  3.417063  0  0  -0.212564  0  3.435496  0  0  -0.340412  -0.181853  0  3.403859  0
N  N101  1  0.66712101  0.23377848  0.62742877  1  0  -0.283412  0  3.173798  0  0  -0.19448  0  3.416823  0  0  -0.212478  0  3.435253  0  0  -0.340374  -0.181763  0  3.403619  0
N  N102  1  0.89181493  0.88028072  0.94764193  1  0  -0.260373  0  3.175993  0  0  -0.195346  0  3.441828  0  0  -0.209943  0  3.457462  0  0  -0.344046  -0.18508  0  3.430762  0
N  N103  1  0.10818588  0.61972052  0.44764297  1  0  -0.260341  0  3.176072  0  0  -0.195338  0  3.441884  0  0  -0.209936  0  3.457521  0  0  -0.344052  -0.185056  0  3.430803  0
N  N104  1  0.10818562  0.11971914  0.05235688  1  0  -0.260318  0  3.176065  0  0  -0.195327  0  3.441897  0  0  -0.209925  0  3.457535  0  0  -0.344059  -0.185056  0  3.430824  0
N  N105  1  0.89181498  0.38028026  0.55235735  1  0  -0.260319  0  3.176068  0  0  -0.19535  0  3.441891  0  0  -0.209946  0  3.457528  0  0  -0.344076  -0.185069  0  3.43081  0
N  N106  1  0.81209420  0.35818965  0.91198973  1  0  -0.43135  0  3.078479  0  0  -0.367786  0  3.36379  0  0  -0.387276  0  3.378137  0  0  -0.379291  -0.354416  0  3.353884  0
N  N107  1  0.18790537  0.14180976  0.41198920  1  0  -0.431398  0  3.078487  0  0  -0.367834  0  3.363797  0  0  -0.387327  0  3.378146  0  0  -0.379318  -0.354466  0  3.35389  0
N  N108  1  0.18790749  0.64181021  0.08801060  1  0  -0.431341  0  3.078512  0  0  -0.367771  0  3.363812  0  0  -0.387261  0  3.378161  0  0  -0.379281  -0.354403  0  3.353904  0
N  N109  1  0.81209550  0.85819102  0.58801037  1  0  -0.431414  0  3.078558  0  0  -0.367859  0  3.36388  0  0  -0.38735  0  3.378226  0  0  -0.379336  -0.354491  0  3.353973  0
N  N110  1  0.53558791  0.59751550  0.27861169  1  0  -0.393034  0  3.086393  0  0  -0.332761  0  3.363475  0  0  -0.349985  0  3.379751  0  0  -0.374787  -0.321299  0  3.352645  0
N  N111  1  0.46441120  0.90248257  0.77861049  1  0  -0.392848  0  3.086241  0  0  -0.332562  0  3.363328  0  0  -0.349786  0  3.379609  0  0  -0.374696  -0.321098  0  3.352495  0
N  N112  1  0.46441348  0.40248345  0.72138940  1  0  -0.39289  0  3.086295  0  0  -0.332617  0  3.363381  0  0  -0.349841  0  3.379657  0  0  -0.374734  -0.321153  0  3.352546  0
N  N113  1  0.53558778  0.09752277  0.22139059  1  0  -0.392912  0  3.086276  0  0  -0.332631  0  3.363366  0  0  -0.349858  0  3.379646  0  0  -0.374686  -0.321167  0  3.352531  0
N  N114  1  0.13149392  0.57627967  0.85181900  1  0  -0.443225  0  3.066773  0  0  -0.378602  0  3.348003  0  0  -0.398108  0  3.362504  0  0  -0.387294  -0.365219  0  3.337844  0
N  N115  1  0.86851450  0.92372315  0.35182199  1  0  -0.443248  0  3.066073  0  0  -0.378613  0  3.347317  0  0  -0.398125  0  3.361823  0  0  -0.387295  -0.365228  0  3.337154  0
N  N116  1  0.86851693  0.42372385  0.14817678  1  0  -0.443281  0  3.065871  0  0  -0.378645  0  3.347136  0  0  -0.398157  0  3.361641  0  0  -0.387273  -0.365259  0  3.336974  0
N  N117  1  0.13148523  0.07627762  0.64817834  1  0  -0.443269  0  3.066017  0  0  -0.378637  0  3.34727  0  0  -0.398148  0  3.361773  0  0  -0.387278  -0.365252  0  3.337107  0
