# generated using pymatgen
data_ZnPH5C2N4O3
_symmetry_space_group_name_H-M   'P 1'
_cell_length_a   8.83947583
_cell_length_b   8.83948932
_cell_length_c   10.34885313
_cell_angle_alpha   70.25757281
_cell_angle_beta   70.25756079
_cell_angle_gamma   73.83995847
_symmetry_Int_Tables_number   1
_chemical_formula_structural   ZnPH5C2N4O3
_chemical_formula_sum   'Zn4 P4 H20 C8 N16 O12'
_cell_volume   703.94065750
_cell_formula_units_Z   4
loop_
 _symmetry_equiv_pos_site_id
 _symmetry_equiv_pos_as_xyz
  1  'x, y, z'
loop_
 _atom_site_type_symbol
 _atom_site_label
 _atom_site_symmetry_multiplicity
 _atom_site_fract_x
 _atom_site_fract_y
 _atom_site_fract_z
 _atom_site_occupancy
 _atom_site_hle17_bader_spin_density
 _atom_site_hle17_ddec_charge
 _atom_site_hle17_ddec_spin_density
 _atom_site_hle17_ddec_sum_bond_order
 _atom_site_hle17_magmom
 _atom_site_hse06_10hf_bader_spin_density
 _atom_site_hse06_10hf_ddec_charge
 _atom_site_hse06_10hf_ddec_spin_density
 _atom_site_hse06_10hf_ddec_sum_bond_order
 _atom_site_hse06_10hf_magmom
 _atom_site_hse06_bader_spin_density
 _atom_site_hse06_ddec_charge
 _atom_site_hse06_ddec_spin_density
 _atom_site_hse06_ddec_sum_bond_order
 _atom_site_hse06_magmom
 _atom_site_pbe_bader_spin_density
 _atom_site_pbe_cm5_charge
 _atom_site_pbe_ddec_charge
 _atom_site_pbe_ddec_spin_density
 _atom_site_pbe_ddec_sum_bond_order
 _atom_site_pbe_magmom
Zn  Zn0  1  0.27376687  0.55973430  0.95612900  1  0  1.211476  0  1.873707  0  0  1.04217  0  2.373148  0  0  1.083119  0  2.311182  0  0  0.72934  1.012538  0  2.416575  0
Zn  Zn1  1  0.44026552  0.72623630  0.54387073  1  0  1.211486  0  1.873755  0  0  1.04216  0  2.373203  0  0  1.083115  0  2.311236  0  0  0.729355  1.012529  0  2.416639  0
Zn  Zn2  1  0.72623337  0.44026382  0.04387176  1  0  1.211454  0  1.873692  0  0  1.042136  0  2.373134  0  0  1.083089  0  2.31117  0  0  0.729351  1.012501  0  2.416559  0
Zn  Zn3  1  0.55973347  0.27376794  0.45612863  1  0  1.211483  0  1.873733  0  0  1.042176  0  2.373177  0  0  1.083126  0  2.311209  0  0  0.729347  1.012543  0  2.416596  0
P  P4  1  0.61627704  0.67278793  0.77543465  1  0  1.444805  0  4.915016  0  0  1.254754  0  5.417374  0  0  1.304589  0  5.38162  0  0  0.278924  1.219604  0  5.44147  0
P  P5  1  0.32721434  0.38372657  0.72456428  1  0  1.444944  0  4.914856  0  0  1.254919  0  5.417199  0  0  1.304745  0  5.381444  0  0  0.278996  1.21978  0  5.441276  0
P  P6  1  0.38372389  0.32721266  0.22456520  1  0  1.444813  0  4.914991  0  0  1.254775  0  5.417345  0  0  1.304603  0  5.381594  0  0  0.278924  1.219624  0  5.441447  0
P  P7  1  0.67278634  0.61627525  0.27543432  1  0  1.444874  0  4.914987  0  0  1.254847  0  5.417333  0  0  1.304677  0  5.381577  0  0  0.278969  1.219702  0  5.441419  0
H  H8  1  0.67259223  0.81822372  0.74584091  1  0  -0.159847  0  0.926032  0  0  -0.127206  0  1.012754  0  0  -0.131404  0  1.009325  0  0  0.082416  -0.124457  0  1.015344  0
H  H9  1  0.18177696  0.32740951  0.75415708  1  0  -0.159861  0  0.926002  0  0  -0.127237  0  1.012741  0  0  -0.131437  0  1.009313  0  0  0.08241  -0.12449  0  1.015329  0
H  H10  1  0.32740776  0.18177563  0.25415958  1  0  -0.159861  0  0.926021  0  0  -0.127227  0  1.012756  0  0  -0.131424  0  1.009325  0  0  0.082414  -0.124477  0  1.015345  0
H  H11  1  0.81822517  0.67259110  0.24583952  1  0  -0.159862  0  0.926019  0  0  -0.127233  0  1.012757  0  0  -0.131431  0  1.009326  0  0  0.08241  -0.124485  0  1.015344  0
H  H12  1  0.61070717  0.13820893  0.78867043  1  0  0.36174  0  0.87815  0  0  0.341833  0  0.938864  0  0  0.34982  0  0.93217  0  0  0.313056  0.336192  0  0.943597  0
H  H13  1  0.86178969  0.38929430  0.71133121  1  0  0.36173  0  0.878174  0  0  0.34182  0  0.938894  0  0  0.349808  0  0.932199  0  0  0.313043  0.33618  0  0.943621  0
H  H14  1  0.38929112  0.86179284  0.21133081  1  0  0.361719  0  0.878157  0  0  0.341823  0  0.938866  0  0  0.34981  0  0.932172  0  0  0.313046  0.336183  0  0.943597  0
H  H15  1  0.13820741  0.61070744  0.28866942  1  0  0.361669  0  0.878223  0  0  0.341776  0  0.938926  0  0  0.349764  0  0.932232  0  0  0.313016  0.336135  0  0.943656  0
H  H16  1  0.55968659  0.21117390  0.93586494  1  0  0.362543  0  0.871649  0  0  0.340417  0  0.935664  0  0  0.348135  0  0.929439  0  0  0.313873  0.334909  0  0.940194  0
H  H17  1  0.78882295  0.44031444  0.56413635  1  0  0.362534  0  0.871649  0  0  0.340407  0  0.935669  0  0  0.348125  0  0.929444  0  0  0.313862  0.3349  0  0.940198  0
H  H18  1  0.44031605  0.78882427  0.06413705  1  0  0.362497  0  0.871698  0  0  0.340385  0  0.935698  0  0  0.348103  0  0.929474  0  0  0.313853  0.33488  0  0.940225  0
H  H19  1  0.21117584  0.55968489  0.43586255  1  0  0.36252  0  0.87166  0  0  0.34041  0  0.935655  0  0  0.348127  0  0.929433  0  0  0.313871  0.334902  0  0.94019  0
H  H20  1  0.69379393  0.09496727  0.10939020  1  0  0.358076  0  0.900828  0  0  0.339912  0  0.958607  0  0  0.347773  0  0.952531  0  0  0.306821  0.334358  0  0.962903  0
H  H21  1  0.90503322  0.30620444  0.39061113  1  0  0.358086  0  0.900824  0  0  0.339926  0  0.958593  0  0  0.347786  0  0.952518  0  0  0.30683  0.334372  0  0.962898  0
H  H22  1  0.30620606  0.90503208  0.89061029  1  0  0.358136  0  0.900795  0  0  0.340009  0  0.958525  0  0  0.34787  0  0.952443  0  0  0.306846  0.334454  0  0.96283  0
H  H23  1  0.09496822  0.69379371  0.60938928  1  0  0.358159  0  0.900767  0  0  0.340032  0  0.958494  0  0  0.347893  0  0.952411  0  0  0.306863  0.334481  0  0.962799  0
H  H24  1  0.85076496  0.92167769  0.10171367  1  0  0.340784  0  0.889957  0  0  0.320283  0  0.958222  0  0  0.326794  0  0.953352  0  0  0.313093  0.31563  0  0.961842  0
H  H25  1  0.07832246  0.14923520  0.39828812  1  0  0.340808  0  0.889913  0  0  0.320311  0  0.958177  0  0  0.326823  0  0.953306  0  0  0.313109  0.315662  0  0.961801  0
H  H26  1  0.14923527  0.07832044  0.89828517  1  0  0.340801  0  0.889963  0  0  0.320307  0  0.958223  0  0  0.326818  0  0.953353  0  0  0.313084  0.315656  0  0.961841  0
H  H27  1  0.92167753  0.85076415  0.60171333  1  0  0.34078  0  0.889914  0  0  0.320286  0  0.958178  0  0  0.326796  0  0.953308  0  0  0.31308  0.315636  0  0.961802  0
C  C28  1  0.95757112  0.79839432  0.89733841  1  0  0.560472  0  4.00802  0  0  0.522052  0  4.290423  0  0  0.550486  0  4.300013  0  0  0.315729  0.502561  0  4.28375  0
C  C29  1  0.20160874  0.04242790  0.60266262  1  0  0.560373  0  4.007934  0  0  0.521933  0  4.290353  0  0  0.550366  0  4.299945  0  0  0.315659  0.502445  0  4.283675  0
C  C30  1  0.04242477  0.20160741  0.10266257  1  0  0.560312  0  4.008064  0  0  0.521854  0  4.290488  0  0  0.550286  0  4.300082  0  0  0.315646  0.502364  0  4.283812  0
C  C31  1  0.79839678  0.95756788  0.39733730  1  0  0.560383  0  4.008051  0  0  0.52195  0  4.290465  0  0  0.550383  0  4.300056  0  0  0.315625  0.502454  0  4.28379  0
C  C32  1  0.74779885  0.01348269  0.93301979  1  0  0.76694  0  3.856947  0  0  0.7057  0  4.14636  0  0  0.737529  0  4.146672  0  0  0.369828  0.684198  0  4.145447  0
C  C33  1  0.98651714  0.25220078  0.56698013  1  0  0.766898  0  3.85706  0  0  0.705642  0  4.146491  0  0  0.737471  0  4.146806  0  0  0.369792  0.684139  0  4.145583  0
C  C34  1  0.25220019  0.98651541  0.06698036  1  0  0.767064  0  3.856894  0  0  0.705757  0  4.146399  0  0  0.737585  0  4.146712  0  0  0.36988  0.684255  0  4.14549  0
C  C35  1  0.01347970  0.74780219  0.43302021  1  0  0.767067  0  3.856863  0  0  0.705834  0  4.146266  0  0  0.737664  0  4.146573  0  0  0.369868  0.684334  0  4.145359  0
N  N36  1  0.06754836  0.69463851  0.92680118  1  0  -0.668948  0  2.913581  0  0  -0.609171  0  3.229614  0  0  -0.632918  0  3.223797  0  0  -0.4104  -0.592968  0  3.233848  0
N  N37  1  0.30535787  0.93245590  0.57320112  1  0  -0.668865  0  2.913658  0  0  -0.609062  0  3.229668  0  0  -0.632806  0  3.223853  0  0  -0.410356  -0.592861  0  3.233905  0
N  N38  1  0.93245407  0.30535475  0.07320036  1  0  -0.668844  0  2.913732  0  0  -0.609044  0  3.22975  0  0  -0.632787  0  3.223935  0  0  -0.410384  -0.592842  0  3.233981  0
N  N39  1  0.69463847  0.06754952  0.42679866  1  0  -0.668875  0  2.913393  0  0  -0.609106  0  3.22945  0  0  -0.632854  0  3.223634  0  0  -0.410308  -0.592897  0  3.233677  0
N  N40  1  0.84098498  0.90706749  0.85566216  1  0  -0.57469  0  3.109513  0  0  -0.525976  0  3.381304  0  0  -0.552479  0  3.385442  0  0  -0.339561  -0.507677  0  3.377935  0
N  N41  1  0.09293202  0.15901837  0.64433764  1  0  -0.574629  0  3.10937  0  0  -0.525888  0  3.381146  0  0  -0.552393  0  3.385289  0  0  -0.339498  -0.507581  0  3.377765  0
N  N42  1  0.15901551  0.09292942  0.14433792  1  0  -0.574672  0  3.10936  0  0  -0.525882  0  3.381146  0  0  -0.552386  0  3.385288  0  0  -0.339525  -0.507577  0  3.377766  0
N  N43  1  0.90706602  0.84098463  0.35566428  1  0  -0.574714  0  3.109781  0  0  -0.525975  0  3.381553  0  0  -0.552477  0  3.385689  0  0  -0.339562  -0.507671  0  3.378179  0
N  N44  1  0.63144242  0.12672631  0.88304217  1  0  -0.687622  0  3.070807  0  0  -0.643126  0  3.306969  0  0  -0.66472  0  3.301651  0  0  -0.559881  -0.628466  0  3.310589  0
N  N45  1  0.87327328  0.36855786  0.61695858  1  0  -0.687613  0  3.070832  0  0  -0.643116  0  3.306998  0  0  -0.66471  0  3.301681  0  0  -0.559872  -0.628456  0  3.310616  0
N  N46  1  0.36855637  0.87327301  0.11695867  1  0  -0.687593  0  3.070819  0  0  -0.643117  0  3.307025  0  0  -0.664709  0  3.301706  0  0  -0.559879  -0.628462  0  3.310645  0
N  N47  1  0.12672526  0.63144269  0.38304198  1  0  -0.687589  0  3.070771  0  0  -0.64314  0  3.306957  0  0  -0.664732  0  3.301637  0  0  -0.559877  -0.628477  0  3.310581  0
N  N48  1  0.76861221  0.01045887  0.05653486  1  0  -0.721076  0  3.068726  0  0  -0.676115  0  3.29702  0  0  -0.697836  0  3.291953  0  0  -0.567873  -0.661251  0  3.300352  0
N  N49  1  0.98954020  0.23138803  0.44346636  1  0  -0.721099  0  3.068707  0  0  -0.67615  0  3.297014  0  0  -0.697871  0  3.291946  0  0  -0.567893  -0.661289  0  3.300359  0
N  N50  1  0.23138803  0.98953926  0.94346494  1  0  -0.72119  0  3.068739  0  0  -0.676258  0  3.297027  0  0  -0.697983  0  3.291964  0  0  -0.567898  -0.661394  0  3.300364  0
N  N51  1  0.01045978  0.76861132  0.55653509  1  0  -0.721188  0  3.068646  0  0  -0.676276  0  3.296909  0  0  -0.698001  0  3.291848  0  0  -0.567899  -0.661415  0  3.300256  0
O  O52  1  0.44346318  0.70045612  0.87836597  1  0  -0.885403  0  2.073387  0  0  -0.780733  0  2.367209  0  0  -0.807977  0  2.34087  0  0  -0.37812  -0.761125  0  2.38456  0
O  O53  1  0.29954505  0.55654012  0.62163335  1  0  -0.885478  0  2.073362  0  0  -0.780801  0  2.367186  0  0  -0.808039  0  2.340839  0  0  -0.378158  -0.7612  0  2.384539  0
O  O54  1  0.55653656  0.29954445  0.12163327  1  0  -0.885393  0  2.073377  0  0  -0.780717  0  2.36719  0  0  -0.807961  0  2.340853  0  0  -0.378125  -0.761108  0  2.384538  0
O  O55  1  0.70045564  0.44346169  0.37836526  1  0  -0.885434  0  2.073373  0  0  -0.780747  0  2.367182  0  0  -0.80799  0  2.34084  0  0  -0.378132  -0.761146  0  2.384536  0
O  O56  1  0.73785475  0.53046238  0.84191170  1  0  -0.849946  0  2.029927  0  0  -0.747395  0  2.325572  0  0  -0.775246  0  2.300012  0  0  -0.38383  -0.726945  0  2.342798  0
O  O57  1  0.46954010  0.26214752  0.65808759  1  0  -0.849964  0  2.029925  0  0  -0.747412  0  2.32557  0  0  -0.77526  0  2.300006  0  0  -0.38383  -0.726967  0  2.34279  0
O  O58  1  0.26214524  0.46953697  0.15808878  1  0  -0.849957  0  2.029955  0  0  -0.747399  0  2.325585  0  0  -0.775252  0  2.300028  0  0  -0.383809  -0.72694  0  2.342781  0
O  O59  1  0.53046179  0.73785432  0.34191259  1  0  -0.849959  0  2.029994  0  0  -0.747419  0  2.32565  0  0  -0.775271  0  2.300088  0  0  -0.383832  -0.726961  0  2.342843  0
O  O60  1  0.61804142  0.65167244  0.63373185  1  0  -0.859319  0  2.070905  0  0  -0.757402  0  2.3723  0  0  -0.785674  0  2.3479  0  0  -0.383423  -0.73711  0  2.388943  0
O  O61  1  0.34832747  0.38195945  0.86626856  1  0  -0.859341  0  2.070857  0  0  -0.757451  0  2.372261  0  0  -0.785711  0  2.347855  0  0  -0.383434  -0.737165  0  2.388901  0
O  O62  1  0.38195856  0.34832690  0.36626767  1  0  -0.859298  0  2.070888  0  0  -0.757405  0  2.372287  0  0  -0.785663  0  2.34788  0  0  -0.38344  -0.737115  0  2.38893  0
O  O63  1  0.65167252  0.61803990  0.13373096  1  0  -0.859293  0  2.070856  0  0  -0.75741  0  2.372284  0  0  -0.785673  0  2.347879  0  0  -0.383432  -0.737123  0  2.388925  0
