# generated using pymatgen
data_CdH15C15S2N7
_symmetry_space_group_name_H-M   'P 1'
_cell_length_a   9.34381752
_cell_length_b   10.20751818
_cell_length_c   10.47318866
_cell_angle_alpha   95.83531780
_cell_angle_beta   98.43980558
_cell_angle_gamma   109.81455427
_symmetry_Int_Tables_number   1
_chemical_formula_structural   CdH15C15S2N7
_chemical_formula_sum   'Cd2 H30 C30 S4 N14'
_cell_volume   917.19773757
_cell_formula_units_Z   2
loop_
 _symmetry_equiv_pos_site_id
 _symmetry_equiv_pos_as_xyz
  1  'x, y, z'
loop_
 _atom_site_type_symbol
 _atom_site_label
 _atom_site_symmetry_multiplicity
 _atom_site_fract_x
 _atom_site_fract_y
 _atom_site_fract_z
 _atom_site_occupancy
 _atom_site_hle17_bader_spin_density
 _atom_site_hle17_ddec_charge
 _atom_site_hle17_ddec_spin_density
 _atom_site_hle17_ddec_sum_bond_order
 _atom_site_hle17_magmom
 _atom_site_hse06_10hf_bader_spin_density
 _atom_site_hse06_10hf_ddec_charge
 _atom_site_hse06_10hf_ddec_spin_density
 _atom_site_hse06_10hf_ddec_sum_bond_order
 _atom_site_hse06_10hf_magmom
 _atom_site_hse06_bader_spin_density
 _atom_site_hse06_ddec_charge
 _atom_site_hse06_ddec_spin_density
 _atom_site_hse06_ddec_sum_bond_order
 _atom_site_hse06_magmom
 _atom_site_pbe_bader_spin_density
 _atom_site_pbe_cm5_charge
 _atom_site_pbe_ddec_charge
 _atom_site_pbe_ddec_spin_density
 _atom_site_pbe_ddec_sum_bond_order
 _atom_site_pbe_magmom
Cd  Cd0  1  0.63369129  0.30794015  0.11819666  1  0  0.979605  0  1.979598  0  0  0.798488  0  2.452717  0  0  0.842636  0  2.41444  0  0  0.734136  0.768198  0  2.477018  0
Cd  Cd1  1  0.36630990  0.69206276  0.88180260  1  0  0.979564  0  1.979469  0  0  0.7984  0  2.452619  0  0  0.842549  0  2.41434  0  0  0.73415  0.768105  0  2.476919  0
H  H2  1  0.65446273  0.62678316  0.25584405  1  0  0.105677  0  0.960672  0  0  0.114023  0  1.022081  0  0  0.116007  0  1.021711  0  0  0.114696  0.112531  0  1.022428  0
H  H3  1  0.34555082  0.37322084  0.74415517  1  0  0.105689  0  0.96067  0  0  0.114034  0  1.022067  0  0  0.11602  0  1.021692  0  0  0.114685  0.112542  0  1.022417  0
H  H4  1  0.69802219  0.72909881  0.52034761  1  0  0.114727  0  0.955667  0  0  0.12837  0  1.012035  0  0  0.131059  0  1.010743  0  0  0.123981  0.126897  0  1.011995  0
H  H5  1  0.30198918  0.27090518  0.47965225  1  0  0.114689  0  0.955726  0  0  0.12837  0  1.012033  0  0  0.131058  0  1.010742  0  0  0.124004  0.126896  0  1.011992  0
H  H6  1  0.63780897  0.56003533  0.71622822  1  0  0.0951  0  0.939487  0  0  0.103404  0  1.007976  0  0  0.103983  0  1.008162  0  0  0.130096  0.103188  0  1.007516  0
H  H7  1  0.36218951  0.43996335  0.28376834  1  0  0.095106  0  0.939566  0  0  0.10343  0  1.008012  0  0  0.104009  0  1.008198  0  0  0.130128  0.103219  0  1.007557  0
H  H8  1  0.72587210  0.43009549  0.70573853  1  0  0.103223  0  0.925479  0  0  0.113536  0  0.992902  0  0  0.114639  0  0.991867  0  0  0.135078  0.112995  0  0.99316  0
H  H9  1  0.27412853  0.56990320  0.29425929  1  0  0.103243  0  0.925436  0  0  0.113576  0  0.992823  0  0  0.114679  0  0.99179  0  0  0.135047  0.113035  0  0.993082  0
H  H10  1  0.69986472  0.82731794  0.74481122  1  0  0.112986  0  0.959443  0  0  0.120276  0  1.024943  0  0  0.123081  0  1.023999  0  0  0.105006  0.118391  0  1.025716  0
H  H11  1  0.30013438  0.17267969  0.25518819  1  0  0.113004  0  0.959418  0  0  0.12029  0  1.024922  0  0  0.123093  0  1.023974  0  0  0.105015  0.118407  0  1.025697  0
H  H12  1  0.84667283  0.08392444  0.82088858  1  0  0.089163  0  0.968082  0  0  0.097976  0  1.032309  0  0  0.100116  0  1.031929  0  0  0.095811  0.095953  0  1.033777  0
H  H13  1  0.15332297  0.91607317  0.17911322  1  0  0.089118  0  0.968131  0  0  0.097957  0  1.032325  0  0  0.100097  0  1.031944  0  0  0.0958  0.095955  0  1.033767  0
H  H14  1  0.12794151  0.17662403  0.89831647  1  0  0.086238  0  1.006694  0  0  0.094885  0  1.072624  0  0  0.09688  0  1.073026  0  0  0.090061  0.093572  0  1.072397  0
H  H15  1  0.87205398  0.82337567  0.10168931  1  0  0.086236  0  1.00671  0  0  0.094855  0  1.072654  0  0  0.096847  0  1.073062  0  0  0.09007  0.093542  0  1.072425  0
H  H16  1  0.28048821  0.01801056  0.91042921  1  0  0.113585  0  0.966965  0  0  0.121224  0  1.030643  0  0  0.12263  0  1.031537  0  0  0.105205  0.120454  0  1.02977  0
H  H17  1  0.71950775  0.98199020  0.08957387  1  0  0.113547  0  0.967028  0  0  0.121222  0  1.030658  0  0  0.12263  0  1.031553  0  0  0.105204  0.120456  0  1.029779  0
H  H18  1  0.64867992  0.19506430  0.38757608  1  0  0.102509  0  0.948357  0  0  0.119876  0  1.006007  0  0  0.120987  0  1.006313  0  0  0.100668  0.1188  0  1.006224  0
H  H19  1  0.35132045  0.80493649  0.61242190  1  0  0.102533  0  0.948354  0  0  0.119907  0  1.006001  0  0  0.121018  0  1.006305  0  0  0.100679  0.118831  0  1.006222  0
H  H20  1  0.62694188  0.23242312  0.55041191  1  0  0.084925  0  0.938556  0  0  0.097907  0  1.003611  0  0  0.099813  0  1.002848  0  0  0.092273  0.09667  0  1.003918  0
H  H21  1  0.37305741  0.76757768  0.44958592  1  0  0.084918  0  0.938543  0  0  0.097904  0  1.003602  0  0  0.099809  0  1.00284  0  0  0.092261  0.096668  0  1.003908  0
H  H22  1  0.90816474  0.32970038  0.63037330  1  0  0.059759  0  0.947639  0  0  0.071449  0  1.019858  0  0  0.072782  0  1.019318  0  0  0.08274  0.070194  0  1.020795  0
H  H23  1  0.09183326  0.67029723  0.36962690  1  0  0.059753  0  0.947649  0  0  0.071466  0  1.019854  0  0  0.072801  0  1.019316  0  0  0.082752  0.070208  0  1.020791  0
H  H24  1  0.94461791  0.33597988  0.47076686  1  0  0.060788  0  0.944516  0  0  0.074447  0  1.010613  0  0  0.075032  0  1.011955  0  0  0.082951  0.074078  0  1.009418  0
H  H25  1  0.05538227  0.66401775  0.52923269  1  0  0.060825  0  0.94453  0  0  0.074491  0  1.01061  0  0  0.075078  0  1.011954  0  0  0.082998  0.074123  0  1.009414  0
H  H26  1  0.83935070  0.07281694  0.41681318  1  0  0.08867  0  0.964738  0  0  0.108693  0  1.02808  0  0  0.109543  0  1.029306  0  0  0.079297  0.107985  0  1.027148  0
H  H27  1  0.16064799  0.92717963  0.58318606  1  0  0.088694  0  0.964718  0  0  0.108714  0  1.028065  0  0  0.109565  0  1.029291  0  0  0.079299  0.108005  0  1.027137  0
H  H28  1  0.78355683  0.05976115  0.57138634  1  0  0.086151  0  0.96111  0  0  0.108813  0  1.02036  0  0  0.109458  0  1.02129  0  0  0.079516  0.108334  0  1.019729  0
H  H29  1  0.21643968  0.94023541  0.42861355  1  0  0.086115  0  0.961186  0  0  0.10879  0  1.020415  0  0  0.109433  0  1.02135  0  0  0.079506  0.108311  0  1.019783  0
H  H30  1  0.98261186  0.12563308  0.56293096  1  0  0.093525  0  0.95874  0  0  0.115116  0  1.018978  0  0  0.116152  0  1.020053  0  0  0.083374  0.114543  0  1.01768  0
H  H31  1  0.01738533  0.87436243  0.43706797  1  0  0.09359  0  0.958674  0  0  0.115173  0  1.018906  0  0  0.116219  0  1.019969  0  0  0.083395  0.114599  0  1.017607  0
C  C32  1  0.66947930  0.57611595  0.34034831  1  0  0.006673  0  3.785199  0  0  -0.023983  0  4.052423  0  0  -0.021266  0  4.072084  0  0  -0.005553  -0.026192  0  4.039459  0
C  C33  1  0.33053206  0.42388804  0.65965155  1  0  0.006661  0  3.785116  0  0  -0.023968  0  4.052324  0  0  -0.021253  0  4.071981  0  0  -0.005516  -0.026177  0  4.039366  0
C  C34  1  0.69024947  0.62805889  0.47008666  1  0  -0.064396  0  3.686918  0  0  -0.108748  0  3.951668  0  0  -0.1069  0  3.969548  0  0  -0.006714  -0.109999  0  3.938829  0
C  C35  1  0.30975591  0.37194087  0.52991194  1  0  -0.064388  0  3.68679  0  0  -0.108785  0  3.951555  0  0  -0.106937  0  3.969438  0  0  -0.006765  -0.110035  0  3.938715  0
C  C36  1  0.72889417  0.53174237  0.67887616  1  0  0.087617  0  3.620072  0  0  0.009139  0  3.867677  0  0  0.01842  0  3.875993  0  0  0.065983  0.002993  0  3.861519  0
C  C37  1  0.27110795  0.46825738  0.32112293  1  0  0.087505  0  3.62025  0  0  0.008992  0  3.867871  0  0  0.018275  0  3.876184  0  0  0.065938  0.002839  0  3.861721  0
C  C38  1  0.91300337  0.78029800  0.77830305  1  0  0.100283  0  3.789852  0  0  0.084843  0  4.038287  0  0  0.089584  0  4.060459  0  0  0.1055  0.081502  0  4.024313  0
C  C39  1  0.08699434  0.21970171  0.22170018  1  0  0.100192  0  3.790077  0  0  0.084825  0  4.038443  0  0  0.08957  0  4.060605  0  0  0.105432  0.081473  0  4.024485  0
C  C40  1  0.82550272  0.86772627  0.77541782  1  0  -0.154278  0  3.751887  0  0  -0.172928  0  4.00915  0  0  -0.177958  0  4.030237  0  0  -0.094166  -0.16955  0  3.994808  0
C  C41  1  0.17449611  0.13227345  0.22458271  1  0  -0.154249  0  3.751799  0  0  -0.172932  0  4.00908  0  0  -0.177955  0  4.030159  0  0  -0.094154  -0.169559  0  3.994752  0
C  C42  1  0.90821975  0.01033650  0.81947044  1  0  -0.032866  0  3.74133  0  0  -0.04773  0  3.990371  0  0  -0.047613  0  4.012319  0  0  -0.078226  -0.047627  0  3.975852  0
C  C43  1  0.09177714  0.98966110  0.18053151  1  0  -0.032804  0  3.741229  0  0  -0.047678  0  3.990247  0  0  -0.047564  0  4.012194  0  0  -0.078207  -0.04759  0  3.975714  0
C  C44  1  0.07049029  0.06370814  0.86512109  1  0  -0.065578  0  3.749526  0  0  -0.081172  0  3.996957  0  0  -0.08484  0  4.019956  0  0  -0.089934  -0.078421  0  3.981107  0
C  C45  1  0.92950633  0.93629157  0.13488199  1  0  -0.065643  0  3.749383  0  0  -0.081197  0  3.996839  0  0  -0.084869  0  4.019849  0  0  -0.089987  -0.078448  0  3.980994  0
C  C46  1  0.15642840  0.97671683  0.87171602  1  0  -0.11404  0  3.713311  0  0  -0.131909  0  3.959821  0  0  -0.133214  0  3.98109  0  0  -0.080917  -0.130215  0  3.944326  0
C  C47  1  0.84356864  0.02328393  0.12828722  1  0  -0.114031  0  3.713223  0  0  -0.131935  0  3.959775  0  0  -0.133241  0  3.981046  0  0  -0.080915  -0.130243  0  3.944277  0
C  C48  1  0.07470569  0.83222671  0.82664682  1  0  0.117848  0  3.814678  0  0  0.115501  0  4.063272  0  0  0.115607  0  4.086859  0  0  0.097086  0.11498  0  4.047533  0
C  C49  1  0.92529353  0.16777407  0.17335578  1  0  0.118003  0  3.814634  0  0  0.115602  0  4.06329  0  0  0.115708  0  4.086877  0  0  0.097122  0.115083  0  4.047554  0
C  C50  1  0.69141404  0.40797902  0.44777782  1  0  0.334388  0  3.664728  0  0  0.301192  0  3.943214  0  0  0.31718  0  3.957755  0  0  0.219748  0.290762  0  3.93285  0
C  C51  1  0.30859067  0.59202179  0.55222078  1  0  0.334419  0  3.664569  0  0  0.301186  0  3.943124  0  0  0.317172  0  3.957664  0  0  0.219712  0.29076  0  3.932762  0
C  C52  1  0.70024898  0.27134304  0.47873533  1  0  -0.216525  0  3.713691  0  0  -0.254528  0  3.964808  0  0  -0.25777  0  3.975855  0  0  -0.158542  -0.25242  0  3.957276  0
C  C53  1  0.29974948  0.72865565  0.52126217  1  0  -0.216561  0  3.713631  0  0  -0.254566  0  3.964788  0  0  -0.257803  0  3.975835  0  0  -0.158522  -0.252462  0  3.957262  0
C  C54  1  0.86535014  0.27424738  0.52881503  1  0  -0.046686  0  3.673206  0  0  -0.07954  0  3.935684  0  0  -0.08013  0  3.95031  0  0  -0.169191  -0.079205  0  3.925638  0
C  C55  1  0.13464831  0.72575130  0.47118343  1  0  -0.04668  0  3.673163  0  0  -0.079567  0  3.935665  0  0  -0.080168  0  3.950309  0  0  -0.169224  -0.079233  0  3.925619  0
C  C56  1  0.86808573  0.12487642  0.51927313  1  0  -0.285148  0  3.721638  0  0  -0.354994  0  3.960109  0  0  -0.357407  0  3.971638  0  0  -0.250831  -0.352619  0  3.951646  0
C  C57  1  0.13191121  0.87512120  0.48072597  1  0  -0.285224  0  3.721604  0  0  -0.355068  0  3.960099  0  0  -0.357488  0  3.97163  0  0  -0.250864  -0.352694  0  3.951636  0
C  C58  1  0.68295024  0.60168006  0.98236641  1  0  0.289156  0  4.017625  0  0  0.269385  0  4.31859  0  0  0.291287  0  4.332575  0  0  0.143249  0.255062  0  4.308771  0
C  C59  1  0.31704150  0.39832072  0.01762843  1  0  0.289245  0  4.017303  0  0  0.269477  0  4.318281  0  0  0.291381  0  4.33227  0  0  0.14327  0.255155  0  4.308461  0
C  C60  1  0.54371118  0.03744150  0.84465765  1  0  0.312528  0  4.010251  0  0  0.293262  0  4.310344  0  0  0.315565  0  4.323063  0  0  0.151174  0.277537  0  4.302978  0
C  C61  1  0.45627886  0.96255505  0.15533941  1  0  0.312421  0  4.010113  0  0  0.293167  0  4.310223  0  0  0.315474  0  4.322946  0  0  0.151101  0.277442  0  4.302852  0
S  S62  1  0.82060421  0.54909132  0.04398713  1  0  -0.314714  0  2.177838  0  0  -0.289646  0  2.509773  0  0  -0.306228  0  2.504262  0  0  -0.137323  -0.280605  0  2.514069  0
S  S63  1  0.17939753  0.45091050  0.95601974  1  0  -0.314602  0  2.178177  0  0  -0.289531  0  2.51011  0  0  -0.306108  0  2.504601  0  0  -0.137265  -0.280493  0  2.514405  0
S  S64  1  0.61633010  0.20835545  0.85420723  1  0  -0.371155  0  2.131542  0  0  -0.341429  0  2.447222  0  0  -0.358149  0  2.440196  0  0  -0.157817  -0.330016  0  2.452947  0
S  S65  1  0.38366369  0.79165060  0.14579034  1  0  -0.371037  0  2.131752  0  0  -0.341316  0  2.447449  0  0  -0.358032  0  2.440409  0  0  -0.15774  -0.329911  0  2.453175  0
N  N66  1  0.66933018  0.43986669  0.32765694  1  0  -0.424277  0  3.196799  0  0  -0.359042  0  3.476791  0  0  -0.379943  0  3.494185  0  0  -0.353753  -0.345075  0  3.46529  0
N  N67  1  0.33067752  0.56013623  0.67234229  1  0  -0.42434  0  3.196879  0  0  -0.359083  0  3.476842  0  0  -0.379998  0  3.494271  0  0  -0.353758  -0.345097  0  3.465291  0
N  N68  1  0.70454689  0.52141446  0.53742872  1  0  -0.133941  0  3.524581  0  0  -0.04911  0  3.754582  0  0  -0.065248  0  3.77937  0  0  -0.244239  -0.038211  0  3.737549  0
N  N69  1  0.29545782  0.47858634  0.46256988  1  0  -0.133857  0  3.524394  0  0  -0.04899  0  3.754386  0  0  -0.06513  0  3.779175  0  0  -0.244192  -0.038093  0  3.737354  0
N  N70  1  0.87693113  0.63805908  0.74171807  1  0  -0.029364  0  3.541352  0  0  0.048046  0  3.779522  0  0  0.034654  0  3.803228  0  0  -0.131279  0.056973  0  3.763641  0
N  N71  1  0.12306944  0.36193959  0.25828356  1  0  -0.029393  0  3.541536  0  0  0.048  0  3.779685  0  0  0.034601  0  3.803396  0  0  -0.13124  0.056929  0  3.763807  0
N  N72  1  0.00454601  0.60338803  0.76493890  1  0  -0.041954  0  2.884378  0  0  -0.053222  0  3.177262  0  0  -0.044842  0  3.186031  0  0  -0.068633  -0.05795  0  3.170738  0
N  N73  1  0.99545650  0.39661276  0.23506130  1  0  -0.041774  0  2.884311  0  0  -0.05302  0  3.177177  0  0  -0.044637  0  3.185947  0  0  -0.068572  -0.057743  0  3.170649  0
N  N74  1  0.12263744  0.71834965  0.81626369  1  0  -0.251075  0  3.16315  0  0  -0.19947  0  3.455725  0  0  -0.211442  0  3.470252  0  0  -0.199342  -0.190994  0  3.445322  0
N  N75  1  0.87736290  0.28165113  0.18373715  1  0  -0.25126  0  3.16323  0  0  -0.199678  0  3.455872  0  0  -0.211653  0  3.470403  0  0  -0.199395  -0.191203  0  3.445469  0
N  N76  1  0.58750390  0.64419431  0.93560588  1  0  -0.540399  0  2.901941  0  0  -0.481777  0  3.182611  0  0  -0.503191  0  3.190036  0  0  -0.397924  -0.467125  0  3.176302  0
N  N77  1  0.41249821  0.35580014  0.06439842  1  0  -0.540627  0  2.901359  0  0  -0.482003  0  3.182022  0  0  -0.503446  0  3.189502  0  0  -0.397999  -0.467337  0  3.175686  0
N  N78  1  0.49257178  0.91313964  0.83749386  1  0  -0.538652  0  2.876724  0  0  -0.480556  0  3.15451  0  0  -0.500865  0  3.159465  0  0  -0.393247  -0.466307  0  3.150616  0
N  N79  1  0.50742519  0.08687170  0.16250277  1  0  -0.538675  0  2.876503  0  0  -0.480577  0  3.154257  0  0  -0.500892  0  3.159211  0  0  -0.393251  -0.466328  0  3.150365  0
