# generated using pymatgen
data_MnH18C19N3O5
_symmetry_space_group_name_H-M   'P 1'
_cell_length_a   8.70794615
_cell_length_b   11.61712244
_cell_length_c   17.79291988
_cell_angle_alpha   89.99969881
_cell_angle_beta   90.00037127
_cell_angle_gamma   100.31651753
_symmetry_Int_Tables_number   1
_chemical_formula_structural   MnH18C19N3O5
_chemical_formula_sum   'Mn4 H72 C76 N12 O20'
_cell_volume   1770.85543784
_cell_formula_units_Z   4
loop_
 _symmetry_equiv_pos_site_id
 _symmetry_equiv_pos_as_xyz
  1  'x, y, z'
loop_
 _atom_site_type_symbol
 _atom_site_label
 _atom_site_symmetry_multiplicity
 _atom_site_fract_x
 _atom_site_fract_y
 _atom_site_fract_z
 _atom_site_occupancy
 _atom_site_pbe_bader_charge
 _atom_site_pbe_bader_spin_density
 _atom_site_pbe_cm5_charge
 _atom_site_pbe_ddec_charge
 _atom_site_pbe_ddec_spin_density
 _atom_site_pbe_ddec_sum_bond_order
 _atom_site_pbe_magmom
Mn  Mn0  1  0.20911144  0.62149976  0.82824612  1  1.522005  4.512867  0.603782  0.933185  4.653512  2.390162  4.445
Mn  Mn1  1  0.70911107  0.62149731  0.67175658  1  1.522157  4.512863  0.603792  0.933254  4.653478  2.390019  4.445
Mn  Mn2  1  0.79088149  0.37850000  0.17175375  1  1.521949  4.512923  0.603804  0.933284  4.653533  2.38994  4.445
Mn  Mn3  1  0.29088963  0.37851122  0.32824442  1  1.522054  4.512913  0.603813  0.93327  4.653456  2.389976  4.445
H  H4  1  0.99860276  0.79656640  0.75881046  1  0.125668  0.001067  0.122196  0.095389  0.000271  1.018051  0.001
H  H5  1  0.49859821  0.79656240  0.74119255  1  0.125557  0.001067  0.122154  0.095335  0.000272  1.018052  0.001
H  H6  1  0.00139152  0.20343424  0.24119166  1  0.125741  0.001067  0.122186  0.095367  0.000271  1.017969  0.001
H  H7  1  0.50141338  0.20344357  0.25880339  1  0.125426  0.001067  0.122179  0.095414  0.000271  1.018137  0.001
H  H8  1  0.99617775  0.00784481  0.75255090  1  0.098045  0.00079  0.103087  0.104103  0.000415  1.04863  0.0
H  H9  1  0.49617847  0.00784341  0.74745089  1  0.098129  0.00079  0.103097  0.104087  0.000415  1.048667  0.0
H  H10  1  0.00382208  0.99215498  0.24744785  1  0.098069  0.00079  0.103105  0.104149  0.000415  1.048588  0.0
H  H11  1  0.50383232  0.99215905  0.25254899  1  0.098203  0.00079  0.103078  0.104058  0.000415  1.048627  0.0
H  H12  1  0.39278712  0.05856276  0.90422423  1  0.093705  0.000804  0.107484  0.112765  0.000425  1.031178  0.0
H  H13  1  0.89278025  0.05855641  0.59577424  1  0.093837  0.000804  0.107479  0.112782  0.000425  1.031138  0.0
H  H14  1  0.60721116  0.94143528  0.09577396  1  0.093681  0.000804  0.107489  0.112783  0.000425  1.031079  0.0
H  H15  1  0.10721605  0.94145298  0.40422001  1  0.093935  0.000803  0.107408  0.11269  0.000425  1.03121  0.0
H  H16  1  0.37400480  0.84572952  0.90548178  1  0.119118  0.001215  0.120491  0.08997  0.000562  1.013148  0.0
H  H17  1  0.87399717  0.84572493  0.59452068  1  0.11927  0.001215  0.120533  0.089987  0.000563  1.013144  0.0
H  H18  1  0.62598888  0.15426849  0.09451866  1  0.119031  0.001215  0.120476  0.089994  0.000562  1.013071  0.0
H  H19  1  0.12601178  0.15428452  0.40546964  1  0.119462  0.001215  0.120467  0.089867  0.000563  1.013284  0.0
H  H20  1  0.03221589  0.39827625  0.74768834  1  0.121363  0.001062  0.119322  0.08992  0.000245  1.010582  0.0
H  H21  1  0.53221396  0.39827240  0.75231007  1  0.121025  0.001063  0.119322  0.089924  0.000245  1.010594  0.0
H  H22  1  0.96778759  0.60172443  0.25231547  1  0.121152  0.001062  0.119333  0.089937  0.000245  1.010523  0.0
H  H23  1  0.46778878  0.60173002  0.24768699  1  0.120701  0.001063  0.119325  0.089969  0.000246  1.010534  0.0
H  H24  1  0.02816101  0.18465206  0.73863622  1  0.093343  0.000881  0.106494  0.115108  0.000483  1.02276  0.0
H  H25  1  0.52816033  0.18464815  0.76136235  1  0.093392  0.000881  0.106505  0.115084  0.000483  1.022817  0.0
H  H26  1  0.97184017  0.81534861  0.26136590  1  0.093274  0.000881  0.106512  0.115152  0.000483  1.022718  0.0
H  H27  1  0.47184010  0.81535426  0.23862853  1  0.093333  0.00088  0.106583  0.115277  0.000483  1.022635  0.0
H  H28  1  0.37111459  0.22704033  0.91875272  1  0.111054  0.000806  0.106778  0.119359  0.00046  1.033612  0.0
H  H29  1  0.87111566  0.22703936  0.58124735  1  0.111035  0.000806  0.106777  0.119363  0.00046  1.033604  0.0
H  H30  1  0.62889883  0.77295865  0.08124603  1  0.111114  0.000806  0.106741  0.119349  0.00046  1.033697  0.0
H  H31  1  0.12890504  0.77297626  0.41875083  1  0.11106  0.000806  0.106771  0.119352  0.000459  1.033579  0.0
H  H32  1  0.36619209  0.43549246  0.91627496  1  0.117789  0.001248  0.120926  0.092787  0.000605  1.010881  0.001
H  H33  1  0.86619434  0.43549148  0.58372494  1  0.117823  0.001247  0.120943  0.092812  0.000605  1.010858  0.001
H  H34  1  0.63381964  0.56450913  0.08372379  1  0.117696  0.001248  0.120954  0.092848  0.000605  1.010829  0.001
H  H35  1  0.13382271  0.56452325  0.41627774  1  0.117547  0.001247  0.121  0.092881  0.000605  1.010898  0.001
H  H36  1  0.30176768  0.62019761  0.12460516  1  0.02933  0.000974  0.089512  0.092285  0.00048  1.018835  0.0
H  H37  1  0.80176401  0.62019907  0.37539896  1  0.029406  0.000974  0.089485  0.092227  0.00048  1.018904  0.0
H  H38  1  0.69823663  0.37979171  0.87539303  1  0.029299  0.000975  0.089501  0.092287  0.00048  1.018822  0.0
H  H39  1  0.19823754  0.37978325  0.62460822  1  0.029216  0.000975  0.089546  0.092325  0.00048  1.018903  0.0
H  H40  1  0.10490306  0.60499003  0.09144280  1  0.048117  0.000374  0.098591  0.113952  -9e-05  0.996428  0.0
H  H41  1  0.60489836  0.60498514  0.40855906  1  0.048144  0.000374  0.098561  0.113862  -9e-05  0.99639  0.0
H  H42  1  0.89510226  0.39500367  0.90855707  1  0.048051  0.000375  0.098596  0.114018  -9e-05  0.996337  0.0
H  H43  1  0.39510285  0.39500067  0.59144475  1  0.048009  0.000374  0.098631  0.11408  -9e-05  0.996494  0.0
H  H44  1  0.09954763  0.40651318  0.05168069  1  0.098513  0.000689  0.101891  0.125204  2.9e-05  1.008609  0.0
H  H45  1  0.59955145  0.40650808  0.44831678  1  0.098514  0.000689  0.101913  0.125205  2.9e-05  1.008613  0.0
H  H46  1  0.90044274  0.59348045  0.94832199  1  0.098566  0.000689  0.101904  0.125234  2.9e-05  1.008627  0.0
H  H47  1  0.40044936  0.59347599  0.55168759  1  0.098704  0.000689  0.101878  0.125175  2.9e-05  1.008623  0.0
H  H48  1  0.30602752  0.41661883  0.06693257  1  0.077916  0.000784  0.097586  0.115352  0.00024  1.000766  0.0
H  H49  1  0.80603061  0.41661645  0.43306608  1  0.077873  0.000784  0.097574  0.115368  0.00024  1.000758  0.0
H  H50  1  0.69396029  0.58336866  0.93306842  1  0.078177  0.000784  0.097549  0.115355  0.00024  1.00067  0.0
H  H51  1  0.19396634  0.58336585  0.56693829  1  0.078322  0.000783  0.097573  0.115447  0.00024  1.000666  0.0
H  H52  1  0.54429476  0.63798271  0.82977139  1  0.659395  0.002672  0.2917  0.384818  0.001101  0.959944  0.003
H  H53  1  0.04429999  0.63798533  0.67023186  1  0.659624  0.002671  0.291687  0.384852  0.0011  0.959904  0.003
H  H54  1  0.45569262  0.36201789  0.17022680  1  0.659273  0.002673  0.291701  0.384828  0.001101  0.95992  0.003
H  H55  1  0.95569755  0.36201445  0.32977420  1  0.659363  0.002672  0.291715  0.384825  0.0011  0.959931  0.003
H  H56  1  0.46064649  0.66166659  0.91087876  1  0.622241  0.001161  0.280416  0.362144  0.001063  1.001459  0.002
H  H57  1  0.96064380  0.66166380  0.58912573  1  0.622327  0.00116  0.280359  0.362086  0.001063  1.001563  0.002
H  H58  1  0.53934719  0.33833142  0.08912111  1  0.622203  0.001161  0.280406  0.362171  0.001063  1.00142  0.002
H  H59  1  0.03935948  0.33833601  0.41087977  1  0.622259  0.00116  0.280397  0.362151  0.001063  1.00146  0.002
H  H60  1  0.34955902  0.17045133  0.12780053  1  0.100067  0.000803  0.109416  0.080263  8.3e-05  1.039889  0.0
H  H61  1  0.84956614  0.17044499  0.37219741  1  0.100167  0.000803  0.109443  0.080267  8.3e-05  1.039881  0.0
H  H62  1  0.65041451  0.82954396  0.87221058  1  0.10011  0.000803  0.109442  0.080305  8.3e-05  1.039808  0.0
H  H63  1  0.15041203  0.82957042  0.62778953  1  0.100391  0.000803  0.109461  0.080288  8.3e-05  1.039897  0.0
H  H64  1  0.12426228  0.18528358  0.04697306  1  0.049828  9.5e-05  0.106674  0.113642  -5e-06  1.017653  0.0
H  H65  1  0.62427946  0.18528638  0.45302693  1  0.049443  9.5e-05  0.106635  0.113558  -5e-06  1.01782  0.0
H  H66  1  0.87570395  0.81470993  0.95304199  1  0.049547  9.5e-05  0.106607  0.113517  -5e-06  1.017854  0.0
H  H67  1  0.37569568  0.81471591  0.54696170  1  0.049522  9.5e-05  0.106611  0.113526  -5e-06  1.017895  0.0
H  H68  1  0.06055378  0.80912152  0.01745958  1  0.068095  0.00011  0.106401  0.112806  -0.000114  1.022695  0.0
H  H69  1  0.56054472  0.80912836  0.48253862  1  0.068062  0.00011  0.106388  0.112797  -0.000114  1.022961  0.0
H  H70  1  0.93945599  0.19087658  0.98253017  1  0.067796  0.00011  0.106433  0.112826  -0.000114  1.022757  0.0
H  H71  1  0.43947282  0.19087851  0.51746294  1  0.068196  0.00011  0.106395  0.112793  -0.000114  1.022805  0.0
H  H72  1  0.28867672  0.81200109  0.09909129  1  0.067549  6e-05  0.106773  0.072301  1.5e-05  1.028851  0.0
H  H73  1  0.78865922  0.81199095  0.40090595  1  0.0678  6e-05  0.106749  0.072255  1.5e-05  1.028916  0.0
H  H74  1  0.71132541  0.18799871  0.90089959  1  0.067561  6e-05  0.106791  0.072253  1.5e-05  1.02887  0.0
H  H75  1  0.21135444  0.18802901  0.59909336  1  0.067481  6e-05  0.106761  0.072261  1.5e-05  1.028809  0.0
C  C76  1  0.08321323  0.85814271  0.79071317  1  0.468194  0.009283  0.049903  0.095014  0.006865  3.922461  0.006
C  C77  1  0.58321025  0.85814176  0.70928888  1  0.468184  0.009282  0.049869  0.094996  0.006864  3.92246  0.006
C  C78  1  0.91677835  0.14185616  0.20928501  1  0.468284  0.009282  0.049921  0.09505  0.006864  3.922417  0.006
C  C79  1  0.41680404  0.14186597  0.29070987  1  0.468072  0.00928  0.049762  0.09479  0.006861  3.922489  0.006
C  C80  1  0.08356590  0.97763883  0.78731836  1  -0.067863  0.003215  -0.078722  -0.156172  0.001832  3.946889  0.001
C  C81  1  0.58356276  0.97763698  0.71268216  1  -0.068194  0.003213  -0.078714  -0.156157  0.001831  3.946956  0.001
C  C82  1  0.91642853  0.02235744  0.21268039  1  -0.067892  0.003215  -0.078727  -0.156217  0.001832  3.946899  0.001
C  C83  1  0.41644498  0.02236722  0.28731715  1  -0.068328  0.003214  -0.078675  -0.156084  0.001831  3.94672  0.001
C  C84  1  0.19426195  0.05549361  0.82865510  1  0.026447  0.011154  0.005078  0.086444  0.008649  3.974978  0.006
C  C85  1  0.69425697  0.05549115  0.67134276  1  0.026744  0.011151  0.005065  0.086476  0.008647  3.975057  0.006
C  C86  1  0.80573524  0.94450966  0.17134477  1  0.026381  0.011147  0.005063  0.086434  0.008644  3.975137  0.006
C  C87  1  0.30574427  0.94451477  0.32865543  1  0.027235  0.011147  0.005167  0.086526  0.008644  3.974958  0.006
C  C88  1  0.30114149  0.00573311  0.87136560  1  -0.01543  0.002713  -0.083025  -0.175822  0.001389  3.968279  0.001
C  C89  1  0.80113101  0.00572915  0.62863333  1  -0.015501  0.002714  -0.083079  -0.175886  0.00139  3.968293  0.001
C  C90  1  0.69885814  0.99426580  0.12863427  1  -0.015497  0.002712  -0.083062  -0.175855  0.001388  3.968451  0.001
C  C91  1  0.19887259  0.99428202  0.37136317  1  -0.016042  0.002713  -0.083078  -0.175897  0.001389  3.968363  0.001
C  C92  1  0.29228770  0.88530164  0.87221048  1  0.464448  0.008755  0.05128  0.099516  0.006839  3.947999  0.005
C  C93  1  0.79227911  0.88529595  0.62779158  1  0.464256  0.008756  0.051378  0.099635  0.006838  3.948122  0.005
C  C94  1  0.70770862  0.11469289  0.12778827  1  0.4645  0.008751  0.051302  0.0995  0.006835  3.948022  0.005
C  C95  1  0.20772944  0.11471175  0.37220436  1  0.464142  0.008752  0.051418  0.099826  0.006835  3.948282  0.005
C  C96  1  0.10698379  0.35579599  0.78357865  1  0.494274  0.008238  0.049128  0.089491  0.006037  3.962179  0.005
C  C97  1  0.60698509  0.35579326  0.71642071  1  0.494137  0.008238  0.049067  0.089433  0.006037  3.962215  0.005
C  C98  1  0.89301969  0.64420469  0.21642628  1  0.494348  0.008239  0.049124  0.089559  0.006037  3.962034  0.005
C  C99  1  0.39301710  0.64421178  0.28357748  1  0.495083  0.008236  0.049051  0.089341  0.006036  3.962251  0.005
C  C100  1  0.10456084  0.23603700  0.77949858  1  -0.090634  0.002158  -0.083677  -0.174031  0.000861  3.935428  0.001
C  C101  1  0.60456043  0.23603162  0.72050006  1  -0.090123  0.002157  -0.083658  -0.173927  0.00086  3.935466  0.001
C  C102  1  0.89544015  0.76396280  0.22050523  1  -0.090693  0.002155  -0.083675  -0.174075  0.000858  3.935212  0.001
C  C103  1  0.39544406  0.76397344  0.27949307  1  -0.090373  0.002156  -0.083726  -0.174154  0.000859  3.935289  0.001
C  C104  1  0.19810513  0.18318964  0.82849752  1  -0.006107  0.011576  0.010363  0.103669  0.009006  3.968856  0.007
C  C105  1  0.69810225  0.18318631  0.67150159  1  -0.006143  0.011574  0.010345  0.103609  0.009004  3.968911  0.007
C  C106  1  0.80189606  0.81681103  0.17150516  1  -0.005868  0.011576  0.010368  0.103645  0.009006  3.968507  0.007
C  C107  1  0.30189974  0.81681786  0.32849434  1  -0.00621  0.011573  0.01046  0.103854  0.009003  3.968797  0.007
C  C108  1  0.29426313  0.25816500  0.87821282  1  -0.006863  0.003862  -0.083008  -0.179035  0.002552  3.928481  0.002
C  C109  1  0.79426197  0.25816201  0.62178746  1  -0.006708  0.003861  -0.082979  -0.179037  0.002551  3.928443  0.002
C  C110  1  0.70574495  0.74183570  0.12178817  1  -0.007098  0.00386  -0.082923  -0.178976  0.00255  3.928564  0.002
C  C111  1  0.20575198  0.74184922  0.37821016  1  -0.006711  0.003859  -0.08302  -0.179148  0.002549  3.928591  0.002
C  C112  1  0.29137291  0.37739760  0.87784786  1  0.446123  0.00886  0.053329  0.101082  0.006601  3.935565  0.005
C  C113  1  0.79137385  0.37739374  0.62215144  1  0.445906  0.008859  0.053302  0.101096  0.006601  3.935355  0.005
C  C114  1  0.70863612  0.62260224  0.12215201  1  0.446383  0.008862  0.053215  0.100978  0.006603  3.9356  0.005
C  C115  1  0.20864125  0.62261749  0.37784787  1  0.447144  0.008861  0.053215  0.100988  0.006603  3.935511  0.005
C  C116  1  0.28091334  0.62113122  0.00437752  1  1.538085  0.007611  0.20766  0.624537  0.007183  4.163221  0.007
C  C117  1  0.78091006  0.62112753  0.49562540  1  1.538095  0.007611  0.207676  0.624523  0.007184  4.163516  0.007
C  C118  1  0.71908103  0.37885980  0.99562347  1  1.538131  0.007611  0.207758  0.624796  0.007182  4.162842  0.007
C  C119  1  0.21908661  0.37886351  0.50437672  1  1.538081  0.007609  0.20768  0.624663  0.007182  4.163086  0.007
C  C120  1  0.21882401  0.57981672  0.08149862  1  -0.01287  0.003437  -0.165276  -0.272175  0.00252  3.918864  0.002
C  C121  1  0.71882537  0.57981267  0.41850368  1  -0.012943  0.003438  -0.165217  -0.271955  0.00252  3.918814  0.002
C  C122  1  0.78117726  0.42017434  0.91850406  1  -0.012777  0.003438  -0.16531  -0.272382  0.00252  3.918692  0.002
C  C123  1  0.28117943  0.42016879  0.58149900  1  -0.012806  0.003438  -0.165356  -0.272419  0.00252  3.919166  0.002
C  C124  1  0.19953963  0.44532489  0.08666211  1  -0.102616  0.003072  -0.165591  -0.293747  0.00197  3.89983  0.002
C  C125  1  0.69954019  0.44532263  0.41333666  1  -0.102716  0.003073  -0.165607  -0.293777  0.001971  3.899978  0.002
C  C126  1  0.80045804  0.55467052  0.91333945  1  -0.102945  0.003073  -0.165549  -0.293713  0.001971  3.899625  0.002
C  C127  1  0.30045682  0.55466492  0.58666715  1  -0.103195  0.003073  -0.165599  -0.293786  0.001971  3.899745  0.002
C  C128  1  0.16732111  0.41007769  0.16790455  1  1.57099  0.021163  0.228102  0.647352  0.02078  4.104883  0.019
C  C129  1  0.66732247  0.41007858  0.33209312  1  1.571169  0.021167  0.22809  0.647145  0.020785  4.105047  0.019
C  C130  1  0.83267852  0.58992122  0.83209701  1  1.571072  0.021171  0.228139  0.647315  0.020788  4.104801  0.019
C  C131  1  0.33268095  0.58991686  0.66791125  1  1.571289  0.021169  0.22819  0.647338  0.020787  4.104691  0.019
C  C132  1  0.28224416  0.09177990  0.10226625  1  0.504457  0.000792  0.037429  0.090097  0.00056  3.978351  0.0
C  C133  1  0.78225118  0.09177165  0.39773175  1  0.504455  0.000791  0.037396  0.090133  0.00056  3.978198  0.0
C  C134  1  0.71773917  0.90821806  0.89773981  1  0.503791  0.000792  0.03741  0.090095  0.00056  3.978292  0.0
C  C135  1  0.21773938  0.90823771  0.60226081  1  0.503529  0.000791  0.037402  0.090172  0.00056  3.977979  0.0
C  C136  1  0.15493891  0.09965814  0.05646298  1  0.002315  0.000501  -0.085526  -0.172005  0.000319  3.938877  0.0
C  C137  1  0.65494612  0.09965309  0.44354246  1  0.003071  0.000501  -0.085373  -0.171835  0.00032  3.938733  0.0
C  C138  1  0.84504172  0.90033806  0.94354532  1  0.002866  0.000501  -0.085426  -0.17174  0.00032  3.938873  0.0
C  C139  1  0.34504112  0.90035189  0.55645236  1  0.003243  0.000501  -0.0854  -0.171824  0.00032  3.939124  0.0
C  C140  1  0.06827947  0.99799021  0.02438169  1  -0.09324  0.000534  0.00569  0.09336  0.000394  3.985263  0.0
C  C141  1  0.56828806  0.99798933  0.47561870  1  -0.051263  0.00053  0.005583  0.09337  0.000394  3.985075  0.0
C  C142  1  0.93170616  0.00200776  0.97561931  1  -0.051673  0.00053  0.005604  0.093155  0.000394  3.985397  0.0
C  C143  1  0.43171603  0.00201398  0.52437836  1  -0.093538  0.000534  0.005572  0.093118  0.000394  3.985445  0.0
C  C144  1  0.11833099  0.89232991  0.04075869  1  0.001501  0.000392  -0.086825  -0.174559  0.000223  3.951662  0.0
C  C145  1  0.61832567  0.89231944  0.45924504  1  0.001307  0.000392  -0.086748  -0.174538  0.000222  3.952003  0.0
C  C146  1  0.88166729  0.10766813  0.95923669  1  0.002496  0.000392  -0.086866  -0.174633  0.000223  3.951816  0.0
C  C147  1  0.38168295  0.10767864  0.54075540  1  0.001121  0.000392  -0.08676  -0.174504  0.000222  3.951825  0.0
C  C148  1  0.24778862  0.89347339  0.08674853  1  0.495806  0.000305  0.035477  0.082122  0.000206  4.004858  0.0
C  C149  1  0.74777336  0.89346230  0.41325447  1  0.495631  0.000305  0.035338  0.082078  0.000206  4.004786  0.0
C  C150  1  0.75220912  0.10652727  0.91324684  1  0.495224  0.000306  0.03547  0.082232  0.000206  4.004806  0.0
C  C151  1  0.25223139  0.10654888  0.58674427  1  0.496151  0.000305  0.035258  0.082062  0.000206  4.004879  0.0
N  N152  1  0.18489908  0.81127168  0.83302575  1  -1.261965  0.05341  -0.317533  -0.24903  0.034766  3.476306  0.02
N  N153  1  0.68489710  0.81126751  0.66697735  1  -1.261944  0.053408  -0.317525  -0.249074  0.034767  3.476503  0.02
N  N154  1  0.81509365  0.18872720  0.16697412  1  -1.261968  0.053406  -0.317522  -0.249009  0.034765  3.476342  0.02
N  N155  1  0.31511544  0.18873759  0.33302084  1  -1.261892  0.053396  -0.317514  -0.249102  0.034769  3.476607  0.02
N  N156  1  0.19785144  0.42646449  0.83223005  1  -1.259071  0.051934  -0.316002  -0.247516  0.034407  3.497546  0.019
N  N157  1  0.69785237  0.42646295  0.66777048  1  -1.258988  0.051935  -0.315977  -0.247557  0.034404  3.497368  0.019
N  N158  1  0.80215394  0.57353446  0.16777264  1  -1.258987  0.05193  -0.315961  -0.24756  0.034407  3.497489  0.019
N  N159  1  0.30215752  0.57354563  0.33222996  1  -1.260191  0.051948  -0.315976  -0.24749  0.034405  3.497499  0.019
N  N160  1  0.32990705  0.99063741  0.11768327  1  -1.212172  0.00082  -0.321939  -0.269996  0.00048  3.357038  0.0
N  N161  1  0.82991624  0.99063451  0.38231629  1  -1.212346  0.00082  -0.321854  -0.270016  0.00048  3.356635  0.0
N  N162  1  0.67007879  0.00936144  0.88232054  1  -1.211392  0.00082  -0.321921  -0.270043  0.000481  3.357157  0.0
N  N163  1  0.17008742  0.00938190  0.61767965  1  -1.211929  0.00082  -0.32175  -0.269933  0.00048  3.356635  0.0
O  O164  1  0.18134861  0.61761075  0.95138214  1  -1.202389  0.057237  -0.320004  -0.574174  0.041729  2.264515  0.029
O  O165  1  0.68134300  0.61761258  0.54862048  1  -1.202514  0.057251  -0.320048  -0.574234  0.041729  2.264494  0.029
O  O166  1  0.81865171  0.38238118  0.04861773  1  -1.202396  0.057243  -0.320052  -0.574316  0.041733  2.264456  0.029
O  O167  1  0.31865859  0.38238984  0.45138276  1  -1.202411  0.057235  -0.320001  -0.574241  0.041727  2.264402  0.029
O  O168  1  0.42815592  0.65291784  0.99735300  1  -1.185416  0.006069  -0.331938  -0.577162  0.003663  2.154085  0.004
O  O169  1  0.92815250  0.65290687  0.50265141  1  -1.185411  0.006069  -0.331901  -0.577146  0.003663  2.154425  0.004
O  O170  1  0.57183839  0.34706794  0.00264069  1  -1.185505  0.006069  -0.331983  -0.577274  0.003663  2.153962  0.004
O  O171  1  0.07184169  0.34706842  0.49735802  1  -1.185422  0.006068  -0.331959  -0.577223  0.003663  2.154045  0.004
O  O172  1  0.27836684  0.37927495  0.20634422  1  -1.214045  0.065206  -0.306667  -0.568688  0.045904  2.331359  0.03
O  O173  1  0.77835257  0.37925504  0.29365559  1  -1.214056  0.065204  -0.306722  -0.568699  0.045906  2.331441  0.03
O  O174  1  0.72163670  0.62073098  0.79365621  1  -1.214007  0.065212  -0.306687  -0.568679  0.045908  2.331269  0.03
O  O175  1  0.22163769  0.62072810  0.70634709  1  -1.214047  0.065206  -0.306684  -0.568708  0.045909  2.331421  0.03
O  O176  1  0.03679105  0.41781374  0.19649379  1  -1.219697  0.063079  -0.304197  -0.554853  0.04496  2.34576  0.029
O  O177  1  0.53679861  0.41783320  0.30350400  1  -1.219757  0.063083  -0.30415  -0.554647  0.044953  2.345793  0.029
O  O178  1  0.96321318  0.58218520  0.80351283  1  -1.219752  0.063089  -0.304223  -0.554783  0.044961  2.345776  0.029
O  O179  1  0.46320772  0.58216487  0.69649868  1  -1.219924  0.063088  -0.304213  -0.554759  0.044956  2.345748  0.029
O  O180  1  0.45325850  0.66477337  0.85360877  1  -1.306466  0.066141  -0.583025  -0.799086  0.049545  2.233494  0.031
O  O181  1  0.95326073  0.66477373  0.64639512  1  -1.306771  0.066141  -0.582973  -0.799093  0.049546  2.233413  0.031
O  O182  1  0.54673429  0.33523075  0.14638998  1  -1.306258  0.06613  -0.583005  -0.799102  0.049544  2.233295  0.031
O  O183  1  0.04674307  0.33523832  0.35361037  1  -1.306412  0.066138  -0.583051  -0.799126  0.049546  2.233388  0.031
