# generated using pymatgen
data_CuH6C9(NO)4
_symmetry_space_group_name_H-M   'P 1'
_cell_length_a   9.33332186
_cell_length_b   9.06689222
_cell_length_c   13.65910367
_cell_angle_alpha   90.00013014
_cell_angle_beta   89.99930746
_cell_angle_gamma   90.35292328
_symmetry_Int_Tables_number   1
_chemical_formula_structural   CuH6C9(NO)4
_chemical_formula_sum   'Cu4 H24 C36 N16 O16'
_cell_volume   1155.86911158
_cell_formula_units_Z   4
loop_
 _symmetry_equiv_pos_site_id
 _symmetry_equiv_pos_as_xyz
  1  'x, y, z'
loop_
 _atom_site_type_symbol
 _atom_site_label
 _atom_site_symmetry_multiplicity
 _atom_site_fract_x
 _atom_site_fract_y
 _atom_site_fract_z
 _atom_site_occupancy
 _atom_site_hle17_ddec_charge
 _atom_site_hle17_ddec_spin_density
 _atom_site_hle17_ddec_sum_bond_order
 _atom_site_hle17_magmom
 _atom_site_hse06_10hf_ddec_charge
 _atom_site_hse06_10hf_ddec_spin_density
 _atom_site_hse06_10hf_ddec_sum_bond_order
 _atom_site_hse06_10hf_magmom
 _atom_site_hse06_ddec_charge
 _atom_site_hse06_ddec_spin_density
 _atom_site_hse06_ddec_sum_bond_order
 _atom_site_hse06_magmom
 _atom_site_pbe_cm5_charge
 _atom_site_pbe_ddec_charge
 _atom_site_pbe_ddec_spin_density
 _atom_site_pbe_ddec_sum_bond_order
 _atom_site_pbe_magmom
Cu  Cu0  1  0.57192792  0.63181909  0.58271563  1  0.844464  -0.712258  1.823251  -0.5  0.815138  -0.798594  2.226602  -0.614  0.90823  -0.877618  2.154014  -0.702  0.73942  0.756356  -0.730914  2.278512  -0.55
Cu  Cu1  1  0.92807934  0.36818116  0.08270929  1  0.844474  0.712253  1.823445  0.5  0.815164  0.79859  2.226663  0.614  0.908148  0.877582  2.154162  0.702  0.739421  0.75645  0.730901  2.278535  0.55
Cu  Cu2  1  0.42806764  0.36818563  0.41728511  1  0.8444  0.712221  1.823437  0.5  0.815201  0.798568  2.226547  0.614  0.908175  0.877587  2.154091  0.702  0.739452  0.756397  0.730878  2.278516  0.55
Cu  Cu3  1  0.07192671  0.63181767  0.91729511  1  0.8445  -0.712253  1.823316  -0.5  0.815087  -0.798592  2.226635  -0.615  0.908128  -0.87759  2.154075  -0.702  0.739399  0.756446  -0.730902  2.278422  -0.55
H  H4  1  0.97624632  0.25133089  0.60075506  1  0.106837  -0.00063  0.936998  -0.001  0.113833  -0.00051  0.994393  -0.001  0.117607  -0.000334  0.991092  0.0  0.122586  0.110714  -0.000671  0.997366  -0.001
H  H5  1  0.52374291  0.74865866  0.10075715  1  0.10671  0.000632  0.936972  0.001  0.113711  0.00051  0.994365  0.001  0.117487  0.000334  0.991061  0.0  0.122488  0.110592  0.000671  0.997342  0.001
H  H6  1  0.02374837  0.74865178  0.39924055  1  0.106792  0.000628  0.937108  0.001  0.113864  0.00051  0.994426  0.001  0.117636  0.000334  0.991129  0.0  0.122606  0.110744  0.000671  0.9974  0.001
H  H7  1  0.47626293  0.25136226  0.89924359  1  0.106631  -0.00063  0.937138  -0.001  0.113689  -0.00051  0.99447  -0.001  0.117457  -0.000334  0.991181  0.0  0.122577  0.110581  -0.000671  0.997426  -0.001
H  H8  1  0.81747628  0.42729255  0.50971149  1  0.123317  -0.000885  0.972633  -0.002  0.128146  -0.000702  1.034531  -0.001  0.13155  -0.000551  1.031893  -0.001  0.127969  0.125422  -0.000755  1.036774  -0.001
H  H9  1  0.68251533  0.57269946  0.00971044  1  0.123325  0.000887  0.972717  0.002  0.128133  0.000702  1.03465  0.001  0.131543  0.000551  1.032001  0.001  0.127948  0.125415  0.000755  1.036895  0.001
H  H10  1  0.18251422  0.57269247  0.49028119  1  0.123181  0.000886  0.973048  0.002  0.128038  0.000702  1.034925  0.001  0.131423  0.000551  1.032283  0.001  0.12792  0.125332  0.000755  1.037144  0.001
H  H11  1  0.31750271  0.42733206  0.99029250  1  0.123075  -0.000885  0.973103  -0.002  0.127977  -0.000702  1.034914  -0.001  0.131348  -0.000551  1.032286  -0.001  0.127915  0.125296  -0.000755  1.037134  -0.001
H  H12  1  0.36063907  0.85417172  0.68249532  1  0.104353  2.1e-05  0.925232  0.0  0.11731  9e-06  0.978376  0.0  0.120489  1e-05  0.97418  0.0  0.140817  0.114767  -2e-06  0.981593  0.0
H  H13  1  0.13935508  0.14584084  0.18249112  1  0.104371  -2e-05  0.92526  0.0  0.117327  -9e-06  0.978393  0.0  0.120499  -1e-05  0.974205  0.0  0.140841  0.114785  2e-06  0.981605  0.0
H  H14  1  0.63935229  0.14583535  0.31752299  1  0.104416  -2.1e-05  0.925341  0.0  0.117348  -9e-06  0.978495  0.0  0.12053  -1e-05  0.974292  0.0  0.140832  0.114807  2e-06  0.981715  0.0
H  H15  1  0.86065577  0.85414347  0.81750742  1  0.104423  2.2e-05  0.92513  0.0  0.117349  9e-06  0.978303  0.0  0.120544  1e-05  0.974085  0.0  0.140811  0.114807  -2e-06  0.981513  0.0
H  H16  1  0.23518631  0.05973433  0.58114403  1  0.317406  -0.000441  0.898342  -0.001  0.305113  -0.000337  0.946991  -0.001  0.312945  -0.000262  0.940845  0.0  0.323352  0.29934  -0.000388  0.951639  -0.001
H  H17  1  0.26480499  0.94027773  0.08114464  1  0.317416  0.000441  0.898406  0.001  0.30513  0.000338  0.947077  0.001  0.312959  0.000262  0.940931  0.0  0.323376  0.299371  0.000388  0.951693  0.001
H  H18  1  0.76479216  0.94027208  0.41886623  1  0.317308  0.000441  0.89863  0.001  0.305063  0.000337  0.947237  0.001  0.312879  0.000262  0.941095  0.0  0.323408  0.299308  0.000387  0.951861  0.001
H  H19  1  0.73520101  0.05971999  0.91884366  1  0.317365  -0.000441  0.898427  -0.001  0.305127  -0.000338  0.947039  -0.001  0.312953  -0.000262  0.940892  0.0  0.323406  0.299386  -0.000388  0.951624  -0.001
H  H20  1  0.27416846  0.02730781  0.40063999  1  0.112288  -0.000684  0.933338  -0.001  0.124581  -0.000634  0.987712  0.0  0.127324  -0.0005  0.985798  0.0  0.129382  0.122167  -0.00071  0.98978  -0.001
H  H21  1  0.22584105  0.97268861  0.90064009  1  0.112333  0.000683  0.933372  0.001  0.124645  0.000634  0.987711  0.0  0.127389  0.0005  0.985796  0.0  0.129409  0.122227  0.00071  0.989782  0.001
H  H22  1  0.72581284  0.97268857  0.59936661  1  0.112327  0.000683  0.933668  0.001  0.124664  0.000634  0.987951  0.0  0.127407  0.0005  0.986039  0.0  0.12939  0.122246  0.000709  0.990024  0.001
H  H23  1  0.77417622  0.02732308  0.09934747  1  0.112391  -0.000685  0.933326  -0.001  0.124636  -0.000634  0.987753  0.0  0.12738  -0.0005  0.985838  0.0  0.129418  0.122221  -0.00071  0.989823  -0.001
H  H24  1  0.46122213  0.79150513  0.38372263  1  0.104465  2e-06  0.98121  0.0  0.106  -0.000161  1.05465  -0.001  0.108562  -0.000116  1.05341  0.0  0.111911  0.104047  -0.000197  1.0555  -0.001
H  H25  1  0.03880092  0.20849770  0.88372214  1  0.104546  -1e-06  0.981228  0.0  0.106058  0.000161  1.054694  0.001  0.108621  0.000115  1.053453  0.0  0.111956  0.104108  0.000197  1.055548  0.001
H  H26  1  0.53878260  0.20848712  0.61627592  1  0.104553  0.0  0.981381  0.0  0.106057  0.000161  1.05486  0.001  0.108621  0.000115  1.053613  0.0  0.111911  0.104096  0.000197  1.055716  0.001
H  H27  1  0.96121314  0.79151409  0.11628006  1  0.104549  -1e-06  0.981162  0.0  0.10605  -0.00016  1.054652  -0.001  0.108617  -0.000115  1.053412  0.0  0.111939  0.104096  -0.000197  1.055488  -0.001
C  C28  1  0.71218908  0.49067922  0.73688434  1  0.037716  0.007244  3.696894  0.008  0.036259  0.001722  3.937892  0.003  0.036571  0.002254  3.958449  0.003  0.112894  0.035046  0.001441  3.92622  0.002
C  C29  1  0.78780357  0.50932018  0.23688366  1  0.037865  -0.007255  3.69711  -0.008  0.036361  -0.00172  3.938055  -0.003  0.036664  -0.002253  3.958614  -0.003  0.112933  0.035158  -0.00144  3.926375  -0.002
C  C30  1  0.28781072  0.50932424  0.26312299  1  0.037843  -0.007285  3.697256  -0.008  0.036337  -0.00172  3.938196  -0.003  0.036645  -0.002255  3.958752  -0.003  0.112894  0.035124  -0.00144  3.926516  -0.002
C  C31  1  0.21219627  0.49068438  0.76310830  1  0.03775  0.007244  3.696736  0.008  0.036314  0.001723  3.937764  0.003  0.036616  0.002251  3.958334  0.003  0.11286  0.035108  0.001441  3.926091  0.002
C  C32  1  0.79762256  0.38840925  0.78573532  1  0.08173  0.001019  3.684243  0.002  0.083476  0.002226  3.929604  0.003  0.082625  0.000559  3.944485  0.001  0.131055  0.083211  0.003621  3.920979  0.005
C  C33  1  0.70240228  0.61159488  0.28573235  1  0.081459  -0.001002  3.684575  -0.002  0.083385  -0.002228  3.929731  -0.003  0.082531  -0.00056  3.944616  -0.001  0.131025  0.083135  -0.003622  3.921091  -0.005
C  C34  1  0.20238272  0.61159733  0.21426908  1  0.081652  -0.000977  3.683914  -0.002  0.083543  -0.002228  3.929176  -0.003  0.082689  -0.00056  3.944061  -0.001  0.131087  0.08328  -0.003623  3.920547  -0.005
C  C35  1  0.29760235  0.38839517  0.71426034  1  0.081752  0.001018  3.68443  0.002  0.0834  0.002226  3.929964  0.003  0.082541  0.000563  3.944859  0.001  0.131035  0.083149  0.003622  3.921322  0.005
C  C36  1  0.89762937  0.31715966  0.64004071  1  0.105094  -0.008462  3.656229  -0.009  0.077855  -0.003863  3.922076  -0.004  0.080706  -0.003714  3.93397  -0.004  0.065894  0.075812  -0.003843  3.914885  -0.004
C  C37  1  0.60235766  0.68282603  0.14004986  1  0.105268  0.008474  3.656605  0.009  0.078083  0.00386  3.922357  0.004  0.080935  0.003713  3.934255  0.004  0.066058  0.076035  0.003842  3.915168  0.004
C  C38  1  0.10236341  0.68282860  0.35996003  1  0.105155  0.008506  3.656319  0.009  0.077836  0.00386  3.922196  0.004  0.080687  0.003713  3.934081  0.004  0.065815  0.075788  0.003841  3.915013  0.004
C  C39  1  0.39764530  0.31717622  0.85995088  1  0.105369  -0.008462  3.656354  -0.009  0.078144  -0.003864  3.922101  -0.004  0.080996  -0.00371  3.933984  -0.004  0.066018  0.076096  -0.003843  3.914928  -0.004
C  C40  1  0.81129150  0.41679666  0.58903072  1  0.113901  0.009293  3.595678  0.009  0.084737  0.002691  3.848066  0.003  0.09332  0.003303  3.86159  0.004  0.066899  0.078557  0.002364  3.840259  0.003
C  C41  1  0.68870784  0.58319713  0.08902973  1  0.1139  -0.009318  3.595741  -0.009  0.084687  -0.002692  3.848117  -0.003  0.093274  -0.003305  3.861628  -0.004  0.066935  0.078496  -0.002364  3.840327  -0.003
C  C42  1  0.18870256  0.58319707  0.41096782  1  0.114041  -0.009333  3.596173  -0.009  0.084826  -0.00269  3.848623  -0.003  0.093439  -0.003303  3.862111  -0.004  0.066987  0.078625  -0.002364  3.840811  -0.003
C  C43  1  0.31131272  0.41681664  0.91096661  1  0.114122  0.009298  3.59629  0.009  0.084854  0.002695  3.848711  0.003  0.093483  0.003302  3.862197  0.004  0.066963  0.078626  0.002367  3.840929  0.003
C  C44  1  0.61047002  0.59724476  0.78429449  1  0.600642  0.004059  3.9558  0.007  0.556428  -0.00076  4.266505  0.001  0.591668  -0.00068  4.263223  0.001  0.196906  0.532212  -0.000815  4.268122  0.001
C  C45  1  0.88953451  0.40276010  0.28429818  1  0.600393  -0.004053  3.955844  -0.007  0.556204  0.000757  4.266529  -0.001  0.591442  0.000682  4.263241  0.0  0.196684  0.531977  0.000817  4.268151  -0.001
C  C46  1  0.38953209  0.40276304  0.21571064  1  0.600256  -0.004057  3.955869  -0.007  0.556184  0.000755  4.266406  -0.001  0.591415  0.00068  4.263135  -0.001  0.196729  0.531973  0.000813  4.268011  -0.001
C  C47  1  0.11044070  0.59721773  0.71569890  1  0.600351  0.004055  3.955763  0.007  0.556164  -0.000761  4.266478  0.001  0.591397  -0.00068  4.263206  0.001  0.196881  0.531942  -0.000815  4.2681  0.001
C  C48  1  0.79467379  0.35913264  0.89496417  1  0.64426  -0.00417  3.904267  -0.007  0.59473  -0.000654  4.216735  -0.003  0.633594  -0.000805  4.205459  -0.003  0.220802  0.568482  -0.000438  4.222916  -0.003
C  C49  1  0.70531318  0.64085010  0.39495781  1  0.644408  0.004169  3.904113  0.007  0.594791  0.000651  4.216729  0.003  0.633661  0.000807  4.20546  0.003  0.220721  0.568532  0.000438  4.222901  0.003
C  C50  1  0.20532142  0.64086326  0.10503803  1  0.644726  0.004165  3.903755  0.007  0.594984  0.00065  4.216558  0.003  0.63385  0.000806  4.205275  0.003  0.220852  0.56873  0.000437  4.222743  0.003
C  C51  1  0.29466636  0.35912868  0.60504001  1  0.644432  -0.004169  3.903947  -0.007  0.594846  -0.000653  4.216604  -0.003  0.633716  -0.000805  4.205314  -0.003  0.220787  0.568594  -0.000437  4.222785  -0.003
C  C52  1  0.36102863  0.86704229  0.60369739  1  0.229947  0.005327  3.649811  0.005  0.173482  0.001053  3.920093  0.001  0.190729  0.001807  3.931813  0.002  0.147828  0.162651  0.000461  3.912064  0.0
C  C53  1  0.13897700  0.13296671  0.10369746  1  0.229925  -0.005323  3.649684  -0.005  0.173497  -0.001055  3.919935  -0.001  0.190757  -0.001807  3.931654  -0.002  0.147846  0.162674  -0.00046  3.911904  0.0
C  C54  1  0.63898264  0.13298064  0.39631580  1  0.229833  -0.005323  3.649391  -0.005  0.173436  -0.001055  3.919619  -0.001  0.190663  -0.001807  3.931326  -0.002  0.147804  0.162609  -0.000461  3.91159  0.0
C  C55  1  0.86103684  0.86703958  0.89630328  1  0.229884  0.005316  3.649559  0.005  0.173471  0.001053  3.919851  0.001  0.190713  0.001806  3.931561  0.002  0.147958  0.162646  0.000459  3.911832  0.0
C  C56  1  0.31884435  0.95437588  0.45529285  1  -0.002812  -0.004382  3.697625  -0.004  -0.041138  -0.002306  3.957899  -0.002  -0.040363  -0.002  3.977894  -0.002  0.005738  -0.041581  -0.002465  3.944656  -0.003
C  C57  1  0.18117781  0.04565013  0.95528137  1  -0.002983  0.004373  3.697574  0.004  -0.041284  0.002305  3.957843  0.002  -0.040506  0.002  3.97784  0.002  0.005693  -0.041718  0.002465  3.944605  0.003
C  C58  1  0.68116062  0.04562298  0.54472546  1  -0.00283  0.004373  3.697072  0.004  -0.041122  0.002308  3.957314  0.002  -0.040365  0.002002  3.977304  0.002  0.005879  -0.041556  0.002467  3.944066  0.003
C  C59  1  0.81883184  0.95435851  0.04470839  1  -0.002863  -0.004362  3.697601  -0.004  -0.041088  -0.002306  3.957899  -0.002  -0.040307  -0.002  3.977897  -0.002  0.005842  -0.041528  -0.002465  3.944663  -0.003
C  C60  1  0.41200897  0.83844724  0.44840876  1  -0.010806  -0.000408  3.739396  0.0  -0.037946  -0.001257  4.006273  -0.001  -0.035989  -0.00051  4.030775  0.0  -0.008393  -0.03879  -0.001761  3.989737  -0.002
C  C61  1  0.08799084  0.16155096  0.94840907  1  -0.010798  0.000417  3.739571  0.0  -0.037968  0.001254  4.006469  0.001  -0.036007  0.00051  4.030956  0.0  -0.008416  -0.038809  0.001761  3.989932  0.002
C  C62  1  0.58797734  0.16156773  0.55159930  1  -0.010974  0.000413  3.739345  0.0  -0.038161  0.001253  4.006241  0.001  -0.036204  0.000509  4.030726  0.0  -0.008505  -0.038999  0.00176  3.989704  0.002
C  C63  1  0.91202648  0.83846183  0.05158948  1  -0.010931  -0.000416  3.739607  0.0  -0.038097  -0.001255  4.006455  -0.001  -0.036147  -0.00051  4.030955  0.0  -0.008507  -0.038922  -0.00176  3.989912  -0.002
N  N64  1  0.71929785  0.50069816  0.63833325  1  -0.261513  -0.07187  3.352154  -0.088  -0.224612  -0.05124  3.651097  -0.067  -0.250576  -0.043071  3.668353  -0.059  -0.333117  -0.20899  -0.054472  3.64233  -0.069
N  N65  1  0.78069607  0.49929835  0.13833104  1  -0.261532  0.071875  3.3521  0.088  -0.224638  0.051233  3.651079  0.067  -0.25057  0.043067  3.668311  0.059  -0.333143  -0.209025  0.054468  3.642326  0.069
N  N66  1  0.28070066  0.49929983  0.36166969  1  -0.261542  0.07188  3.352613  0.088  -0.224688  0.051228  3.651597  0.067  -0.250615  0.043065  3.668827  0.059  -0.333147  -0.209067  0.054459  3.642849  0.069
N  N67  1  0.21931430  0.50070143  0.86166604  1  -0.261511  -0.071869  3.35191  -0.088  -0.224629  -0.051238  3.650915  -0.067  -0.250575  -0.043067  3.668132  -0.059  -0.333116  -0.20903  -0.054472  3.64218  -0.069
N  N68  1  0.89038258  0.30164090  0.73711803  1  -0.278628  0.007933  3.02035  0.009  -0.256189  0.003912  3.287434  0.005  -0.261744  0.003462  3.299054  0.004  -0.298567  -0.252365  0.004604  3.280229  0.005
N  N69  1  0.60960625  0.69834318  0.23711485  1  -0.278546  -0.007947  3.020499  -0.009  -0.256166  -0.003909  3.287486  -0.005  -0.261723  -0.003459  3.299111  -0.004  -0.298565  -0.252337  -0.004601  3.280271  -0.005
N  N70  1  0.10960758  0.69836290  0.26288490  1  -0.27867  -0.00797  3.02008  -0.009  -0.256225  -0.003911  3.287108  -0.005  -0.261779  -0.003462  3.29873  -0.004  -0.298527  -0.252404  -0.004604  3.2799  -0.005
N  N71  1  0.39039290  0.30164375  0.76287490  1  -0.278738  0.007936  3.020154  0.009  -0.25626  0.003913  3.287219  0.005  -0.261816  0.003458  3.298846  0.004  -0.298578  -0.252434  0.004605  3.280005  0.005
N  N72  1  0.43759184  0.78505185  0.54174254  1  -0.371731  -0.068167  3.342377  -0.083  -0.326684  -0.047804  3.66216  -0.061  -0.35966  -0.040992  3.683199  -0.055  -0.384739  -0.307201  -0.04969  3.650128  -0.061
N  N73  1  0.06241418  0.21495481  0.04174520  1  -0.371797  0.068167  3.342344  0.083  -0.326734  0.047812  3.662089  0.061  -0.359683  0.041  3.683107  0.055  -0.384752  -0.307254  0.049692  3.650064  0.061
N  N74  1  0.56238620  0.21494354  0.45826333  1  -0.371739  0.068156  3.342297  0.083  -0.326654  0.047805  3.661958  0.061  -0.359599  0.040993  3.682997  0.055  -0.384681  -0.307165  0.049688  3.649936  0.061
N  N75  1  0.93758549  0.78504535  0.95825773  1  -0.371854  -0.068171  3.342482  -0.083  -0.326704  -0.047811  3.662152  -0.061  -0.359666  -0.040999  3.683177  -0.055  -0.384732  -0.307247  -0.049692  3.650134  -0.061
N  N76  1  0.28753548  0.96963920  0.55329357  1  -0.278115  -0.001758  3.464272  -0.002  -0.209745  -0.001339  3.691965  -0.002  -0.225129  -0.001023  3.705773  -0.001  -0.374384  -0.199562  -0.001513  3.682697  -0.002
N  N77  1  0.21244502  0.03035272  0.05328866  1  -0.277985  0.001762  3.46407  0.002  -0.209716  0.00134  3.691863  0.002  -0.225112  0.001023  3.705689  0.001  -0.374453  -0.199537  0.001514  3.682565  0.002
N  N78  1  0.71243905  0.03034859  0.44671596  1  -0.277892  0.001759  3.463891  0.002  -0.209683  0.00134  3.691712  0.002  -0.225019  0.001023  3.70548  0.001  -0.374556  -0.199518  0.001514  3.682425  0.002
N  N79  1  0.78755658  0.96964186  0.94670476  1  -0.277938  -0.001761  3.464247  -0.002  -0.209742  -0.001339  3.692074  -0.002  -0.225138  -0.001023  3.705909  -0.001  -0.374592  -0.199579  -0.001514  3.68276  -0.002
O  O80  1  0.53823060  0.67741180  0.72295500  1  -0.594191  -0.10632  2.018121  -0.14  -0.577371  -0.070746  2.299607  -0.102  -0.621711  -0.05512  2.290555  -0.084  -0.333915  -0.548305  -0.078703  2.306527  -0.109
O  O81  1  0.96179375  0.32259444  0.22294441  1  -0.594154  0.106359  2.01774  0.14  -0.577349  0.070765  2.299197  0.102  -0.621671  0.055137  2.290147  0.084  -0.33385  -0.548278  0.07873  2.306111  0.109
O  O82  1  0.46178410  0.32258893  0.27704355  1  -0.594088  0.106331  2.018152  0.14  -0.577328  0.070759  2.299549  0.102  -0.621646  0.05513  2.290512  0.084  -0.33383  -0.54825  0.078715  2.306472  0.109
O  O83  1  0.03820361  0.67740138  0.77704682  1  -0.594196  -0.106333  2.017728  -0.14  -0.57734  -0.070748  2.299172  -0.102  -0.621676  -0.05512  2.29012  -0.084  -0.333961  -0.548292  -0.07871  2.30609  -0.109
O  O84  1  0.60077253  0.60490645  0.87472874  1  -0.532294  -0.025449  1.922855  -0.032  -0.503772  -0.011749  2.14238  -0.016  -0.530732  -0.00532  2.137531  -0.008  -0.295209  -0.482913  -0.018987  2.144127  -0.025
O  O85  1  0.89926503  0.39512341  0.37471986  1  -0.532081  0.025414  1.923266  0.032  -0.503624  0.011739  2.14282  0.016  -0.530575  0.005318  2.137975  0.008  -0.295049  -0.482767  0.018976  2.144569  0.025
O  O86  1  0.39925322  0.39510273  0.12527200  1  -0.532063  0.025457  1.922543  0.032  -0.503653  0.011751  2.142018  0.016  -0.530597  0.005321  2.137175  0.008  -0.295148  -0.482801  0.018994  2.143767  0.025
O  O87  1  0.10073755  0.60486892  0.62526697  1  -0.532059  -0.025417  1.922962  -0.032  -0.50359  -0.011735  2.142507  -0.016  -0.530532  -0.005318  2.13766  -0.008  -0.295125  -0.482733  -0.018977  2.144253  -0.025
O  O88  1  0.89048379  0.42980232  0.94428963  1  -0.605574  0.076377  2.137868  0.098  -0.581643  0.053466  2.450682  0.075  -0.627108  0.043132  2.439209  0.063  -0.31491  -0.550285  0.058175  2.458534  0.079
O  O89  1  0.60951845  0.57019124  0.44429548  1  -0.605423  -0.076366  2.137637  -0.098  -0.581677  -0.053462  2.450775  -0.075  -0.627133  -0.043127  2.439264  -0.063  -0.314916  -0.550296  -0.058175  2.45861  -0.079
O  O90  1  0.10952783  0.57020184  0.05570305  1  -0.605633  -0.076372  2.137771  -0.098  -0.581688  -0.053463  2.450744  -0.075  -0.627142  -0.043131  2.439241  -0.063  -0.314937  -0.550357  -0.058173  2.458641  -0.079
O  O91  1  0.39047226  0.42979929  0.55571038  1  -0.605583  0.076399  2.137321  0.099  -0.581734  0.053481  2.450283  0.075  -0.627202  0.043142  2.438813  0.063  -0.31499  -0.550308  0.058195  2.458024  0.079
O  O92  1  0.71254519  0.26147782  0.92722443  1  -0.590849  -0.000873  1.942937  0.0  -0.557975  8.9e-05  2.171153  0.001  -0.582883  -0.000561  2.158986  0.0  -0.300241  -0.538845  0.000761  2.178177  0.002
O  O93  1  0.78743333  0.73852898  0.42721349  1  -0.590965  0.00087  1.942778  0.0  -0.558042  -9e-05  2.17105  -0.001  -0.582964  0.00056  2.158895  0.0  -0.300184  -0.538913  -0.000763  2.178075  -0.002
O  O94  1  0.28744797  0.73852036  0.07277265  1  -0.591112  0.000875  1.942819  0.0  -0.558128  -8.9e-05  2.171136  -0.001  -0.583045  0.00056  2.158972  0.0  -0.300265  -0.538995  -0.000761  2.178168  -0.002
O  O95  1  0.21254826  0.26147512  0.57278432  1  -0.5909  -0.000872  1.942968  0.0  -0.557961  9e-05  2.171231  0.001  -0.582872  -0.00056  2.159055  0.0  -0.300163  -0.538837  0.000762  2.17826  0.002
