# generated using pymatgen
data_NiH17C25N3O5
_symmetry_space_group_name_H-M   'P 1'
_cell_length_a   9.37283963
_cell_length_b   10.16643276
_cell_length_c   11.85017539
_cell_angle_alpha   75.63082978
_cell_angle_beta   89.63945068
_cell_angle_gamma   66.72587552
_symmetry_Int_Tables_number   1
_chemical_formula_structural   NiH17C25N3O5
_chemical_formula_sum   'Ni2 H34 C50 N6 O10'
_cell_volume   999.48923235
_cell_formula_units_Z   2
loop_
 _symmetry_equiv_pos_site_id
 _symmetry_equiv_pos_as_xyz
  1  'x, y, z'
loop_
 _atom_site_type_symbol
 _atom_site_label
 _atom_site_symmetry_multiplicity
 _atom_site_fract_x
 _atom_site_fract_y
 _atom_site_fract_z
 _atom_site_occupancy
 _atom_site_pbe_bader_charge
 _atom_site_pbe_bader_spin_density
 _atom_site_pbe_cm5_charge
 _atom_site_pbe_ddec_charge
 _atom_site_pbe_ddec_spin_density
 _atom_site_pbe_ddec_sum_bond_order
 _atom_site_pbe_magmom
Ni  Ni0  1  0.77064261  0.93707852  0.73067837  1  1.160319  -1.551602  0.649097  0.719038  -1.774549  2.531531  -1.539
Ni  Ni1  1  0.22937393  0.06301681  0.26932064  1  1.160508  -1.551687  0.649144  0.719482  -1.774798  2.532605  -1.539
H  H2  1  0.62084869  0.98494213  0.49454051  1  0.153964  -0.001967  0.121387  0.096945  -0.000776  1.053811  -0.002
H  H3  1  0.37915816  0.01504465  0.50547214  1  0.153995  -0.001962  0.12135  0.09685  -0.000774  1.053994  -0.002
H  H4  1  0.60978971  0.39113136  0.26648095  1  0.09686  4.9e-05  0.105333  0.10471  0.000208  1.04149  0.0
H  H5  1  0.39019553  0.60888890  0.73350029  1  0.096958  5e-05  0.105376  0.104826  0.000208  1.041518  0.0
H  H6  1  0.85270499  0.20410417  0.61383781  1  0.093996  -0.001843  0.114623  0.082547  -0.000601  1.030343  -0.001
H  H7  1  0.14727497  0.79589063  0.38614630  1  0.094159  -0.001841  0.114559  0.082368  -0.0006  1.030379  -0.001
H  H8  1  0.62483581  0.52116929  0.54878900  1  0.057477  8e-06  0.094095  0.094621  6.1e-05  1.026802  0.0
H  H9  1  0.37517353  0.47882418  0.45120872  1  0.057284  8e-06  0.094087  0.09459  6.1e-05  1.02677  0.0
H  H10  1  0.68877792  0.73874945  0.53951964  1  0.076859  2e-05  0.099108  0.100489  7.7e-05  1.040559  0.0
H  H11  1  0.31123653  0.26123953  0.46048660  1  0.076799  2e-05  0.099091  0.100501  7.7e-05  1.040523  0.0
H  H12  1  0.88243804  0.78291404  0.40934731  1  0.089436  -0.000166  0.098241  0.09654  -7.5e-05  1.011677  0.0
H  H13  1  0.11756572  0.21707500  0.59065898  1  0.0895  -0.000165  0.098246  0.096568  -7.5e-05  1.011644  0.0
H  H14  1  0.01248034  0.60785533  0.28793476  1  0.054935  -0.000112  0.095985  0.092008  -2.2e-05  1.038186  0.0
H  H15  1  0.98752948  0.39213703  0.71206573  1  0.054969  -0.000112  0.095954  0.091961  -2.2e-05  1.038104  0.0
H  H16  1  0.13721612  0.82018396  0.77386830  1  0.110795  -0.002574  0.115946  0.083613  -0.000901  1.032552  -0.002
H  H17  1  0.86279392  0.17982054  0.22614145  1  0.110868  -0.002567  0.115894  0.083634  -0.000898  1.032469  -0.002
H  H18  1  0.31785015  0.89711300  0.86822138  1  0.10133  -0.001113  0.105759  0.117953  -0.000519  1.04175  -0.001
H  H19  1  0.68217351  0.10288702  0.13178080  1  0.101533  -0.001112  0.105807  0.117976  -0.000519  1.041866  -0.001
H  H20  1  0.20366480  0.12814954  0.94152689  1  0.140259  -8.4e-05  0.111599  0.126308  5.3e-05  1.007973  0.0
H  H21  1  0.79636423  0.87186048  0.05846049  1  0.140745  -8.3e-05  0.111589  0.126319  5.5e-05  1.007949  0.0
H  H22  1  0.96104603  0.35165625  0.95546553  1  0.118623  -0.000756  0.11438  0.133682  -0.00045  0.999749  0.0
H  H23  1  0.03894415  0.64837504  0.04451927  1  0.118867  -0.000755  0.114403  0.133685  -0.000449  0.999736  0.0
H  H24  1  0.67290430  0.47300326  0.94143088  1  0.12859  -0.000515  0.107645  0.118369  -0.000256  1.024452  0.0
H  H25  1  0.32709640  0.52701576  0.05855982  1  0.128713  -0.000516  0.107642  0.118441  -0.000256  1.024405  0.0
H  H26  1  0.41138055  0.45403851  0.91469018  1  0.085866  -5.4e-05  0.113261  0.112685  2.6e-05  1.000869  0.0
H  H27  1  0.58860746  0.54598278  0.08530518  1  0.085916  -5.4e-05  0.113252  0.112603  2.6e-05  1.000887  0.0
H  H28  1  0.26600655  0.32668749  0.84536492  1  0.103715  -0.001299  0.108826  0.115828  -0.000691  1.040955  -0.001
H  H29  1  0.73398152  0.67332606  0.15462785  1  0.103448  -0.001298  0.108846  0.115868  -0.00069  1.040917  -0.001
H  H30  1  0.41182229  0.11194720  0.75951835  1  0.109054  -0.002479  0.11666  0.086807  -0.000921  1.01653  -0.002
H  H31  1  0.58817952  0.88805404  0.24048622  1  0.108759  -0.002475  0.116633  0.086793  -0.000918  1.016485  -0.002
H  H32  1  0.88015680  0.69603601  0.87935572  1  0.643373  0.000143  0.280303  0.366762  5e-06  0.98594  0.0
H  H33  1  0.11982470  0.30396534  0.12065063  1  0.643492  0.000139  0.280376  0.3668  -1e-06  0.985903  0.0
H  H34  1  0.69379634  0.75750560  0.87739472  1  0.642772  -0.000127  0.280831  0.366692  -0.000314  0.979443  0.0
H  H35  1  0.30621143  0.24247899  0.12261164  1  0.642703  -0.000132  0.280984  0.366997  -0.000319  0.979056  0.0
C  C36  1  0.65434002  0.07817591  0.47554775  1  0.484986  0.002792  0.053439  0.076958  0.003548  3.876482  0.002
C  C37  1  0.34565742  0.92181542  0.52444881  1  0.484339  0.002793  0.053445  0.076921  0.003555  3.87637  0.002
C  C38  1  0.60210334  0.18726588  0.36873668  1  -0.020761  -0.011672  -0.013474  -0.075278  -0.006856  3.969663  -0.009
C  C39  1  0.39786913  0.81273664  0.63126694  1  -0.021026  -0.011642  -0.01351  -0.075296  -0.006838  3.970137  -0.009
C  C40  1  0.64980781  0.30421211  0.34874294  1  -0.031203  0.005091  -0.063823  -0.104962  0.00574  3.915812  0.003
C  C41  1  0.35016766  0.69578828  0.65123579  1  -0.030187  0.00509  -0.063949  -0.105065  0.005738  3.91629  0.003
C  C42  1  0.74274944  0.31171256  0.43684861  1  0.03207  -0.005761  0.001911  0.042404  -0.003349  3.99975  -0.005
C  C43  1  0.25723931  0.68827662  0.56314508  1  0.031372  -0.005758  0.001931  0.042343  -0.003347  4.000151  -0.005
C  C44  1  0.78367679  0.19987343  0.54230910  1  0.459887  0.00442  0.052947  0.046451  0.005308  3.891994  0.003
C  C45  1  0.21631607  0.80013126  0.45767538  1  0.460228  0.004418  0.053075  0.046848  0.005306  3.891367  0.003
C  C46  1  0.78540795  0.43989102  0.42601123  1  0.017343  -0.001721  -0.009702  0.033958  -0.001003  3.996546  -0.001
C  C47  1  0.21457992  0.56011036  0.57397820  1  0.017316  -0.001725  -0.009575  0.03418  -0.001005  3.996572  -0.001
C  C48  1  0.71060803  0.54056426  0.49197531  1  -0.072481  -0.000118  -0.095875  -0.138604  -3e-06  3.991558  0.0
C  C49  1  0.28938612  0.45943487  0.50801456  1  -0.072339  -0.000117  -0.095851  -0.138566  -1e-06  3.991334  0.0
C  C50  1  0.74449187  0.66361623  0.48577803  1  -0.056363  -0.001404  -0.092621  -0.071733  -0.000759  3.995541  -0.001
C  C51  1  0.25550596  0.33638176  0.51421544  1  -0.056453  -0.001409  -0.092617  -0.07175  -0.000761  3.995351  -0.001
C  C52  1  0.85351836  0.68833709  0.41225712  1  -0.016929  -0.000485  -0.09085  -0.080134  -0.000286  4.012577  0.0
C  C53  1  0.14647427  0.31166313  0.58773927  1  -0.017168  -0.000483  -0.090885  -0.080293  -0.000285  4.012495  0.0
C  C54  1  0.92675574  0.59038569  0.34536529  1  -0.041327  -0.002115  -0.087882  -0.103151  -0.001112  3.991773  -0.001
C  C55  1  0.07324231  0.40960674  0.65463188  1  -0.041076  -0.002116  -0.087729  -0.102854  -0.001112  3.991596  -0.001
C  C56  1  0.89478605  0.46522642  0.35181797  1  -0.051256  -0.006445  -0.010806  -0.063073  -0.003828  3.933006  -0.005
C  C57  1  0.10523693  0.53474483  0.64817930  1  -0.051853  -0.006431  -0.010973  -0.063348  -0.003819  3.933677  -0.005
C  C58  1  0.48497291  0.18375888  0.28340680  1  1.595939  -0.000609  0.210456  0.566165  -0.00018  4.220071  -0.001
C  C59  1  0.51495614  0.81623517  0.71655918  1  1.595434  -0.000617  0.210415  0.566081  -0.000187  4.21971  -0.001
C  C60  1  0.98482777  0.36210220  0.27958402  1  1.580276  0.000871  0.206936  0.573569  0.001366  4.20567  0.001
C  C61  1  0.01522134  0.63785011  0.72040528  1  1.579525  0.000867  0.206909  0.573552  0.001362  4.204972  0.001
C  C62  1  0.09212361  0.91749597  0.80772353  1  0.49784  0.006927  0.059637  0.115685  0.007801  3.917276  0.005
C  C63  1  0.90787271  0.08250311  0.19227647  1  0.498379  0.00693  0.059568  0.115571  0.007803  3.916854  0.005
C  C64  1  0.19259989  0.96376360  0.85916924  1  -0.015159  -0.006256  -0.088147  -0.141516  -0.003517  3.979414  -0.005
C  C65  1  0.80740519  0.03622987  0.14083611  1  -0.016056  -0.006247  -0.088238  -0.14174  -0.003511  3.979944  -0.005
C  C66  1  0.13041402  0.09012374  0.89869346  1  -0.01688  0.008571  -0.060666  -0.068573  0.009444  3.894042  0.005
C  C67  1  0.86960537  0.90987630  0.10131042  1  -0.01744  0.008577  -0.060709  -0.068439  0.00945  3.894402  0.005
C  C68  1  0.96652396  0.16942970  0.88776974  1  -0.043432  -0.003656  -0.000657  0.04445  -0.002097  4.003374  -0.003
C  C69  1  0.03347330  0.83056714  0.11223325  1  -0.043218  -0.003654  -0.000631  0.044515  -0.002096  4.003925  -0.003
C  C70  1  0.87467607  0.11077020  0.83936425  1  0.430127  0.001571  0.111925  0.103073  0.002369  4.007608  0.001
C  C71  1  0.12532265  0.88923330  0.16063395  1  0.429841  0.00157  0.111882  0.102857  0.002368  4.007245  0.001
C  C72  1  0.88993661  0.30317077  0.92353051  1  0.026213  -0.001181  -0.077014  -0.109041  -0.000698  3.9454  -0.001
C  C73  1  0.11006568  0.69682934  0.07647936  1  0.026242  -0.001179  -0.077083  -0.109078  -0.000698  3.94578  -0.001
C  C74  1  0.73061900  0.36924914  0.91718306  1  -0.099628  -0.001003  -0.081308  -0.119456  -0.000589  3.958916  -0.001
C  C75  1  0.26937226  0.63075435  0.08282700  1  -0.100467  -0.001004  -0.081237  -0.119465  -0.000589  3.9588  -0.001
C  C76  1  0.63565431  0.30535607  0.87755321  1  -0.034334  -0.003419  -0.000383  0.046667  -0.001967  4.020554  -0.003
C  C77  1  0.36434906  0.69464404  0.12245665  1  -0.033722  -0.003418  -0.000446  0.046712  -0.001967  4.020786  -0.003
C  C78  1  0.70808286  0.17819188  0.83520433  1  0.470275  0.001344  0.113875  0.109578  0.002198  3.998128  0.001
C  C79  1  0.29192964  0.82180930  0.16479934  1  0.469649  0.001343  0.113772  0.109387  0.002197  3.998032  0.001
C  C80  1  0.47242792  0.35831387  0.88082575  1  0.007845  0.007785  -0.060018  -0.066112  0.008582  3.913803  0.005
C  C81  1  0.52756052  0.64169631  0.11917785  1  0.008102  0.007789  -0.060053  -0.066143  0.008586  3.914132  0.005
C  C82  1  0.39152765  0.28740630  0.84198185  1  0.021458  -0.006315  -0.078293  -0.119095  -0.003644  3.962859  -0.005
C  C83  1  0.60847095  0.71259496  0.15802273  1  0.021707  -0.006306  -0.078275  -0.119016  -0.003639  3.96291  -0.005
C  C84  1  0.47257362  0.16631035  0.79594129  1  0.517716  0.006006  0.060152  0.115148  0.006653  3.899095  0.004
C  C85  1  0.52743694  0.83368533  0.20405935  1  0.517218  0.006008  0.060033  0.11496  0.006656  3.898966  0.004
N  N86  1  0.74136640  0.08498434  0.56181170  1  -1.227542  -0.07253  -0.311375  -0.196054  -0.042398  3.542862  -0.065
N  N87  1  0.25863687  0.91501592  0.43816184  1  -1.22764  -0.072453  -0.311333  -0.196233  -0.042351  3.542272  -0.065
N  N88  1  0.93742498  0.98841512  0.79811958  1  -1.221901  -0.075264  -0.32276  -0.253371  -0.043712  3.59181  -0.067
N  N89  1  0.06261027  0.01160805  0.20189368  1  -1.221716  -0.07523  -0.322595  -0.253286  -0.043699  3.590326  -0.067
N  N90  1  0.62682851  0.11255749  0.79297955  1  -1.226101  -0.074161  -0.317887  -0.245217  -0.04299  3.570323  -0.066
N  N91  1  0.37316328  0.88747259  0.20702912  1  -1.225101  -0.074141  -0.317667  -0.245043  -0.042981  3.569139  -0.066
O  O92  1  0.45995274  0.26484282  0.17943430  1  -1.186632  0.000192  -0.318357  -0.549323  0.001191  2.160641  0.0
O  O93  1  0.54001529  0.73515754  0.82056052  1  -1.1872  0.000198  -0.318508  -0.549549  0.001193  2.1599  0.0
O  O94  1  0.41802359  0.09757758  0.32745445  1  -1.162654  -0.059325  -0.31047  -0.550108  -0.033589  2.404328  -0.055
O  O95  1  0.58194893  0.90242727  0.67252168  1  -1.161923  -0.059288  -0.310399  -0.550022  -0.033565  2.403067  -0.055
O  O96  1  0.06716812  0.22721239  0.33595498  1  -1.152807  -0.068049  -0.314971  -0.546876  -0.038416  2.323833  -0.063
O  O97  1  0.93284941  0.77276671  0.66402547  1  -1.152259  -0.06801  -0.315025  -0.546973  -0.0384  2.32238  -0.063
O  O98  1  0.97560184  0.41834680  0.17018529  1  -1.173062  -1e-06  -0.320681  -0.546691  0.001022  2.134027  0.0
O  O99  1  0.02444091  0.58162316  0.82982817  1  -1.172489  0.0  -0.320604  -0.546711  0.001022  2.133481  0.0
O  O100  1  0.78470369  0.78183664  0.89224602  1  -1.2595  -0.0797  -0.576312  -0.741181  -0.044532  2.150997  -0.069
O  O101  1  0.21529720  0.21809872  0.10788636  1  -1.25948  -0.079724  -0.5764  -0.741469  -0.044546  2.152102  -0.069
