# generated using pymatgen
data_AgH20C18S(NO)3
_symmetry_space_group_name_H-M   'P 1'
_cell_length_a   7.25759723
_cell_length_b   7.25757399
_cell_length_c   15.74896871
_cell_angle_alpha   93.91440204
_cell_angle_beta   93.91432355
_cell_angle_gamma   93.07363467
_symmetry_Int_Tables_number   1
_chemical_formula_structural   AgH20C18S(NO)3
_chemical_formula_sum   'Ag2 H40 C36 S2 N6 O6'
_cell_volume   824.25596711
_cell_formula_units_Z   2
loop_
 _symmetry_equiv_pos_site_id
 _symmetry_equiv_pos_as_xyz
  1  'x, y, z'
loop_
 _atom_site_type_symbol
 _atom_site_label
 _atom_site_symmetry_multiplicity
 _atom_site_fract_x
 _atom_site_fract_y
 _atom_site_fract_z
 _atom_site_occupancy
 _atom_site_hle17_bader_spin_density
 _atom_site_hle17_ddec_charge
 _atom_site_hle17_ddec_spin_density
 _atom_site_hle17_ddec_sum_bond_order
 _atom_site_hle17_magmom
 _atom_site_hse06_10hf_bader_spin_density
 _atom_site_hse06_10hf_ddec_charge
 _atom_site_hse06_10hf_ddec_spin_density
 _atom_site_hse06_10hf_ddec_sum_bond_order
 _atom_site_hse06_10hf_magmom
 _atom_site_hse06_bader_spin_density
 _atom_site_hse06_ddec_charge
 _atom_site_hse06_ddec_spin_density
 _atom_site_hse06_ddec_sum_bond_order
 _atom_site_hse06_magmom
 _atom_site_pbe_bader_spin_density
 _atom_site_pbe_cm5_charge
 _atom_site_pbe_ddec_charge
 _atom_site_pbe_ddec_spin_density
 _atom_site_pbe_ddec_sum_bond_order
 _atom_site_pbe_magmom
Ag  Ag0  1  0.68812358  0.49923382  0.08487945  1  0  0.557487  0  1.298967  0  0  0.427672  0  1.686381  0  0  0.455889  0  1.649948  0  0  0.49018  0.408148  0  1.711419  0
Ag  Ag1  1  0.49923313  0.68812151  0.58487923  1  0  0.557469  0  1.298992  0  0  0.427653  0  1.686428  0  0  0.455874  0  1.64999  0  0  0.490188  0.408123  0  1.711481  0
H  H2  1  0.13777728  0.25708616  0.28910039  1  0  0.093602  0  0.986391  0  0  0.104199  0  1.050766  0  0  0.107276  0  1.049082  0  0  0.098991  0.101954  0  1.052033  0
H  H3  1  0.25708501  0.13776610  0.78909787  1  0  0.093578  0  0.986275  0  0  0.104171  0  1.050676  0  0  0.107257  0  1.048983  0  0  0.098979  0.101931  0  1.051937  0
H  H4  1  0.38279969  0.16986460  0.19433744  1  0  0.101009  0  1.003782  0  0  0.107664  0  1.069856  0  0  0.111426  0  1.06689  0  0  0.097369  0.104907  0  1.072085  0
H  H5  1  0.16986447  0.38279529  0.69433844  1  0  0.101031  0  1.003781  0  0  0.107669  0  1.069876  0  0  0.111429  0  1.066911  0  0  0.09739  0.104917  0  1.0721  0
H  H6  1  0.29644807  0.99450724  0.05356215  1  0  0.089153  0  0.978973  0  0  0.103742  0  1.038293  0  0  0.106176  0  1.037277  0  0  0.098837  0.102014  0  1.039027  0
H  H7  1  0.99450051  0.29644511  0.55356337  1  0  0.089152  0  0.979029  0  0  0.103757  0  1.038322  0  0  0.106191  0  1.037307  0  0  0.098829  0.102027  0  1.039055  0
H  H8  1  0.06731556  0.84978761  0.94876586  1  0  0.118573  0  0.969199  0  0  0.125154  0  1.037089  0  0  0.129456  0  1.034632  0  0  0.098084  0.122051  0  1.038981  0
H  H9  1  0.84978430  0.06731241  0.44876435  1  0  0.118586  0  0.969209  0  0  0.125176  0  1.037067  0  0  0.129475  0  1.034615  0  0  0.098107  0.122078  0  1.038956  0
H  H10  1  0.48822504  0.87402110  0.98859375  1  0  0.109296  0  0.968447  0  0  0.119758  0  1.028134  0  0  0.123346  0  1.026149  0  0  0.099686  0.117208  0  1.029624  0
H  H11  1  0.87401739  0.48821962  0.48858845  1  0  0.109264  0  0.968504  0  0  0.119732  0  1.028197  0  0  0.12332  0  1.026213  0  0  0.099654  0.117185  0  1.029681  0
H  H12  1  0.56407842  0.04429100  0.12911452  1  0  0.093789  0  1.007304  0  0  0.103812  0  1.070977  0  0  0.10641  0  1.069597  0  0  0.099465  0.10192  0  1.072051  0
H  H13  1  0.04429208  0.56407349  0.62910927  1  0  0.093768  0  1.00725  0  0  0.103762  0  1.070985  0  0  0.106357  0  1.069607  0  0  0.099446  0.101874  0  1.072054  0
H  H14  1  0.81138859  0.34757942  0.95033826  1  0  0.098518  0  0.986234  0  0  0.117412  0  1.059023  0  0  0.119637  0  1.056526  0  0  0.083945  0.115708  0  1.060873  0
H  H15  1  0.34757582  0.81138462  0.45033641  1  0  0.098491  0  0.986276  0  0  0.117393  0  1.059055  0  0  0.119618  0  1.056555  0  0  0.083943  0.115689  0  1.060906  0
H  H16  1  0.99095425  0.20129377  0.92333048  1  0  0.127475  0  0.952835  0  0  0.149613  0  1.010185  0  0  0.149876  0  1.012321  0  0  0.097926  0.149336  0  1.008771  0
H  H17  1  0.20128951  0.99094987  0.42332931  1  0  0.127462  0  0.952897  0  0  0.14963  0  1.010209  0  0  0.149894  0  1.012345  0  0  0.097926  0.149355  0  1.008795  0
H  H18  1  0.97871301  0.42100506  0.87968962  1  0  0.143085  0  0.9599  0  0  0.162993  0  1.018462  0  0  0.164527  0  1.018564  0  0  0.102508  0.16181  0  1.01845  0
H  H19  1  0.42100277  0.97870986  0.37968850  1  0  0.143115  0  0.959874  0  0  0.163015  0  1.018446  0  0  0.164548  0  1.018549  0  0  0.102517  0.161836  0  1.018428  0
H  H20  1  0.86696761  0.68483294  0.20471627  1  0  0.104198  0  0.987044  0  0  0.123019  0  1.059027  0  0  0.125115  0  1.056514  0  0  0.086753  0.121352  0  1.060991  0
H  H21  1  0.68483011  0.86696416  0.70471466  1  0  0.104193  0  0.987005  0  0  0.123007  0  1.058999  0  0  0.125103  0  1.056486  0  0  0.086732  0.121338  0  1.060969  0
H  H22  1  0.07842805  0.80587154  0.24367723  1  0  0.1248  0  0.959388  0  0  0.148381  0  1.014103  0  0  0.148565  0  1.016413  0  0  0.098141  0.148161  0  1.012559  0
H  H23  1  0.80586982  0.07842677  0.74367486  1  0  0.124802  0  0.959323  0  0  0.148383  0  1.014052  0  0  0.148567  0  1.016364  0  0  0.09815  0.148167  0  1.012503  0
H  H24  1  0.02458474  0.57950747  0.27471899  1  0  0.13431  0  0.938366  0  0  0.156532  0  0.99521  0  0  0.157529  0  0.995505  0  0  0.102525  0.155667  0  0.995139  0
H  H25  1  0.57950692  0.02458378  0.77471861  1  0  0.134309  0  0.938384  0  0  0.156538  0  0.995215  0  0  0.157536  0  0.99551  0  0  0.102527  0.155677  0  0.995141  0
H  H26  1  0.56082889  0.70272152  0.20204845  1  0  0.107601  0  0.980097  0  0  0.12716  0  1.048977  0  0  0.129038  0  1.046769  0  0  0.088526  0.125684  0  1.050698  0
H  H27  1  0.70271939  0.56082781  0.70204559  1  0  0.107574  0  0.980105  0  0  0.127137  0  1.048998  0  0  0.129015  0  1.046788  0  0  0.088506  0.125662  0  1.050717  0
H  H28  1  0.41512659  0.60260443  0.27445365  1  0  0.133578  0  0.924065  0  0  0.160092  0  0.974238  0  0  0.160611  0  0.975329  0  0  0.103001  0.159622  0  0.973557  0
H  H29  1  0.60260219  0.41512796  0.77445213  1  0  0.133547  0  0.924119  0  0  0.160072  0  0.974294  0  0  0.160591  0  0.975385  0  0  0.102967  0.1596  0  0.973618  0
H  H30  1  0.37116069  0.82312421  0.23704528  1  0  0.123409  0  0.967651  0  0  0.144125  0  1.028472  0  0  0.144625  0  1.029755  0  0  0.097842  0.143675  0  1.027665  0
H  H31  1  0.82312088  0.37115944  0.73704356  1  0  0.123413  0  0.967679  0  0  0.144116  0  1.028518  0  0  0.144617  0  1.029802  0  0  0.097831  0.143671  0  1.027703  0
H  H32  1  0.51057905  0.40500786  0.94019077  1  0  0.10039  0  0.991985  0  0  0.116194  0  1.069568  0  0  0.119042  0  1.066256  0  0  0.085017  0.114075  0  1.071954  0
H  H33  1  0.40500381  0.51057721  0.44019142  1  0  0.100396  0  0.992019  0  0  0.116208  0  1.069584  0  0  0.119056  0  1.066272  0  0  0.085037  0.114091  0  1.071964  0
H  H34  1  0.30160549  0.41618990  0.87513544  1  0  0.137058  0  0.939756  0  0  0.156728  0  0.99957  0  0  0.158349  0  0.999024  0  0  0.103099  0.155405  0  1.000103  0
H  H35  1  0.41618767  0.30160552  0.37513552  1  0  0.137023  0  0.939836  0  0  0.156712  0  0.999615  0  0  0.158334  0  0.999072  0  0  0.103101  0.155393  0  1.000143  0
H  H36  1  0.34467745  0.21203550  0.92794593  1  0  0.13518  0  0.932598  0  0  0.158248  0  0.988565  0  0  0.158962  0  0.989238  0  0  0.103273  0.157626  0  0.988201  0
H  H37  1  0.21203376  0.34467777  0.42794610  1  0  0.135215  0  0.932533  0  0  0.158252  0  0.988558  0  0  0.158964  0  0.989231  0  0  0.103274  0.157627  0  0.988196  0
H  H38  1  0.59089844  0.75052102  0.85856106  1  0  0.319459  0  0.919389  0  0  0.303609  0  0.983105  0  0  0.309873  0  0.978913  0  0  0.294309  0.29914  0  0.986067  0
H  H39  1  0.75051697  0.59089576  0.35855780  1  0  0.319457  0  0.91934  0  0  0.303571  0  0.983088  0  0  0.309834  0  0.9789  0  0  0.294307  0.299104  0  0.986046  0
H  H40  1  0.82409286  0.71745305  0.84437733  1  0  0.325673  0  0.928221  0  0  0.312782  0  0.983014  0  0  0.319317  0  0.978754  0  0  0.293904  0.308176  0  0.985936  0
H  H41  1  0.71745112  0.82409366  0.34437623  1  0  0.325665  0  0.928311  0  0  0.312772  0  0.983102  0  0  0.319308  0  0.978843  0  0  0.293898  0.308169  0  0.986018  0
C  C42  1  0.91654018  0.14353590  0.20210496  1  0  -0.168454  0  3.746213  0  0  -0.147093  0  3.9964  0  0  -0.152291  0  4.016377  0  0  -0.026643  -0.143839  0  3.983157  0
C  C43  1  0.14353330  0.91653712  0.70210162  1  0  -0.168146  0  3.7462  0  0  -0.14675  0  3.996363  0  0  -0.151937  0  4.016338  0  0  -0.026479  -0.143436  0  3.983038  0
C  C44  1  0.10097085  0.18327583  0.22743640  1  0  -0.091291  0  3.795237  0  0  -0.121723  0  4.053958  0  0  -0.120536  0  4.071577  0  0  -0.105455  -0.122328  0  4.042059  0
C  C45  1  0.18326908  0.10095746  0.72743300  1  0  -0.091383  0  3.79528  0  0  -0.121822  0  4.054019  0  0  -0.120644  0  4.071632  0  0  -0.105584  -0.122445  0  4.042107  0
C  C46  1  0.23917208  0.13099182  0.17344046  1  0  -0.071291  0  3.772175  0  0  -0.087306  0  4.034969  0  0  -0.087889  0  4.05187  0  0  -0.103605  -0.086844  0  4.023488  0
C  C47  1  0.13098568  0.23916389  0.67343920  1  0  -0.071367  0  3.772278  0  0  -0.08738  0  4.035107  0  0  -0.087962  0  4.05201  0  0  -0.103601  -0.086924  0  4.023631  0
C  C48  1  0.19093151  0.03589534  0.09575237  1  0  -0.118058  0  3.727489  0  0  -0.14097  0  3.978618  0  0  -0.141977  0  3.99719  0  0  -0.09658  -0.140214  0  3.965964  0
C  C49  1  0.03589155  0.19093151  0.59575210  1  0  -0.118043  0  3.727505  0  0  -0.140927  0  3.978585  0  0  -0.141936  0  3.997157  0  0  -0.096588  -0.140168  0  3.965929  0
C  C50  1  0.95625269  0.89082347  0.98818617  1  0  -0.270266  0  3.702062  0  0  -0.291989  0  3.952559  0  0  -0.300168  0  3.971098  0  0  -0.121249  -0.28643  0  3.940124  0
C  C51  1  0.89081751  0.95625066  0.48818293  1  0  -0.270268  0  3.701934  0  0  -0.291978  0  3.952484  0  0  -0.300157  0  3.971024  0  0  -0.121257  -0.286425  0  3.940052  0
C  C52  1  0.77209538  0.84673589  0.95935922  1  0  0.317314  0  3.899068  0  0  0.309433  0  4.151419  0  0  0.321479  0  4.169573  0  0  0.090923  0.301176  0  4.13893  0
C  C53  1  0.84673158  0.77209051  0.45935590  1  0  0.317381  0  3.898994  0  0  0.309451  0  4.151404  0  0  0.321501  0  4.169553  0  0  0.090976  0.301188  0  4.138924  0
C  C54  1  0.63167588  0.90701495  0.01228387  1  0  -0.196263  0  3.757011  0  0  -0.209429  0  4.011988  0  0  -0.214604  0  4.029428  0  0  -0.10696  -0.205907  0  4.000193  0
C  C55  1  0.90701250  0.63167246  0.51228025  1  0  -0.196282  0  3.757041  0  0  -0.209433  0  4.012006  0  0  -0.214616  0  4.029454  0  0  -0.106917  -0.205905  0  4.000206  0
C  C56  1  0.67456773  0.00341698  0.09008003  1  0  -0.124029  0  3.813635  0  0  -0.147252  0  4.073562  0  0  -0.146394  0  4.091758  0  0  -0.104183  -0.147639  0  4.061185  0
C  C57  1  0.00341253  0.67456094  0.59007584  1  0  -0.123969  0  3.813507  0  0  -0.147132  0  4.073425  0  0  -0.146285  0  4.091649  0  0  -0.104192  -0.147527  0  4.061054  0
C  C58  1  0.86089774  0.04749637  0.12151234  1  0  0.020835  0  3.789919  0  0  0.030325  0  4.01712  0  0  0.028504  0  4.041952  0  0  -0.022071  0.031538  0  4.00037  0
C  C59  1  0.04749178  0.86088994  0.62151069  1  0  0.02076  0  3.789964  0  0  0.030182  0  4.01726  0  0  0.028354  0  4.042097  0  0  -0.022081  0.031381  0  4.000499  0
C  C60  1  0.00287766  0.98954223  0.06771985  1  0  0.078082  0  3.818402  0  0  0.095965  0  4.044736  0  0  0.09803  0  4.068947  0  0  -0.013611  0.094629  0  4.028255  0
C  C61  1  0.98953535  0.00287556  0.56771848  1  0  0.078055  0  3.818208  0  0  0.095932  0  4.044608  0  0  0.098002  0  4.068815  0  0  -0.013597  0.094602  0  4.028127  0
C  C62  1  0.07662606  0.43407936  0.01096701  1  0  0.232614  0  3.66686  0  0  0.232652  0  3.913783  0  0  0.237307  0  3.935838  0  0  0.131421  0.229187  0  3.899109  0
C  C63  1  0.43407477  0.07662238  0.51096647  1  0  0.232601  0  3.667106  0  0  0.232635  0  3.913995  0  0  0.23729  0  3.936048  0  0  0.131427  0.229167  0  3.899324  0
C  C64  1  0.10414713  0.58875704  0.14614595  1  0  0.219628  0  3.689482  0  0  0.218929  0  3.937939  0  0  0.222799  0  3.960776  0  0  0.12641  0.21601  0  3.922702  0
C  C65  1  0.58875257  0.10414470  0.64614605  1  0  0.219539  0  3.689569  0  0  0.218877  0  3.938005  0  0  0.222748  0  3.96084  0  0  0.126372  0.215951  0  3.922778  0
C  C66  1  0.29847315  0.59517830  0.14517984  1  0  0.223586  0  3.66971  0  0  0.224711  0  3.916143  0  0  0.228455  0  3.938428  0  0  0.126517  0.221833  0  3.901331  0
C  C67  1  0.59517370  0.29847021  0.64517934  1  0  0.223618  0  3.669609  0  0  0.224743  0  3.916037  0  0  0.228487  0  3.93832  0  0  0.126586  0.221865  0  3.901225  0
C  C68  1  0.27137745  0.44256084  0.00969851  1  0  0.220437  0  3.670965  0  0  0.221407  0  3.917602  0  0  0.225209  0  3.939885  0  0  0.12662  0.218451  0  3.902806  0
C  C69  1  0.44255600  0.27137290  0.50969861  1  0  0.220375  0  3.67124  0  0  0.221385  0  3.917821  0  0  0.225188  0  3.940106  0  0  0.126583  0.218436  0  3.903018  0
C  C70  1  0.95774816  0.34590364  0.93688974  1  0  -0.364584  0  3.69151  0  0  -0.445947  0  3.922486  0  0  -0.44989  0  3.932519  0  0  -0.241452  -0.442767  0  3.915548  0
C  C71  1  0.34589907  0.95774459  0.43688918  1  0  -0.364569  0  3.691641  0  0  -0.445953  0  3.922579  0  0  -0.449901  0  3.932623  0  0  -0.241439  -0.44278  0  3.915644  0
C  C72  1  0.01431528  0.66937815  0.22127093  1  0  -0.360776  0  3.700692  0  0  -0.444396  0  3.934173  0  0  -0.447598  0  3.94467  0  0  -0.239926  -0.441768  0  3.927076  0
C  C73  1  0.66937488  0.01431397  0.72126916  1  0  -0.360761  0  3.700718  0  0  -0.444391  0  3.934202  0  0  -0.447592  0  3.944694  0  0  -0.23992  -0.441761  0  3.927107  0
C  C74  1  0.41717771  0.68557656  0.21868598  1  0  -0.34508  0  3.689166  0  0  -0.42824  0  3.921309  0  0  -0.430706  0  3.931029  0  0  -0.238168  -0.426207  0  3.914776  0
C  C75  1  0.68557335  0.41717852  0.71868502  1  0  -0.345032  0  3.689049  0  0  -0.428215  0  3.921247  0  0  -0.430681  0  3.930962  0  0  -0.238143  -0.426179  0  3.914712  0
C  C76  1  0.36199487  0.36427519  0.93414055  1  0  -0.359863  0  3.683366  0  0  -0.441102  0  3.917854  0  0  -0.443885  0  3.92576  0  0  -0.235622  -0.438734  0  3.912504  0
C  C77  1  0.36427424  0.36199518  0.43414071  1  0  -0.359843  0  3.683475  0  0  -0.441095  0  3.917965  0  0  -0.443879  0  3.925875  0  0  -0.235628  -0.43873  0  3.912603  0
S  S78  1  0.75229331  0.21882162  0.27433933  1  0  1.284407  0  5.672436  0  0  1.188063  0  6.190618  0  0  1.235454  0  6.166676  0  0  0.49927  1.155436  0  6.206038  0
S  S79  1  0.21882020  0.75228568  0.77433772  1  0  1.284321  0  5.672514  0  0  1.187988  0  6.190703  0  0  1.235377  0  6.166753  0  0  0.499243  1.155348  0  6.206106  0
N  N80  1  0.99621633  0.50725704  0.07935272  1  0  -0.349465  0  3.238917  0  0  -0.274093  0  3.499872  0  0  -0.292527  0  3.520052  0  0  -0.3119  -0.261385  0  3.486142  0
N  N81  1  0.50725093  0.99621237  0.57935170  1  0  -0.349412  0  3.238973  0  0  -0.274054  0  3.499917  0  0  -0.292488  0  3.520097  0  0  -0.311902  -0.261345  0  3.486192  0
N  N82  1  0.37921052  0.52101567  0.07707663  1  0  -0.342235  0  3.213989  0  0  -0.268921  0  3.473847  0  0  -0.286525  0  3.492701  0  0  -0.313444  -0.256748  0  3.461055  0
N  N83  1  0.52101203  0.37920763  0.57707683  1  0  -0.342165  0  3.214068  0  0  -0.26888  0  3.47394  0  0  -0.286481  0  3.492788  0  0  -0.313444  -0.256705  0  3.461142  0
N  N84  1  0.72248656  0.74352411  0.88451180  1  0  -0.666773  0  3.108655  0  0  -0.624373  0  3.334045  0  0  -0.646197  0  3.336062  0  0  -0.598465  -0.608847  0  3.332252  0
N  N85  1  0.74351976  0.72248824  0.38451061  1  0  -0.666818  0  3.108739  0  0  -0.624361  0  3.334207  0  0  -0.646186  0  3.336227  0  0  -0.598512  -0.608833  0  3.332406  0
O  O86  1  0.63670453  0.34674497  0.22823236  1  0  -0.694771  0  2.017573  0  0  -0.634659  0  2.291121  0  0  -0.657024  0  2.275927  0  0  -0.354604  -0.618599  0  2.30072  0
O  O87  1  0.34674380  0.63669512  0.72823191  1  0  -0.694777  0  2.017592  0  0  -0.634689  0  2.291158  0  0  -0.65705  0  2.275963  0  0  -0.354595  -0.618641  0  2.30078  0
O  O88  1  0.85794865  0.31245681  0.34952158  1  0  -0.673748  0  1.940277  0  0  -0.624337  0  2.188414  0  0  -0.644066  0  2.174227  0  0  -0.349032  -0.610319  0  2.197602  0
O  O89  1  0.31245548  0.85794654  0.84951889  1  0  -0.673728  0  1.940376  0  0  -0.624311  0  2.188484  0  0  -0.644065  0  2.174348  0  0  -0.349029  -0.610285  0  2.197664  0
O  O90  1  0.64462087  0.05085423  0.29371013  1  0  -0.677577  0  1.980663  0  0  -0.618532  0  2.2253  0  0  -0.639982  0  2.213485  0  0  -0.341572  -0.603325  0  2.232806  0
O  O91  1  0.05085404  0.64461380  0.79370986  1  0  -0.677619  0  1.980694  0  0  -0.618556  0  2.225297  0  0  -0.64  0  2.213477  0  0  -0.341586  -0.603362  0  2.232824  0
