# generated using pymatgen
data_CaH8C14SO6
_symmetry_space_group_name_H-M   'P 1'
_cell_length_a   5.42558784
_cell_length_b   11.53603628
_cell_length_c   23.96876705
_cell_angle_alpha   105.50780315
_cell_angle_beta   90.00018667
_cell_angle_gamma   89.99680169
_symmetry_Int_Tables_number   1
_chemical_formula_structural   CaH8C14SO6
_chemical_formula_sum   'Ca4 H32 C56 S4 O24'
_cell_volume   1445.58360771
_cell_formula_units_Z   4
loop_
 _symmetry_equiv_pos_site_id
 _symmetry_equiv_pos_as_xyz
  1  'x, y, z'
loop_
 _atom_site_type_symbol
 _atom_site_label
 _atom_site_symmetry_multiplicity
 _atom_site_fract_x
 _atom_site_fract_y
 _atom_site_fract_z
 _atom_site_occupancy
 _atom_site_pbe_bader_charge
 _atom_site_pbe_bader_spin_density
 _atom_site_pbe_cm5_charge
 _atom_site_pbe_ddec_charge
 _atom_site_pbe_ddec_spin_density
 _atom_site_pbe_ddec_sum_bond_order
 _atom_site_pbe_magmom
Ca  Ca0  1  0.30163642  0.38553519  0.94971391  1  1.65545  0  0.926373  1.433887  0  1.487976  0
Ca  Ca1  1  0.80163765  0.11445555  0.55028930  1  1.655327  0  0.926472  1.43379  0  1.488236  0
Ca  Ca2  1  0.69839862  0.61447115  0.05028484  1  1.655439  0  0.926353  1.433821  0  1.488137  0
Ca  Ca3  1  0.19835316  0.88554455  0.44972004  1  1.65542  0  0.926456  1.433697  0  1.48843  0
H  H4  1  0.98167027  0.87746592  0.97794944  1  0.103632  0  0.108192  0.107165  0  1.038561  0
H  H5  1  0.12809315  0.04587679  0.93843441  1  0.109242  0  0.112621  0.121564  0  1.04721  0
H  H6  1  0.76795795  0.83654392  0.86749987  1  0.087881  0  0.108324  0.113043  0  0.998563  0
H  H7  1  0.62638432  0.67239617  0.91025117  1  0.14425  0  0.118029  0.118694  0  1.00968  0
H  H8  1  0.13255322  0.17123970  0.83498809  1  0.141749  0  0.117493  0.118222  0  1.026807  0
H  H9  1  0.02559351  0.17441917  0.73394590  1  0.111455  0  0.105072  0.107557  0  1.028621  0
H  H10  1  0.68441790  0.97588651  0.67036544  1  0.115165  0  0.112462  0.113131  0  1.00999  0
H  H11  1  0.78635010  0.96442655  0.77055845  1  0.100488  0  0.107983  0.11288  0  0.999048  0
H  H12  1  0.48158076  0.62255692  0.52205852  1  0.103559  0  0.108176  0.107381  0  1.038428  0
H  H13  1  0.62800195  0.45412987  0.56156648  1  0.108468  0  0.112449  0.12135  0  1.047227  0
H  H14  1  0.26781128  0.66344140  0.63251450  1  0.088369  0  0.10835  0.113074  0  0.998693  0
H  H15  1  0.12625246  0.82759595  0.58976821  1  0.144897  0  0.118093  0.118745  0  1.009669  0
H  H16  1  0.63252892  0.32873471  0.66500130  1  0.14121  0  0.117492  0.118133  0  1.026747  0
H  H17  1  0.52556896  0.32555552  0.76604525  1  0.111722  0  0.105068  0.107569  0  1.028532  0
H  H18  1  0.18433533  0.52409814  0.82962553  1  0.115928  0  0.112527  0.113377  0  1.009953  0
H  H19  1  0.28625570  0.53554944  0.72943526  1  0.100532  0  0.107913  0.112849  0  0.999324  0
H  H20  1  0.01835003  0.12252496  0.02204552  1  0.103559  0  0.108166  0.10726  0  1.038403  0
H  H21  1  0.87192531  0.95411416  0.06156139  1  0.109129  0  0.112571  0.121513  0  1.047101  0
H  H22  1  0.23207156  0.16345889  0.13249933  1  0.087935  0  0.108336  0.113159  0  0.998438  0
H  H23  1  0.37365256  0.32760301  0.08974721  1  0.143371  0  0.118026  0.11865  0  1.009805  0
H  H24  1  0.86743759  0.82876340  0.16501448  1  0.141523  0  0.117483  0.11823  0  1.026759  0
H  H25  1  0.97438255  0.82558857  0.26605886  1  0.111613  0  0.105091  0.107523  0  1.028582  0
H  H26  1  0.31554342  0.02412440  0.32963466  1  0.114783  0  0.112456  0.113073  0  1.010083  0
H  H27  1  0.21363334  0.03556976  0.22943753  1  0.100394  0  0.107987  0.112908  0  0.999005  0
H  H28  1  0.51839531  0.37744934  0.47794982  1  0.103447  0  0.108186  0.107372  0  1.038301  0
H  H29  1  0.37196490  0.54586808  0.43843845  1  0.109148  0  0.112514  0.121471  0  1.047219  0
H  H30  1  0.73215188  0.33655662  0.36749127  1  0.088083  0  0.108408  0.113192  0  0.998634  0
H  H31  1  0.87372361  0.17240388  0.41023776  1  0.144748  0  0.118029  0.118647  0  1.00974  0
H  H32  1  0.36745267  0.67127529  0.33499870  1  0.141241  0  0.117548  0.118234  0  1.026803  0
H  H33  1  0.47442738  0.67444827  0.23395489  1  0.111837  0  0.105103  0.10762  0  1.028481  0
H  H34  1  0.81567207  0.47588921  0.17036988  1  0.115361  0  0.112552  0.113399  0  1.009801  0
H  H35  1  0.71376460  0.46443353  0.27056091  1  0.100476  0  0.108001  0.112968  0  0.999307  0
C  C36  1  0.20558116  0.67179964  0.97517819  1  1.609897  0  0.249139  0.632812  0  4.181804  0
C  C37  1  0.29605527  0.76645307  0.94723087  1  -0.067728  0  -0.000781  -0.027239  0  3.928395  0
C  C38  1  0.15453969  0.87070124  0.95439080  1  0.023841  0  -0.078267  -0.084439  0  3.955781  0
C  C39  1  0.23439762  0.96379765  0.93231160  1  0.021483  0  -0.082386  -0.090147  0  3.981813  0
C  C40  1  0.45495290  0.95047980  0.90132015  1  -0.257513  0  -0.01981  -0.083418  0  3.983308  0
C  C41  1  0.59520783  0.84502035  0.89143402  1  -0.008602  0  -0.079109  -0.089233  0  3.974847  0
C  C42  1  0.51594884  0.75337858  0.91526673  1  -0.038695  0  -0.06865  -0.080164  0  3.922135  0
C  C43  1  0.46433913  0.06698470  0.80804590  1  -0.205265  0  -0.021442  -0.09586  0  3.994476  0
C  C44  1  0.24992712  0.12654354  0.79883715  1  -0.086975  0  -0.072419  -0.079102  0  3.966832  0
C  C45  1  0.19108829  0.12858552  0.74256165  1  0.038985  0  -0.07749  -0.087922  0  3.940517  0
C  C46  1  0.34775050  0.07513535  0.69640073  1  -0.071717  0  -0.002014  -0.018096  0  3.921082  0
C  C47  1  0.29034301  0.08833759  0.63667616  1  1.636287  0  0.232171  0.625992  0  4.210877  0
C  C48  1  0.56077655  0.01470455  0.70635036  1  -0.057061  0  -0.075909  -0.08829  0  3.948841  0
C  C49  1  0.61840286  0.00877788  0.76214806  1  -0.011211  0  -0.082083  -0.091914  0  3.993532  0
C  C50  1  0.70551402  0.82820566  0.52482131  1  1.610975  0  0.249158  0.632813  0  4.181537  0
C  C51  1  0.79595856  0.73354582  0.55278415  1  -0.070073  0  -0.000891  -0.02732  0  3.928316  0
C  C52  1  0.65443016  0.62931600  0.54561840  1  0.024736  0  -0.078047  -0.08443  0  3.955569  0
C  C53  1  0.73429685  0.53621083  0.56769241  1  0.022276  0  -0.082257  -0.089607  0  3.981736  0
C  C54  1  0.95483847  0.54951898  0.59867933  1  -0.258252  0  -0.019926  -0.084012  0  3.984079  0
C  C55  1  0.09508548  0.65497980  0.60857583  1  -0.009903  0  -0.079028  -0.089122  0  3.975958  0
C  C56  1  0.01583629  0.74662316  0.58474793  1  -0.037776  0  -0.068823  -0.080276  0  3.922816  0
C  C57  1  0.96432272  0.43301733  0.69195137  1  -0.205307  0  -0.021379  -0.095649  0  3.994729  0
C  C58  1  0.74989825  0.37343974  0.70115650  1  -0.087055  0  -0.072417  -0.079184  0  3.966476  0
C  C59  1  0.69106136  0.37139551  0.75742927  1  0.038639  0  -0.077499  -0.087861  0  3.940224  0
C  C60  1  0.84773846  0.42486105  0.80359932  1  -0.071453  0  -0.001872  -0.018045  0  3.92115  0
C  C61  1  0.79029204  0.41163985  0.86331348  1  1.636081  0  0.232231  0.626211  0  4.210655  0
C  C62  1  0.06071931  0.48528902  0.79364327  1  -0.056878  0  -0.076072  -0.08875  0  3.949446  0
C  C63  1  0.11834872  0.49121647  0.73784103  1  -0.011852  0  -0.081929  -0.091647  0  3.99416  0
C  C64  1  0.79444651  0.32819304  0.02481697  1  1.610814  0  0.249283  0.633152  0  4.181688  0
C  C65  1  0.70396871  0.23354148  0.05276533  1  -0.069452  0  -0.000865  -0.027174  0  3.928836  0
C  C66  1  0.84547139  0.12930280  0.04560186  1  0.024837  0  -0.078108  -0.084553  0  3.955595  0
C  C67  1  0.76560056  0.03619510  0.06768441  1  0.021855  0  -0.082389  -0.090039  0  3.981533  0
C  C68  1  0.54507661  0.04951547  0.09867404  1  -0.257781  0  -0.019821  -0.083511  0  3.983553  0
C  C69  1  0.40482537  0.15498671  0.10856273  1  -0.008776  0  -0.079087  -0.089343  0  3.975043  0
C  C70  1  0.48408436  0.24661957  0.08472987  1  -0.037401  0  -0.068749  -0.080207  0  3.922596  0
C  C71  1  0.53564614  0.93302473  0.19195779  1  -0.205043  0  -0.021317  -0.095672  0  3.994814  0
C  C72  1  0.75006553  0.87346225  0.20116572  1  -0.087101  0  -0.072591  -0.079366  0  3.967036  0
C  C73  1  0.80889146  0.87142200  0.25744058  1  0.039232  0  -0.077359  -0.087649  0  3.940446  0
C  C74  1  0.65222741  0.92487117  0.30360013  1  -0.072137  0  -0.002109  -0.018095  0  3.921155  0
C  C75  1  0.70963121  0.91167450  0.36332740  1  1.635866  0  0.23188  0.625416  0  4.211321  0
C  C76  1  0.43920688  0.98530176  0.29364797  1  -0.056298  0  -0.07591  -0.088278  0  3.948785  0
C  C77  1  0.38158611  0.99122347  0.23784430  1  -0.011302  0  -0.08208  -0.091952  0  3.993957  0
C  C78  1  0.29447494  0.17179380  0.47518044  1  1.610826  0  0.249363  0.633308  0  4.181717  0
C  C79  1  0.20402304  0.26644173  0.44722422  1  -0.070002  0  -0.001118  -0.027392  0  3.928322  0
C  C80  1  0.34553669  0.37068648  0.45438745  1  0.025056  0  -0.078057  -0.084558  0  3.955046  0
C  C81  1  0.26567737  0.46379593  0.43231140  1  0.021551  0  -0.082326  -0.089846  0  3.981811  0
C  C82  1  0.04514681  0.45047164  0.40132312  1  -0.258689  0  -0.019871  -0.083628  0  3.984058  0
C  C83  1  0.90489427  0.34502406  0.39142516  1  -0.008588  0  -0.079125  -0.089408  0  3.975864  0
C  C84  1  0.98415268  0.25337656  0.41525678  1  -0.038465  0  -0.068674  -0.080126  0  3.922435  0
C  C85  1  0.03568468  0.56698067  0.30804354  1  -0.205587  0  -0.021202  -0.095305  0  3.994736  0
C  C86  1  0.25009809  0.62656502  0.29884458  1  -0.087287  0  -0.072549  -0.079494  0  3.966936  0
C  C87  1  0.30894051  0.62860590  0.24257436  1  0.038486  0  -0.077467  -0.087776  0  3.939919  0
C  C88  1  0.15227815  0.57513422  0.19639487  1  -0.071267  0  -0.002023  -0.018245  0  3.920832  0
C  C89  1  0.20972641  0.58835671  0.13668545  1  1.636125  0  0.232136  0.626286  0  4.210839  0
C  C90  1  0.93930836  0.51470585  0.20635672  1  -0.056394  0  -0.076004  -0.088635  0  3.948784  0
C  C91  1  0.88166605  0.50877587  0.26216077  1  -0.011434  0  -0.08221  -0.092061  0  3.994388  0
S  S92  1  0.56088574  0.07798839  0.87995216  1  2.389089  0  0.501418  1.001924  0  5.672399  0
S  S93  1  0.06084051  0.42198725  0.62005077  1  2.390476  0  0.501204  1.001622  0  5.672797  0
S  S94  1  0.43911429  0.92200903  0.12004645  1  2.38915  0  0.501334  1.001792  0  5.672056  0
S  S95  1  0.93914477  0.57800575  0.37994818  1  2.389812  0  0.501372  1.001588  0  5.67224  0
O  O96  1  0.36425100  0.59452792  0.98278310  1  -1.249261  0  -0.40943  -0.699435  0  2.283147  0
O  O97  1  0.98173676  0.67409238  0.98912914  1  -1.207852  0  -0.343777  -0.60816  0  2.210209  0
O  O98  1  0.43105058  0.18019933  0.91755702  1  -1.345045  0  -0.338883  -0.577488  0  2.305313  0
O  O99  1  0.82796656  0.07665622  0.88012231  1  -1.240726  0  -0.291812  -0.513124  0  2.226455  0
O  O100  1  0.06562360  0.09969366  0.62493151  1  -1.208931  0  -0.369882  -0.640244  0  2.219868  0
O  O101  1  0.47220665  0.08868314  0.60348824  1  -1.232265  0  -0.385215  -0.652538  0  2.230369  0
O  O102  1  0.86419597  0.90546236  0.51721424  1  -1.249211  0  -0.409402  -0.699292  0  2.283301  0
O  O103  1  0.48164513  0.82592393  0.51086474  1  -1.208225  0  -0.343887  -0.608325  0  2.210206  0
O  O104  1  0.93100835  0.31978891  0.58243541  1  -1.34525  0  -0.338846  -0.577367  0  2.305345  0
O  O105  1  0.32790642  0.42332683  0.61987168  1  -1.241069  0  -0.291637  -0.51291  0  2.226569  0
O  O106  1  0.56557996  0.40028332  0.87505695  1  -1.209036  0  -0.369983  -0.64042  0  2.219865  0
O  O107  1  0.97215488  0.41130506  0.89650583  1  -1.231983  0  -0.385172  -0.65265  0  2.229866  0
O  O108  1  0.63578404  0.40547108  0.01721317  1  -1.249253  0  -0.409487  -0.69957  0  2.282972  0
O  O109  1  0.01828723  0.32590562  0.01086577  1  -1.2083  0  -0.343763  -0.608326  0  2.210374  0
O  O110  1  0.56896972  0.81979823  0.08244327  1  -1.345072  0  -0.338842  -0.577422  0  2.305284  0
O  O111  1  0.17203899  0.92334440  0.11987205  1  -1.240722  0  -0.291777  -0.513075  0  2.226547  0
O  O112  1  0.93436168  0.90033184  0.37507270  1  -1.208334  0  -0.369646  -0.639977  0  2.219859  0
O  O113  1  0.52776757  0.91131723  0.39651361  1  -1.232415  0  -0.385115  -0.652249  0  2.23065  0
O  O114  1  0.13580958  0.09453908  0.48278982  1  -1.249314  0  -0.409452  -0.699512  0  2.283302  0
O  O115  1  0.51832909  0.17407726  0.48913637  1  -1.208019  0  -0.343921  -0.60853  0  2.21034  0
O  O116  1  0.06897324  0.68021052  0.41756592  1  -1.345046  0  -0.338881  -0.577419  0  2.305258  0
O  O117  1  0.67207149  0.57666257  0.38012687  1  -1.24058  0  -0.291747  -0.512988  0  2.226586  0
O  O118  1  0.43443481  0.59971317  0.12494114  1  -1.209222  0  -0.369885  -0.64038  0  2.21982  0
O  O119  1  0.02787463  0.58869136  0.10349142  1  -1.231752  0  -0.385092  -0.652624  0  2.230043  0
