# generated using pymatgen
data_CuH7C6NCl
_symmetry_space_group_name_H-M   'P 1'
_cell_length_a   5.51864032
_cell_length_b   7.32243374
_cell_length_c   16.92513132
_cell_angle_alpha   90.00001366
_cell_angle_beta   90.00052500
_cell_angle_gamma   90.00052681
_symmetry_Int_Tables_number   1
_chemical_formula_structural   CuH7C6NCl
_chemical_formula_sum   'Cu4 H28 C24 N4 Cl4'
_cell_volume   683.94249290
_cell_formula_units_Z   4
loop_
 _symmetry_equiv_pos_site_id
 _symmetry_equiv_pos_as_xyz
  1  'x, y, z'
loop_
 _atom_site_type_symbol
 _atom_site_label
 _atom_site_symmetry_multiplicity
 _atom_site_fract_x
 _atom_site_fract_y
 _atom_site_fract_z
 _atom_site_occupancy
 _atom_site_hle17_bader_spin_density
 _atom_site_hle17_ddec_charge
 _atom_site_hle17_ddec_spin_density
 _atom_site_hle17_ddec_sum_bond_order
 _atom_site_hle17_magmom
 _atom_site_hse06_10hf_bader_spin_density
 _atom_site_hse06_10hf_ddec_charge
 _atom_site_hse06_10hf_ddec_spin_density
 _atom_site_hse06_10hf_ddec_sum_bond_order
 _atom_site_hse06_10hf_magmom
 _atom_site_hse06_bader_spin_density
 _atom_site_hse06_ddec_charge
 _atom_site_hse06_ddec_spin_density
 _atom_site_hse06_ddec_sum_bond_order
 _atom_site_hse06_magmom
 _atom_site_pbe_bader_spin_density
 _atom_site_pbe_cm5_charge
 _atom_site_pbe_ddec_charge
 _atom_site_pbe_ddec_spin_density
 _atom_site_pbe_ddec_sum_bond_order
 _atom_site_pbe_magmom
Cu  Cu0  1  0.04395441  0.59398844  0.32416662  1  0  0.589364  0  2.100809  0  0  0.560194  0  2.552564  0  0  0.549685  0  2.52223  0  0  0.509434  0.56877  0  2.571741  0
Cu  Cu1  1  0.95605965  0.90598642  0.82416323  1  0  0.589358  0  2.100705  0  0  0.560171  0  2.552466  0  0  0.549683  0  2.522137  0  0  0.509394  0.56874  0  2.571635  0
Cu  Cu2  1  0.45605525  0.09398951  0.67583606  1  0  0.589341  0  2.100782  0  0  0.560159  0  2.552549  0  0  0.549696  0  2.522226  0  0  0.509439  0.568736  0  2.571708  0
Cu  Cu3  1  0.54394260  0.40601183  0.17583895  1  0  0.589401  0  2.100823  0  0  0.560235  0  2.552548  0  0  0.549748  0  2.522225  0  0  0.509467  0.568813  0  2.57173  0
H  H4  1  0.33917178  0.28706152  0.45279831  1  0  0.140936  0  0.943073  0  0  0.149342  0  1.004355  0  0  0.152866  0  1.00369  0  0  0.110722  0.146762  0  1.005051  0
H  H5  1  0.66085767  0.21295479  0.95278318  1  0  0.141031  0  0.942955  0  0  0.149447  0  1.004185  0  0  0.15303  0  1.003446  0  0  0.110815  0.146858  0  1.004891  0
H  H6  1  0.16084731  0.78705034  0.54721032  1  0  0.140856  0  0.943022  0  0  0.149275  0  1.004307  0  0  0.152859  0  1.00357  0  0  0.110682  0.146683  0  1.005014  0
H  H7  1  0.83912066  0.71292730  0.04720831  1  0  0.14094  0  0.942969  0  0  0.149378  0  1.004215  0  0  0.152915  0  1.003531  0  0  0.110729  0.146778  0  1.004938  0
H  H8  1  0.72639522  0.41910101  0.65847128  1  0  0.120277  0  0.966291  0  0  0.140476  0  1.03045  0  0  0.143195  0  1.029271  0  0  0.090893  0.138288  0  1.031544  0
H  H9  1  0.27360224  0.08092355  0.15845245  1  0  0.12028  0  0.966093  0  0  0.140468  0  1.030288  0  0  0.143199  0  1.029089  0  0  0.090847  0.138276  0  1.031382  0
H  H10  1  0.77359450  0.91907570  0.34153031  1  0  0.120166  0  0.966115  0  0  0.140369  0  1.030312  0  0  0.143096  0  1.029122  0  0  0.090816  0.138178  0  1.031404  0
H  H11  1  0.22638735  0.58090325  0.84154254  1  0  0.120184  0  0.966197  0  0  0.140379  0  1.030378  0  0  0.143103  0  1.029192  0  0  0.090856  0.138188  0  1.031468  0
H  H12  1  0.56306599  0.61930296  0.63484992  1  0  0.134401  0  0.943553  0  0  0.156933  0  0.999565  0  0  0.158565  0  1.000718  0  0  0.09532  0.155626  0  0.998903  0
H  H13  1  0.43695469  0.88070334  0.13483293  1  0  0.134248  0  0.943871  0  0  0.156835  0  0.999791  0  0  0.158466  0  1.000947  0  0  0.095333  0.155528  0  0.999128  0
H  H14  1  0.93693846  0.11929167  0.36515455  1  0  0.134264  0  0.943683  0  0  0.156879  0  0.999605  0  0  0.158512  0  1.000761  0  0  0.095339  0.15557  0  0.998932  0
H  H15  1  0.06305459  0.38068915  0.86515800  1  0  0.13434  0  0.943538  0  0  0.156865  0  0.999566  0  0  0.158496  0  1.000726  0  0  0.095317  0.155559  0  0.998892  0
H  H16  1  0.79814810  0.54210547  0.57077875  1  0  0.113452  0  0.964149  0  0  0.135195  0  1.021493  0  0  0.136386  0  1.022935  0  0  0.08945  0.134336  0  1.020504  0
H  H17  1  0.20186570  0.95790221  0.07074675  1  0  0.113381  0  0.96398  0  0  0.135113  0  1.021344  0  0  0.136302  0  1.022781  0  0  0.08941  0.134255  0  1.020354  0
H  H18  1  0.70183918  0.04209514  0.42923102  1  0  0.113432  0  0.963944  0  0  0.135129  0  1.021362  0  0  0.136322  0  1.022795  0  0  0.089435  0.134267  0  1.020375  0
H  H19  1  0.29811726  0.45789796  0.92924065  1  0  0.113465  0  0.964093  0  0  0.135174  0  1.021489  0  0  0.136367  0  1.022924  0  0  0.089434  0.134314  0  1.020503  0
H  H20  1  0.13946778  0.22305472  0.57304694  1  0  0.098614  0  0.955126  0  0  0.110631  0  1.01516  0  0  0.11238  0  1.015429  0  0  0.099633  0.109415  0  1.014998  0
H  H21  1  0.86050963  0.27697259  0.07304444  1  0  0.098757  0  0.955795  0  0  0.110737  0  1.015812  0  0  0.11248  0  1.016093  0  0  0.099706  0.109516  0  1.015659  0
H  H22  1  0.36052159  0.72305325  0.42695518  1  0  0.09872  0  0.955373  0  0  0.110699  0  1.015419  0  0  0.112448  0  1.015688  0  0  0.09969  0.109476  0  1.015265  0
H  H23  1  0.63943499  0.77694480  0.92695594  1  0  0.09875  0  0.955125  0  0  0.110677  0  1.01527  0  0  0.112415  0  1.015565  0  0  0.099688  0.109493  0  1.015072  0
H  H24  1  0.06696264  0.26579569  0.71590656  1  0  0.13886  0  0.998543  0  0  0.145644  0  1.069919  0  0  0.148942  0  1.06647  0  0  0.08488  0.143288  0  1.072394  0
H  H25  1  0.93305604  0.23422067  0.21590608  1  0  0.138892  0  0.998439  0  0  0.145684  0  1.069813  0  0  0.148986  0  1.066359  0  0  0.084879  0.143326  0  1.072287  0
H  H26  1  0.43305621  0.76579070  0.28409379  1  0  0.138863  0  0.998477  0  0  0.145649  0  1.069863  0  0  0.14895  0  1.066406  0  0  0.08488  0.143291  0  1.072343  0
H  H27  1  0.56695696  0.73418826  0.78409428  1  0  0.138935  0  0.998593  0  0  0.145711  0  1.069942  0  0  0.149009  0  1.06649  0  0  0.084923  0.143355  0  1.072413  0
H  H28  1  0.33870623  0.41465977  0.72350110  1  0  0.138104  0  0.96047  0  0  0.152999  0  1.017933  0  0  0.154394  0  1.017615  0  0  0.095721  0.151968  0  1.018269  0
H  H29  1  0.66129994  0.08533063  0.22348779  1  0  0.138218  0  0.960277  0  0  0.153015  0  1.01784  0  0  0.154411  0  1.017525  0  0  0.095758  0.151982  0  1.018178  0
H  H30  1  0.16129618  0.91467188  0.27649988  1  0  0.13815  0  0.960238  0  0  0.153093  0  1.017669  0  0  0.15446  0  1.017386  0  0  0.095741  0.15206  0  1.018008  0
H  H31  1  0.83870232  0.58532211  0.77651313  1  0  0.138253  0  0.960491  0  0  0.153099  0  1.01799  0  0  0.154496  0  1.017669  0  0  0.095764  0.152067  0  1.018327  0
C  C32  1  0.66571301  0.43292271  0.43793640  1  0  0.372316  0  3.802019  0  0  0.367812  0  4.067579  0  0  0.383036  0  4.081906  0  0  0.200492  0.357287  0  4.058439  0
C  C33  1  0.33431248  0.06707721  0.93791652  1  0  0.372407  0  3.801635  0  0  0.367898  0  4.067201  0  0  0.383124  0  4.081545  0  0  0.200464  0.357365  0  4.058064  0
C  C34  1  0.83430223  0.93291829  0.56207051  1  0  0.37229  0  3.801409  0  0  0.367802  0  4.066997  0  0  0.383031  0  4.081349  0  0  0.200489  0.35727  0  4.05785  0
C  C35  1  0.16567695  0.56709349  0.06207315  1  0  0.372352  0  3.801641  0  0  0.367847  0  4.067228  0  0  0.383076  0  4.081563  0  0  0.200363  0.357318  0  4.058085  0
C  C36  1  0.47754905  0.36400776  0.48477350  1  0  -0.270908  0  3.771391  0  0  -0.295004  0  4.024844  0  0  -0.306243  0  4.039637  0  0  -0.100016  -0.287443  0  4.015197  0
C  C37  1  0.52249381  0.13601401  0.98476731  1  0  -0.271175  0  3.771234  0  0  -0.295259  0  4.024682  0  0  -0.306541  0  4.039437  0  0  -0.100187  -0.287689  0  4.01505  0
C  C38  1  0.02247634  0.86399966  0.51522805  1  0  -0.270817  0  3.771057  0  0  -0.294932  0  4.024526  0  0  -0.306222  0  4.039291  0  0  -0.100007  -0.287354  0  4.014881  0
C  C39  1  0.97752171  0.63599711  0.01524011  1  0  -0.270815  0  3.7715  0  0  -0.294918  0  4.024881  0  0  -0.306164  0  4.039657  0  0  -0.100007  -0.287345  0  4.015249  0
C  C40  1  0.46690615  0.38647428  0.56514510  1  0  0.218623  0  3.738596  0  0  0.237471  0  3.982723  0  0  0.24912  0  3.999382  0  0  0.013011  0.229245  0  3.971326  0
C  C41  1  0.53314900  0.11355439  0.06512720  1  0  0.218693  0  3.739312  0  0  0.237547  0  3.983422  0  0  0.249181  0  4.000102  0  0  0.013026  0.229326  0  3.972018  0
C  C42  1  0.03312493  0.88646218  0.43485588  1  0  0.218586  0  3.739069  0  0  0.237422  0  3.983214  0  0  0.249066  0  3.999892  0  0  0.012999  0.229194  0  3.97181  0
C  C43  1  0.96688801  0.61353040  0.93486959  1  0  0.218415  0  3.738519  0  0  0.237311  0  3.98263  0  0  0.248961  0  3.999287  0  0  0.013061  0.229086  0  3.971227  0
C  C44  1  0.64961895  0.49762790  0.60912205  1  0  -0.358098  0  3.683697  0  0  -0.432535  0  3.904294  0  0  -0.438333  0  3.912329  0  0  -0.244843  -0.428172  0  3.898873  0
C  C45  1  0.35041364  0.00239531  0.10909875  1  0  -0.357807  0  3.683337  0  0  -0.432289  0  3.903982  0  0  -0.438094  0  3.912044  0  0  -0.244693  -0.427905  0  3.898532  0
C  C46  1  0.85039521  0.99760451  0.39088665  1  0  -0.357777  0  3.683406  0  0  -0.432264  0  3.904057  0  0  -0.438063  0  3.912095  0  0  -0.244762  -0.42788  0  3.898615  0
C  C47  1  0.14960224  0.50237442  0.89088972  1  0  -0.357904  0  3.683479  0  0  -0.432336  0  3.904118  0  0  -0.438135  0  3.912157  0  0  -0.244814  -0.427953  0  3.898674  0
C  C48  1  0.27225674  0.29770389  0.60845902  1  0  -0.135653  0  3.797615  0  0  -0.153069  0  4.075997  0  0  -0.155487  0  4.087761  0  0  -0.140589  -0.15131  0  4.06777  0
C  C49  1  0.72775589  0.20233161  0.10843298  1  0  -0.135757  0  3.798215  0  0  -0.153156  0  4.076534  0  0  -0.155571  0  4.088291  0  0  -0.140658  -0.151393  0  4.068316  0
C  C50  1  0.22774797  0.79769051  0.39155256  1  0  -0.135575  0  3.798411  0  0  -0.152987  0  4.076807  0  0  -0.155399  0  4.088545  0  0  -0.140547  -0.151221  0  4.068586  0
C  C51  1  0.77222594  0.70229525  0.89154728  1  0  -0.135642  0  3.797314  0  0  -0.153044  0  4.075823  0  0  -0.155456  0  4.087576  0  0  -0.140589  -0.151313  0  4.067592  0
C  C52  1  0.23297816  0.31759056  0.68897591  1  0  -0.267464  0  3.626116  0  0  -0.327796  0  3.907855  0  0  -0.31906  0  3.908483  0  0  -0.227387  -0.333707  0  3.90749  0
C  C53  1  0.76701636  0.18242716  0.18896477  1  0  -0.267799  0  3.625736  0  0  -0.328052  0  3.907547  0  0  -0.319306  0  3.908155  0  0  -0.22752  -0.333959  0  3.907191  0
C  C54  1  0.26701590  0.81758160  0.31103805  1  0  -0.267713  0  3.626132  0  0  -0.328077  0  3.907879  0  0  -0.319299  0  3.908512  0  0  -0.227489  -0.333988  0  3.907523  0
C  C55  1  0.73296525  0.68239326  0.81102671  1  0  -0.267711  0  3.626218  0  0  -0.327973  0  3.907952  0  0  -0.319224  0  3.908564  0  0  -0.227475  -0.333882  0  3.907595  0
N  N56  1  0.82284212  0.48442803  0.39715946  1  0  -0.456921  0  3.054313  0  0  -0.429743  0  3.366239  0  0  -0.436395  0  3.366402  0  0  -0.383781  -0.426311  0  3.366603  0
N  N57  1  0.17717701  0.01555141  0.89714609  1  0  -0.456947  0  3.054518  0  0  -0.429764  0  3.366459  0  0  -0.436419  0  3.366622  0  0  -0.383744  -0.426323  0  3.366814  0
N  N58  1  0.67714470  0.98443336  0.60284510  1  0  -0.456978  0  3.053944  0  0  -0.42981  0  3.365915  0  0  -0.43647  0  3.366085  0  0  -0.383836  -0.426372  0  3.366268  0
N  N59  1  0.32281908  0.51557022  0.10285420  1  0  -0.457022  0  3.053761  0  0  -0.429861  0  3.365729  0  0  -0.436512  0  3.365896  0  0  -0.383725  -0.426431  0  3.3661  0
Cl  Cl60  1  0.80361708  0.65556371  0.21327608  1  0  -0.57585  0  1.18257  0  0  -0.518478  0  1.500946  0  0  -0.533015  0  1.477786  0  0  -0.292918  -0.507976  0  1.516164  0
Cl  Cl61  1  0.19637275  0.84442892  0.71326582  1  0  -0.575902  0  1.182458  0  0  -0.518503  0  1.50077  0  0  -0.533052  0  1.477622  0  0  -0.292939  -0.508008  0  1.51598  0
Cl  Cl62  1  0.69638416  0.15554643  0.78672958  1  0  -0.575861  0  1.182535  0  0  -0.518482  0  1.500901  0  0  -0.533019  0  1.477733  0  0  -0.292883  -0.507985  0  1.516106  0
Cl  Cl63  1  0.30362524  0.34443577  0.28672982  1  0  -0.575817  0  1.182532  0  0  -0.51843  0  1.500879  0  0  -0.532972  0  1.477727  0  0  -0.292892  -0.507928  0  1.516094  0
