# generated using pymatgen
data_CuH12C14N4O5
_symmetry_space_group_name_H-M   'P 1'
_cell_length_a   7.83005384
_cell_length_b   8.09328868
_cell_length_c   12.07220804
_cell_angle_alpha   102.74710189
_cell_angle_beta   106.12598296
_cell_angle_gamma   94.00195046
_symmetry_Int_Tables_number   1
_chemical_formula_structural   CuH12C14N4O5
_chemical_formula_sum   'Cu2 H24 C28 N8 O10'
_cell_volume   709.76332380
_cell_formula_units_Z   2
loop_
 _symmetry_equiv_pos_site_id
 _symmetry_equiv_pos_as_xyz
  1  'x, y, z'
loop_
 _atom_site_type_symbol
 _atom_site_label
 _atom_site_symmetry_multiplicity
 _atom_site_fract_x
 _atom_site_fract_y
 _atom_site_fract_z
 _atom_site_occupancy
 _atom_site_hle17_ddec_charge
 _atom_site_hle17_ddec_spin_density
 _atom_site_hle17_ddec_sum_bond_order
 _atom_site_hle17_magmom
 _atom_site_hse06_10hf_ddec_charge
 _atom_site_hse06_10hf_ddec_spin_density
 _atom_site_hse06_10hf_ddec_sum_bond_order
 _atom_site_hse06_10hf_magmom
 _atom_site_hse06_ddec_charge
 _atom_site_hse06_ddec_spin_density
 _atom_site_hse06_ddec_sum_bond_order
 _atom_site_hse06_magmom
 _atom_site_pbe_cm5_charge
 _atom_site_pbe_ddec_charge
 _atom_site_pbe_ddec_spin_density
 _atom_site_pbe_ddec_sum_bond_order
 _atom_site_pbe_magmom
Cu  Cu0  1  0.36640096  0.33294086  0.47111605  1  0.900352  0.568739  1.78312  0.418  0.918513  0.745974  2.182208  0.595  1.029073  0.840506  2.087044  0.694  0.731676  0.8527  0.664061  2.242659  0.52
Cu  Cu1  1  0.63359958  0.66705822  0.52888274  1  0.900499  -0.568772  1.783146  -0.418  0.918501  -0.745985  2.182319  -0.595  1.029035  -0.840503  2.087117  -0.694  0.731665  0.852673  -0.664053  2.242726  -0.52
H  H2  1  0.41096354  0.79497361  0.31957284  1  0.107983  0.000418  0.940168  0.0  0.113528  0.000516  1.008637  0.0  0.117021  0.000427  1.004448  0.0  0.107156  0.110511  0.000561  1.012441  0.0
H  H3  1  0.58903475  0.20502801  0.68042843  1  0.107951  -0.000412  0.940206  0.0  0.113509  -0.000515  1.008658  0.0  0.117  -0.000427  1.004472  0.0  0.107156  0.11049  -0.000562  1.012467  0.0
H  H4  1  0.38227476  0.50536780  0.18950824  1  0.102562  -0.0  0.97196  0.0  0.112172  7e-06  1.033691  0.0  0.114549  4e-06  1.033761  0.0  0.105614  0.110403  1e-05  1.033849  0.0
H  H5  1  0.61772730  0.49463256  0.81049102  1  0.102563  1.2e-05  0.972009  0.0  0.112168  -7e-06  1.033742  0.0  0.114543  -4e-06  1.033822  0.0  0.105603  0.110401  -1e-05  1.033902  0.0
H  H6  1  0.11200927  0.68802386  0.88469815  1  0.100816  0.000124  0.97489  0.0  0.110852  0.000124  1.036602  0.0  0.114165  8e-05  1.034204  0.0  0.104818  0.108355  0.000155  1.038501  0.0
H  H7  1  0.88798769  0.31197777  0.11530206  1  0.100823  -0.000111  0.974886  0.0  0.110863  -0.000123  1.036584  0.0  0.114176  -8e-05  1.034188  0.0  0.104821  0.108366  -0.000155  1.038484  0.0
H  H8  1  0.13006300  0.96980948  0.01738228  1  0.096598  -1.2e-05  0.981377  0.0  0.104592  6e-06  1.047424  0.0  0.107777  3e-06  1.045442  0.0  0.10086  0.102318  1.1e-05  1.048821  0.0
H  H9  1  0.86993813  0.03019342  0.98261886  1  0.096635  1e-05  0.98133  0.0  0.104607  -6e-06  1.047399  0.0  0.107795  -3e-06  1.045411  0.0  0.100879  0.102328  -1.1e-05  1.04881  0.0
H  H10  1  0.43293863  0.29845422  0.06530532  1  0.103613  0.000161  0.971064  0.0  0.10751  0.000167  1.044829  0.0  0.111032  0.000126  1.040836  0.0  0.10885  0.104812  0.000201  1.047826  0.0
H  H11  1  0.56705814  0.70154614  0.93469467  1  0.1036  -0.000168  0.971036  0.0  0.107494  -0.000168  1.044811  0.0  0.111016  -0.000126  1.040816  0.0  0.10886  0.104793  -0.000201  1.047818  0.0
H  H12  1  0.40149219  0.02284291  0.91447404  1  0.11241  -6.9e-05  0.945463  0.0  0.122909  -8.7e-05  1.002729  0.0  0.125501  -6.5e-05  1.003239  0.0  0.115271  0.121019  -0.000103  1.002614  0.0
H  H13  1  0.59850894  0.97716000  0.08552628  1  0.112405  6.5e-05  0.945464  0.0  0.122904  8.7e-05  1.002727  0.0  0.125495  6.5e-05  1.003238  0.0  0.115264  0.121014  0.000103  1.002611  0.0
H  H14  1  0.18171517  0.97421778  0.71029669  1  0.126351  2.8e-05  0.956431  0.0  0.128402  1.6e-05  1.025754  0.0  0.13268  1.2e-05  1.021182  0.0  0.132657  0.125191  2.2e-05  1.029172  0.0
H  H15  1  0.81828708  0.02578387  0.28970197  1  0.126292  -3.4e-05  0.956455  0.0  0.128427  -1.7e-05  1.025688  0.0  0.132704  -1.2e-05  1.021117  0.0  0.132669  0.125216  -2.2e-05  1.029106  0.0
H  H16  1  0.02884706  0.45348115  0.79409996  1  0.115206  -2.2e-05  0.990956  0.0  0.120647  1e-05  1.056038  0.0  0.124416  5e-06  1.052119  0.0  0.128416  0.117868  1.5e-05  1.058789  0.0
H  H17  1  0.97114951  0.54651793  0.20589979  1  0.115212  1.9e-05  0.990895  0.0  0.12066  -1.1e-05  1.055977  0.0  0.124431  -5e-06  1.052058  0.0  0.128423  0.117875  -1.5e-05  1.058739  0.0
H  H18  1  0.87557577  0.27525213  0.63567351  1  0.140415  0.000111  0.930879  0.0  0.152523  0.000211  0.989651  0.0  0.154361  0.000126  0.988756  0.0  0.128565  0.151071  0.000263  0.990533  0.0
H  H19  1  0.12442213  0.72474695  0.36432564  1  0.140357  -0.000112  0.930936  0.0  0.15248  -0.00021  0.989695  0.0  0.154317  -0.000126  0.988801  0.0  0.128562  0.151028  -0.000263  0.990577  0.0
H  H20  1  0.90771251  0.05632443  0.60093308  1  0.133235  -5e-06  0.943847  0.0  0.141691  8.3e-05  1.007346  0.0  0.144311  5.3e-05  1.006307  0.0  0.124865  0.139843  9.7e-05  1.008095  0.0
H  H21  1  0.09228558  0.94367593  0.39906630  1  0.13325  9e-06  0.943822  0.0  0.141709  -8.3e-05  1.007333  0.0  0.14433  -5.3e-05  1.006291  0.0  0.124869  0.13986  -9.7e-05  1.008084  0.0
H  H22  1  0.15616654  0.34571934  0.27633211  1  0.391391  -8.7e-05  0.937023  0.0  0.360486  -6.1e-05  1.00427  0.0  0.371115  -8.3e-05  0.989045  0.0  0.270797  0.352977  -3.2e-05  1.015053  0.0
H  H23  1  0.84383252  0.65427841  0.72367036  1  0.391387  9.1e-05  0.937031  0.0  0.360471  6.1e-05  1.004296  0.0  0.371101  8.3e-05  0.989068  0.0  0.270804  0.352961  3.2e-05  1.015078  0.0
H  H24  1  0.03828440  0.36234224  0.36378984  1  0.401753  -5e-05  0.909805  0.0  0.370859  -6.7e-05  0.975991  0.0  0.381252  -7.1e-05  0.961018  0.0  0.276012  0.363476  -5.2e-05  0.98665  0.0
H  H25  1  0.96171619  0.63765678  0.63621393  1  0.401812  5.1e-05  0.90974  0.0  0.370908  6.7e-05  0.975941  0.0  0.381303  7.1e-05  0.960964  0.0  0.27603  0.363527  5.2e-05  0.986597  0.0
C  C26  1  0.27795524  0.07883873  0.25030953  1  0.624779  -0.002532  3.907212  -0.006  0.581895  0.000236  4.201694  -0.002  0.619201  -0.000216  4.197107  -0.002  0.202461  0.55675  0.00059  4.204311  -0.002
C  C27  1  0.72204798  0.92116032  0.74969138  1  0.624852  0.002555  3.907233  0.006  0.581985  -0.000241  4.201685  0.002  0.619291  0.000216  4.197097  0.002  0.202521  0.556842  -0.00059  4.204293  0.002
C  C28  1  0.27129335  0.90134907  0.17658975  1  -0.068409  0.007507  3.757259  0.008  -0.046753  0.005237  3.989725  0.006  -0.05582  0.003821  4.013275  0.005  -0.020328  -0.040773  0.006082  3.973514  0.007
C  C29  1  0.72870758  0.09865256  0.82341033  1  -0.068376  -0.007557  3.757195  -0.008  -0.046752  -0.005236  3.98969  -0.006  -0.055821  -0.003822  4.013242  -0.005  -0.020321  -0.040775  -0.006082  3.973485  -0.007
C  C30  1  0.34344045  0.76944201  0.22431689  1  -0.061371  -0.000877  3.71845  -0.001  -0.086654  -0.000124  3.974066  0.0  -0.085599  -0.00019  3.994444  0.0  -0.08128  -0.087019  -9.1e-05  3.960315  0.0
C  C31  1  0.65655896  0.23055835  0.77568273  1  -0.061314  0.000896  3.718502  0.001  -0.086592  0.000124  3.974116  0.0  -0.085536  0.000192  3.994494  0.0  -0.081272  -0.086959  9.1e-05  3.960371  0.0
C  C32  1  0.32948740  0.60704544  0.15029859  1  -0.101183  0.000436  3.686966  0.0  -0.118482  7.7e-05  3.93371  0.0  -0.123433  0.000148  3.956996  0.0  -0.085623  -0.11525  4.3e-05  3.917932  0.0
C  C33  1  0.67051201  0.39295493  0.84970020  1  -0.101266  -0.000483  3.687097  -0.001  -0.118573  -7.5e-05  3.933847  0.0  -0.123526  -0.000149  3.95713  0.0  -0.08565  -0.115344  -4.3e-05  3.918072  0.0
C  C34  1  0.24634717  0.57329027  0.02659359  1  0.048841  -0.000795  3.772934  -0.001  0.062672  -0.000297  4.002451  0.0  0.063433  -0.000323  4.029006  0.0  -0.005404  0.06244  -0.000284  3.984433  0.0
C  C35  1  0.75365091  0.42671010  0.97340497  1  0.048922  0.000819  3.772996  0.001  0.062752  0.000297  4.002499  0.0  0.063514  0.000324  4.029053  0.0  -0.005364  0.062522  0.000284  3.98448  0.0
C  C36  1  0.17494169  0.70697310  0.97981179  1  -0.106387  0.000944  3.724855  0.001  -0.12489  0.000521  3.972644  0.001  -0.129715  0.000438  3.995049  0.001  -0.086945  -0.12169  0.0006  3.957557  0.001
C  C37  1  0.82505660  0.29302853  0.02018866  1  -0.106456  -0.001016  3.724961  -0.001  -0.124949  -0.00052  3.972733  -0.001  -0.129777  -0.000439  3.995139  -0.001  -0.086959  -0.121745  -0.000599  3.957643  -0.001
C  C38  1  0.18627063  0.86728022  0.05383200  1  -0.074721  -2.4e-05  3.759018  0.0  -0.098286  0.000436  4.00866  0.001  -0.098087  0.000165  4.029764  0.0  -0.088351  -0.098116  0.000601  3.994258  0.001
C  C39  1  0.81373030  0.13272143  0.94616726  1  -0.074725  9.2e-05  3.758953  0.0  -0.098268  -0.000435  4.008586  -0.001  -0.098066  -0.000163  4.029686  0.0  -0.088353  -0.098101  -0.000601  3.994184  -0.001
C  C40  1  0.23387995  0.40368880  0.94541103  1  0.02158  0.000316  3.739037  0.0  0.039337  0.000289  3.975627  0.0  0.033662  0.000228  3.999103  0.0  0.011862  0.042533  0.000353  3.960146  0.0
C  C41  1  0.76611813  0.59631156  0.05458835  1  0.021621  -0.000315  3.739034  0.0  0.039386  -0.000288  3.975638  0.0  0.03371  -0.000228  3.999116  0.0  0.011919  0.042584  -0.000353  3.960155  0.0
C  C42  1  0.33774953  0.27663644  0.97662977  1  -0.008579  -8.9e-05  3.6225  0.0  -0.040857  3.8e-05  3.87735  0.0  -0.033743  -2.3e-05  3.891083  0.0  -0.045014  -0.045259  0.000103  3.868291  0.0
C  C43  1  0.66224874  0.72336521  0.02336902  1  -0.008572  8.3e-05  3.622462  0.0  -0.040862  -3.7e-05  3.877319  0.0  -0.033742  2.3e-05  3.891044  0.0  -0.045058  -0.045266  -0.000103  3.86826  0.0
C  C44  1  0.32103805  0.12214817  0.89320684  1  -0.09393  0.000246  3.728788  0.0  -0.106426  0.00013  3.987063  0.0  -0.114805  0.000115  4.008379  0.0  -0.067747  -0.101375  0.000142  3.973178  0.0
C  C45  1  0.67896421  0.87785346  0.10679348  1  -0.093933  -0.000211  3.728824  0.0  -0.106406  -0.000129  3.987082  0.0  -0.114787  -0.000115  4.008398  0.0  -0.06773  -0.101356  -0.000142  3.973196  0.0
C  C46  1  0.20190450  0.09195078  0.77981052  1  0.096088  -0.000286  3.541404  0.0  0.052611  -4.9e-05  3.79221  0.0  0.062107  -8.1e-05  3.804814  0.0  0.070194  0.046452  0.0  3.783955  0.0
C  C47  1  0.79809641  0.90805087  0.22018791  1  0.096086  0.000261  3.541397  0.0  0.052524  4.7e-05  3.792195  0.0  0.062018  8.1e-05  3.804801  0.0  0.070147  0.046362  -0.0  3.783941  0.0
C  C48  1  0.11555875  0.36592412  0.82996472  1  0.055483  0.000129  3.535414  0.0  0.005806  1.6e-05  3.784135  0.0  0.014601  -4.6e-05  3.797358  0.0  0.070785  0.000193  7e-05  3.775308  0.0
C  C49  1  0.88443800  0.63407625  0.17003443  1  0.055497  -9.8e-05  3.535419  0.0  0.00577  -1.6e-05  3.784189  0.0  0.014562  4.6e-05  3.797414  0.0  0.07075  0.000153  -6.9e-05  3.77536  0.0
C  C50  1  0.97582082  0.18830228  0.63108620  1  -0.191872  0.0078  3.566862  0.009  -0.250597  0.005699  3.804271  0.007  -0.252831  0.00405  3.810222  0.005  -0.055476  -0.248979  0.00667  3.800375  0.007
C  C51  1  0.02417574  0.81169681  0.36891190  1  -0.19183  -0.007809  3.566889  -0.009  -0.250594  -0.005697  3.804327  -0.007  -0.252832  -0.004052  3.810283  -0.005  -0.055479  -0.248985  -0.006671  3.800437  -0.007
C  C52  1  0.06446718  0.22830803  0.54016432  1  0.689302  -0.00327  3.857836  -0.006  0.646996  -0.000511  4.162668  -0.003  0.682824  -0.00088  4.15758  -0.003  0.214715  0.622774  -0.000185  4.165844  -0.003
C  C53  1  0.93553185  0.77168977  0.45983484  1  0.689322  0.00327  3.857835  0.006  0.647037  0.000509  4.162642  0.003  0.682865  0.000881  4.157556  0.003  0.214773  0.622826  0.000185  4.165806  0.003
N  N54  1  0.10114334  0.21459776  0.75153375  1  0.036645  -2.1e-05  3.577573  -0.001  0.130082  0.000229  3.783531  0.0  0.117892  0.000182  3.808943  0.0  -0.206442  0.137881  0.00027  3.766518  0.0
N  N55  1  0.89885741  0.78540259  0.24846610  1  0.036638  2.6e-05  3.57759  0.001  0.130121  -0.000228  3.783565  0.0  0.117933  -0.000182  3.808976  0.0  -0.206441  0.137921  -0.000271  3.766553  0.0
N  N56  1  0.44038328  0.56812733  0.58392970  1  -0.557255  -0.001393  2.924838  -0.002  -0.61022  0.000734  3.330762  0.001  -0.673262  0.000944  3.340667  0.001  -0.357541  -0.572954  0.000511  3.326137  0.001
N  N57  1  0.55961748  0.43187300  0.41607181  1  -0.557416  0.001329  2.924621  0.002  -0.61039  -0.000734  3.330566  -0.001  -0.673447  -0.000948  3.340472  -0.001  -0.357632  -0.573118  -0.000513  3.325942  -0.001
N  N58  1  0.39172202  0.62775621  0.66940070  1  0.429792  -0.000421  4.11778  0.0  0.474825  -0.000635  4.426694  -0.001  0.499077  -0.000555  4.461503  -0.001  0.107676  0.459377  -0.000704  4.402395  -0.001
N  N59  1  0.60828152  0.37223650  0.33059432  1  0.429812  0.000423  4.118272  0.0  0.474843  0.000639  4.427158  0.001  0.499096  0.000553  4.461958  0.001  0.107721  0.459392  0.000702  4.402864  0.001
N  N60  1  0.34695548  0.68492857  0.75211648  1  -0.291003  -0.000511  2.354245  0.0  -0.304172  0.000796  2.585129  0.001  -0.313831  0.000684  2.595131  0.001  -0.131192  -0.296698  0.000852  2.577238  0.001
N  N61  1  0.65304322  0.31506660  0.24788802  1  -0.29087  0.000603  2.355026  0.0  -0.304039  -0.000791  2.585899  -0.001  -0.313679  -0.000681  2.595881  -0.001  -0.131135  -0.296573  -0.000848  2.578011  -0.001
O  O62  1  0.33557853  0.10241150  0.36469525  1  -0.60172  0.071966  2.0475  0.097  -0.571358  0.054599  2.319692  0.08  -0.617165  0.042739  2.308472  0.066  -0.327684  -0.54221  0.059658  2.327651  0.084
O  O63  1  0.66442165  0.89758499  0.63530557  1  -0.601781  -0.071968  2.04754  -0.097  -0.571419  -0.054594  2.319731  -0.08  -0.617216  -0.042735  2.308489  -0.066  -0.32772  -0.542267  -0.059656  2.327674  -0.084
O  O64  1  0.22471324  0.19108891  0.19608890  1  -0.61066  -1.7e-05  1.996065  0.001  -0.557834  7.3e-05  2.219474  0.001  -0.58496  -0.000523  2.214006  0.0  -0.312616  -0.539218  0.000564  2.222888  0.001
O  O65  1  0.77529171  0.80891268  0.80391437  1  -0.610722  8e-06  1.996179  -0.001  -0.55786  -7.1e-05  2.21953  -0.001  -0.584986  0.000522  2.21406  0.0  -0.31267  -0.539245  -0.000564  2.222942  -0.001
O  O66  1  0.23634084  0.25975698  0.57423409  1  -0.607019  0.064307  2.057104  0.087  -0.574779  0.050775  2.333631  0.075  -0.618684  0.04059  2.323405  0.063  -0.328847  -0.547027  0.054694  2.340964  0.077
O  O67  1  0.76365780  0.74023827  0.42576379  1  -0.607029  -0.064306  2.057143  -0.087  -0.57478  -0.050782  2.333656  -0.075  -0.618679  -0.040593  2.323417  -0.063  -0.32888  -0.547025  -0.054702  2.340967  -0.077
O  O68  1  0.95884745  0.22622367  0.44053699  1  -0.61261  0.000262  1.972011  0.001  -0.561477  0.000197  2.192523  0.001  -0.588664  -0.000419  2.18512  0.0  -0.309123  -0.542668  0.000706  2.197288  0.002
O  O69  1  0.04115330  0.77377667  0.55946369  1  -0.612666  -0.000258  1.972033  -0.001  -0.561515  -0.000196  2.192526  -0.001  -0.588702  0.000419  2.185122  0.0  -0.309141  -0.542713  -0.000706  2.19729  -0.002
O  O70  1  0.11595988  0.43228850  0.33385800  1  -0.848496  -0.000783  1.859474  0.0  -0.806106  -0.000748  2.039905  0.0  -0.829434  -0.000946  2.00839  -0.001  -0.603626  -0.789667  -0.000485  2.061704  0.0
O  O71  1  0.88404185  0.56770922  0.66614659  1  -0.848558  0.000774  1.859473  0.0  -0.806136  0.000748  2.0399  0.0  -0.829455  0.000946  2.008369  0.001  -0.603644  -0.789707  0.000484  2.061715  0.0
