# generated using pymatgen
data_Zn4H12C24N3Cl3O13
_symmetry_space_group_name_H-M   'P 1'
_cell_length_a   18.16978282
_cell_length_b   18.10174915
_cell_length_c   17.92642485
_cell_angle_alpha   61.67326321
_cell_angle_beta   62.09568884
_cell_angle_gamma   62.35987558
_symmetry_Int_Tables_number   1
_chemical_formula_structural   Zn4H12C24N3Cl3O13
_chemical_formula_sum   'Zn8 H24 C48 N6 Cl6 O26'
_cell_volume   4359.31772599
_cell_formula_units_Z   2
loop_
 _symmetry_equiv_pos_site_id
 _symmetry_equiv_pos_as_xyz
  1  'x, y, z'
loop_
 _atom_site_type_symbol
 _atom_site_label
 _atom_site_symmetry_multiplicity
 _atom_site_fract_x
 _atom_site_fract_y
 _atom_site_fract_z
 _atom_site_occupancy
 _atom_site_pbe_bader_charge
 _atom_site_pbe_bader_spin_density
 _atom_site_pbe_cm5_charge
 _atom_site_pbe_ddec_charge
 _atom_site_pbe_ddec_spin_density
 _atom_site_pbe_ddec_sum_bond_order
 _atom_site_pbe_magmom
Zn  Zn0  1  0.91416637  0.00430036  0.14587981  1  1.311405  0  0.666635  0.937103  0  2.426781  0
Zn  Zn1  1  0.91265067  0.00267598  0.97034334  1  1.311774  0  0.671719  0.961367  0  2.349234  0
Zn  Zn2  1  0.08527278  0.99793361  0.98153931  1  1.32174  0  0.675993  0.964194  0  2.382205  0
Zn  Zn3  1  0.91971172  0.17498864  0.97645512  1  1.32723  0  0.683553  0.981634  0  2.359878  0
Zn  Zn4  1  0.49279868  0.58801442  0.38692167  1  1.313865  0  0.679069  0.982434  0  2.355523  0
Zn  Zn5  1  0.50179122  0.59469614  0.55970418  1  1.326775  0  0.675332  0.978308  0  2.333199  0
Zn  Zn6  1  0.50257861  0.41577215  0.56010076  1  1.300833  0  0.66714  0.96012  0  2.371028  0
Zn  Zn7  1  0.32890386  0.58221091  0.56587358  1  1.314205  0  0.670658  0.964734  0  2.379659  0
H  H8  1  0.70546630  0.89692236  0.10563455  1  0.138756  0  0.108587  0.127967  0  0.996098  0
H  H9  1  0.69057155  0.71210431  0.41905504  1  0.093997  0  0.111175  0.12736  0  0.991713  0
H  H10  1  0.80791036  0.74944204  0.40032121  1  0.436261  0  0.318922  0.315304  0  0.927993  0
H  H11  1  0.85272807  0.82629678  0.30190077  1  0.503021  0  0.302177  0.315671  0  0.985759  0
H  H12  1  0.22922479  0.77228617  0.13227360  1  0.110174  0  0.111247  0.132504  0  0.989959  0
H  H13  1  0.15498843  0.77899108  0.43255155  1  0.080038  0  0.110077  0.125628  0  0.989224  0
H  H14  1  0.03034215  0.90392730  0.40848271  1  0.441002  0  0.316661  0.312294  0  0.931834  0
H  H15  1  0.99956540  0.94358483  0.31373052  1  0.504485  0  0.301158  0.314965  0  0.983341  0
H  H16  1  0.80951188  0.34436564  0.11741323  1  0.117533  0  0.111116  0.131934  0  0.990887  0
H  H17  1  0.60592973  0.24480448  0.41954566  1  0.094471  0  0.109686  0.125161  0  0.99321  0
H  H18  1  0.64556778  0.10970536  0.39848035  1  0.443273  0  0.317864  0.313476  0  0.931378  0
H  H19  1  0.73019597  0.08270435  0.30496321  1  0.511864  0  0.301752  0.315891  0  0.98488  0
H  H20  1  0.25360431  0.89864677  0.77853774  1  0.111054  0  0.10987  0.130241  0  0.995398  0
H  H21  1  0.16076017  0.69770559  0.75190975  1  0.083097  0  0.110197  0.125964  0  0.99551  0
H  H22  1  0.02366195  0.73701704  0.86089821  1  0.442582  0  0.319137  0.315783  0  0.928814  0
H  H23  1  0.99453743  0.82094449  0.90206260  1  0.486129  0  0.302944  0.31617  0  0.982021  0
H  H24  1  0.70969714  0.33843717  0.88072930  1  0.115137  0  0.111231  0.131586  0  0.988932  0
H  H25  1  0.72448972  0.26795558  0.63819276  1  0.072357  0  0.108555  0.12238  0  0.991677  0
H  H26  1  0.83606669  0.13376738  0.67534090  1  0.435265  0  0.31511  0.309478  0  0.935889  0
H  H27  1  0.87012180  0.10048155  0.76588305  1  0.480185  0  0.301179  0.313157  0  0.98388  0
H  H28  1  0.06601180  0.33221689  0.77376781  1  0.130133  0  0.111057  0.131635  0  0.99297  0
H  H29  1  0.36969266  0.23600574  0.77230755  1  0.062971  0  0.109509  0.123947  0  0.991437  0
H  H30  1  0.35063971  0.09946401  0.88278981  1  0.432697  0  0.319405  0.315001  0  0.928449  0
H  H31  1  0.25224482  0.07568083  0.92474103  1  0.480229  0  0.304465  0.31866  0  0.979555  0
C  C32  1  0.81997654  0.90596863  0.14964470  1  1.502681  0  0.222139  0.613943  0  4.143868  0
C  C33  1  0.75936110  0.85292800  0.20895735  1  0.026082  0  -0.032524  -0.157523  0  3.944083  0
C  C34  1  0.70267818  0.85530880  0.17433638  1  -0.008869  0  -0.090953  -0.145232  0  3.999125  0
C  C35  1  0.64375207  0.80764259  0.22472279  1  0.07001  0  0.002253  0.103992  0  4.04535  0
C  C36  1  0.64053155  0.75399151  0.31426900  1  -0.041587  0  -0.011817  -0.054842  0  3.954258  0
C  C37  1  0.69514677  0.75253694  0.34955148  1  0.042937  0  -0.09342  -0.209275  0  3.924489  0
C  C38  1  0.75542494  0.80072659  0.29972239  1  0.437645  0  0.111976  0.309191  0  4.081991  0
C  C39  1  0.58377044  0.69502828  0.37426974  1  1.613479  0  0.229847  0.619378  0  4.148954  0
C  C40  1  0.08554515  0.90180524  0.16739396  1  1.526112  0  0.220689  0.611514  0  4.144519  0
C  C41  1  0.13685782  0.83788753  0.22888286  1  -0.02964  0  -0.033076  -0.156844  0  3.94712  0
C  C42  1  0.21364032  0.77378803  0.19811468  1  0.031325  0  -0.088604  -0.143824  0  3.993365  0
C  C43  1  0.26867503  0.71365199  0.24888281  1  0.027225  0  0.002073  0.10282  0  4.055991  0
C  C44  1  0.24801071  0.71777725  0.33360478  1  0.048193  0  -0.010658  -0.051035  0  3.962759  0
C  C45  1  0.17052568  0.77838325  0.36619506  1  -0.009646  0  -0.09466  -0.212398  0  3.924848  0
C  C46  1  0.11256245  0.83933186  0.31637441  1  0.497053  0  0.110643  0.306175  0  4.084891  0
C  C47  1  0.30838239  0.66407562  0.38893667  1  1.579599  0  0.230323  0.620335  0  4.156106  0
C  C48  1  0.81908563  0.18074915  0.15958607  1  1.489703  0  0.22309  0.61396  0  4.144364  0
C  C49  1  0.76069278  0.23659366  0.21699765  1  0.061039  0  -0.031501  -0.155121  0  3.941899  0
C  C50  1  0.76384501  0.32319942  0.18352409  1  -0.008989  0  -0.087851  -0.140811  0  3.98878  0
C  C51  1  0.71182331  0.38087029  0.23209197  1  0.094511  0  0.002495  0.101482  0  4.051407  0
C  C52  1  0.65352680  0.35179029  0.31841079  1  0.032929  0  -0.012086  -0.053462  0  3.964913  0
C  C53  1  0.65038506  0.26611891  0.35235255  1  -0.011517  0  -0.09575  -0.214102  0  3.934621  0
C  C54  1  0.70244880  0.20628355  0.30410030  1  0.42181  0  0.111621  0.307629  0  4.087027  0
C  C55  1  0.59353752  0.40818637  0.37698690  1  1.599907  0  0.229214  0.619673  0  4.152967  0
C  C56  1  0.09094083  0.90671815  0.87924149  1  1.520176  0  0.223009  0.616203  0  4.137405  0
C  C57  1  0.14769786  0.85019970  0.82212757  1  0.0139  0  -0.030764  -0.15337  0  3.935913  0
C  C58  1  0.23380542  0.85374629  0.77293412  1  0.017743  0  -0.089154  -0.143896  0  3.992839  0
C  C59  1  0.29272084  0.80319819  0.71781036  1  0.052101  0  0.002068  0.105262  0  4.046685  0
C  C60  1  0.26573434  0.74538672  0.71096092  1  -0.033556  0  -0.012914  -0.058461  0  3.961721  0
C  C61  1  0.18047854  0.74181560  0.75911542  1  0.045046  0  -0.09542  -0.211176  0  3.928938  0
C  C62  1  0.11918336  0.79301830  0.81520451  1  0.477391  0  0.111629  0.307014  0  4.089904  0
C  C63  1  0.32297045  0.68651552  0.65455409  1  1.572393  0  0.229167  0.620007  0  4.144586  0
C  C64  1  0.82770740  0.18495508  0.87212840  1  1.513281  0  0.226385  0.621509  0  4.132449  0
C  C65  1  0.77417345  0.24435975  0.81155773  1  0.060604  0  -0.029274  -0.151817  0  3.934707  0
C  C66  1  0.71363628  0.32399973  0.82629890  1  0.036567  0  -0.088012  -0.140644  0  3.985703  0
C  C67  1  0.65801573  0.38255355  0.77551604  1  0.026298  0  0.001112  0.099614  0  4.05468  0
C  C68  1  0.66219509  0.36157486  0.70680799  1  -0.007247  0  -0.013383  -0.057275  0  3.968659  0
C  C69  1  0.72277779  0.28335376  0.69103112  1  0.055186  0  -0.097184  -0.214261  0  3.935179  0
C  C70  1  0.78032104  0.22315849  0.74130395  1  0.414662  0  0.109939  0.305414  0  4.08624  0
C  C71  1  0.60273309  0.41763800  0.65038064  1  1.590138  0  0.229038  0.623974  0  4.146224  0
C  C72  1  0.10370203  0.17486958  0.89106456  1  1.525881  0  0.225046  0.619004  0  4.135658  0
C  C73  1  0.16402379  0.22835243  0.83278134  1  -0.011293  0  -0.031353  -0.155863  0  3.936329  0
C  C74  1  0.13245165  0.31191807  0.77390357  1  0.069872  0  -0.088639  -0.141788  0  3.99792  0
C  C75  1  0.18336011  0.36737133  0.71642754  1  0.004586  0  4.1e-05  0.100327  0  4.053196  0
C  C76  1  0.26981181  0.33969559  0.71719886  1  0.022718  0  -0.013589  -0.055948  0  3.973904  0
C  C77  1  0.30245616  0.25651416  0.77369419  1  0.050738  0  -0.095099  -0.214262  0  3.929469  0
C  C78  1  0.25180989  0.19860662  0.83282112  1  0.478425  0  0.113858  0.310456  0  4.084476  0
C  C79  1  0.32778570  0.39732608  0.66172799  1  1.571183  0  0.228331  0.620757  0  4.152569  0
N  N80  1  0.80579642  0.79593908  0.34014295  1  -1.262105  0  -0.589133  -0.616978  0  3.349597  0
N  N81  1  0.03711930  0.89631272  0.35304994  1  -1.258829  0  -0.589951  -0.618344  0  3.347483  0
N  N82  1  0.69608597  0.12307208  0.34259415  1  -1.283343  0  -0.590054  -0.618051  0  3.351812  0
N  N83  1  0.03649445  0.78667058  0.85891837  1  -1.258828  0  -0.589247  -0.617671  0  3.352941  0
N  N84  1  0.84056169  0.14929155  0.71996167  1  -1.24165  0  -0.591826  -0.617601  0  3.343333  0
N  N85  1  0.28701330  0.11904834  0.88816968  1  -1.250877  0  -0.58576  -0.613016  0  3.351438  0
Cl  Cl86  1  0.57385250  0.82041099  0.17613711  1  -0.208907  0  -0.034806  -0.096614  0  1.461661  0
Cl  Cl87  1  0.35833971  0.63345938  0.20807894  1  -0.200091  0  -0.029566  -0.091259  0  1.451222  0
Cl  Cl88  1  0.72493023  0.48410321  0.18634060  1  -0.205674  0  -0.032325  -0.094279  0  1.461143  0
Cl  Cl89  1  0.39497483  0.81783811  0.65640421  1  -0.202565  0  -0.036462  -0.099534  0  1.459703  0
Cl  Cl90  1  0.58152651  0.47576752  0.80321560  1  -0.202929  0  -0.032956  -0.095268  0  1.451451  0
Cl  Cl91  1  0.14033773  0.46597531  0.64190729  1  -0.209928  0  -0.036672  -0.100755  0  1.463425  0
O  O92  1  0.95764059  0.04571668  0.01654738  1  -1.228852  0  -0.580115  -1.030145  0  2.580533  0
O  O93  1  0.82457482  0.94484721  0.06711705  1  -1.181814  0  -0.319411  -0.548575  0  2.309445  0
O  O94  1  0.86524071  0.91010248  0.18489379  1  -1.178244  0  -0.321037  -0.563598  0  2.364023  0
O  O95  1  0.56057109  0.67976995  0.45806028  1  -1.173812  0  -0.314118  -0.54648  0  2.325123  0
O  O96  1  0.56599536  0.66323754  0.33714960  1  -1.157784  0  -0.308284  -0.539337  0  2.390923  0
O  O97  1  0.12059432  0.90476319  0.08572456  1  -1.182682  0  -0.318701  -0.549299  0  2.325943  0
O  O98  1  0.00808931  0.95154146  0.19914628  1  -1.180935  0  -0.320564  -0.561721  0  2.338055  0
O  O99  1  0.27261903  0.63663870  0.47347214  1  -1.172281  0  -0.313678  -0.544033  0  2.32778  0
O  O100  1  0.38943963  0.65419987  0.34672780  1  -1.153659  0  -0.308321  -0.539896  0  2.375098  0
O  O101  1  0.86397230  0.21585124  0.08009187  1  -1.181171  0  -0.317109  -0.548428  0  2.325621  0
O  O102  1  0.82201704  0.09876085  0.19341557  1  -1.178444  0  -0.3195  -0.559865  0  2.353078  0
O  O103  1  0.57983638  0.36807617  0.46091359  1  -1.169615  0  -0.316552  -0.547823  0  2.321778  0
O  O104  1  0.56024745  0.48976679  0.33902829  1  -1.172085  0  -0.308028  -0.537923  0  2.381113  0
O  O105  1  0.12681418  0.94657346  0.88889036  1  -1.179328  0  -0.319474  -0.548786  0  2.333075  0
O  O106  1  0.00877870  0.91284904  0.91570884  1  -1.183011  0  -0.316543  -0.561804  0  2.333035  0
O  O107  1  0.28302861  0.66958215  0.62462139  1  -1.160819  0  -0.31675  -0.546773  0  2.327452  0
O  O108  1  0.40482145  0.65708968  0.64245359  1  -1.15246  0  -0.308572  -0.540115  0  2.374212  0
O  O109  1  0.83188760  0.21790806  0.91870211  1  -1.176079  0  -0.317628  -0.549255  0  2.323521  0
O  O110  1  0.86580305  0.10338588  0.87527899  1  -1.182146  0  -0.31668  -0.561986  0  2.325864  0
O  O111  1  0.57484025  0.37506460  0.63472095  1  -1.1668  0  -0.315876  -0.548126  0  2.324224  0
O  O112  1  0.58648445  0.50089900  0.62204286  1  -1.173994  0  -0.310767  -0.542466  0  2.352853  0
O  O113  1  0.02342021  0.21283162  0.89391318  1  -1.179389  0  -0.317305  -0.54978  0  2.332379  0
O  O114  1  0.13549810  0.09309080  0.93510052  1  -1.180602  0  -0.316772  -0.561043  0  2.335024  0
O  O115  1  0.40913416  0.35958636  0.62841581  1  -1.170718  0  -0.313937  -0.541804  0  2.301532  0
O  O116  1  0.29135207  0.47857536  0.65468519  1  -1.171985  0  -0.314842  -0.547803  0  2.374957  0
O  O117  1  0.45734013  0.54507795  0.51826451  1  -1.21889  0  -0.57216  -1.032217  0  2.525451  0
