# generated using pymatgen
data_Zn2H36C49(NO4)2
_symmetry_space_group_name_H-M   'P 1'
_cell_length_a   16.48313564
_cell_length_b   17.91832258
_cell_length_c   33.31370820
_cell_angle_alpha   90.25257936
_cell_angle_beta   89.95813869
_cell_angle_gamma   89.87440337
_symmetry_Int_Tables_number   1
_chemical_formula_structural   Zn2H36C49(NO4)2
_chemical_formula_sum   'Zn4 H72 C98 N4 O16'
_cell_volume   9839.08649171
_cell_formula_units_Z   2
loop_
 _symmetry_equiv_pos_site_id
 _symmetry_equiv_pos_as_xyz
  1  'x, y, z'
loop_
 _atom_site_type_symbol
 _atom_site_label
 _atom_site_symmetry_multiplicity
 _atom_site_fract_x
 _atom_site_fract_y
 _atom_site_fract_z
 _atom_site_occupancy
 _atom_site_pbe_bader_charge
 _atom_site_pbe_bader_spin_density
 _atom_site_pbe_cm5_charge
 _atom_site_pbe_ddec_charge
 _atom_site_pbe_ddec_spin_density
 _atom_site_pbe_ddec_sum_bond_order
 _atom_site_pbe_magmom
Zn  Zn0  1  0.58621311  0.50131083  0.49858240  1  1.28732  0  0.663556  0.809735  0  2.438812  0
Zn  Zn1  1  0.41864245  0.50145865  0.50182520  1  1.281479  0  0.662726  0.813186  0  2.438343  0
Zn  Zn2  1  0.41421985  0.50485664  0.96467473  1  1.286571  0  0.663279  0.80932  0  2.438343  0
Zn  Zn3  1  0.58174001  0.50450965  0.96152158  1  1.28258  0  0.662803  0.81312  0  2.436669  0
H  H4  1  0.28808271  0.57206360  0.55191691  1  0.123557  0  0.13163  0.11015  0  0.966801  0
H  H5  1  0.13507587  0.57333243  0.55317865  1  0.111372  0  0.116176  0.124979  0  0.982258  0
H  H6  1  0.29225163  0.42541023  0.45594330  1  0.124805  0  0.129824  0.111949  0  0.975497  0
H  H7  1  0.71273591  0.59321142  0.53585829  1  0.135636  0  0.128493  0.108263  0  0.984714  0
H  H8  1  0.71713176  0.41132481  0.45931325  1  0.128605  0  0.131234  0.109756  0  0.969689  0
H  H9  1  0.87007088  0.40679367  0.46023427  1  0.059262  0  0.116114  0.125192  0  0.98201  0
H  H10  1  0.63325144  0.74259985  0.50382043  1  0.082705  0  0.10041  0.104619  0  1.008457  0
H  H11  1  0.62877569  0.88228155  0.50404849  1  0.054066  0  0.100948  0.102761  0  0.998382  0
H  H12  1  0.37360209  0.73630587  0.50005078  1  0.089586  0  0.102179  0.111481  0  1.005731  0
H  H13  1  0.63548872  0.26071434  0.49523726  1  0.047232  0  0.10095  0.108424  0  1.008099  0
H  H14  1  0.37615519  0.26556411  0.50343153  1  0.092805  0  0.101621  0.107417  0  1.005532  0
H  H15  1  0.37363793  0.12580731  0.50435922  1  0.056305  0  0.101285  0.102868  0  0.997215  0
H  H16  1  0.63160176  0.48459720  0.70506185  1  0.042176  0  0.094911  0.093789  0  1.035801  0
H  H17  1  0.36913583  0.48508687  0.75803833  1  0.02461  0  0.094823  0.093548  0  1.036381  0
H  H18  1  0.62090460  0.51005865  0.83652797  1  0.116719  0  0.099382  0.101892  0  1.015191  0
H  H19  1  0.62901390  0.51046279  0.76271310  1  0.05917  0  0.096571  0.095175  0  1.0227  0
H  H20  1  0.37942053  0.51052342  0.62696390  1  0.09266  0  0.099312  0.101969  0  1.015026  0
H  H21  1  0.37173150  0.51138140  0.70077740  1  0.024362  0  0.096228  0.09486  0  1.021976  0
H  H22  1  0.37791554  0.51014999  0.09016727  1  0.078634  0  0.102701  0.109401  0  1.004733  0
H  H23  1  0.37591787  0.50616083  0.16529703  1  0.039831  0  0.101763  0.10355  0  0.997522  0
H  H24  1  0.63761668  0.50079358  0.09164833  1  0.088797  0  0.100707  0.10808  0  1.007302  0
H  H25  1  0.36228710  0.49703740  0.37188711  1  0.069916  0  0.100633  0.107777  0  1.007385  0
H  H26  1  0.62202853  0.50444873  0.37295343  1  0.093126  0  0.102568  0.109014  0  1.004527  0
H  H27  1  0.62340569  0.50251637  0.29777201  1  0.07859  0  0.101501  0.102938  0  0.99694  0
H  H28  1  0.71163847  0.57451897  0.91123508  1  0.133106  0  0.131639  0.10985  0  0.967001  0
H  H29  1  0.86462836  0.57559459  0.90965567  1  0.078828  0  0.116123  0.125303  0  0.981452  0
H  H30  1  0.70878577  0.42870505  0.00687721  1  0.102495  0  0.129743  0.111879  0  0.975118  0
H  H31  1  0.28728827  0.59609023  0.92735805  1  0.111034  0  0.128347  0.108256  0  0.984396  0
H  H32  1  0.28356938  0.41570607  0.00407148  1  0.137589  0  0.131199  0.110576  0  0.96933  0
H  H33  1  0.13069851  0.41088231  0.00287438  1  0.095637  0  0.116301  0.125408  0  0.981907  0
H  H34  1  0.36664186  0.74566955  0.95724632  1  0.085665  0  0.100197  0.104051  0  1.008447  0
H  H35  1  0.37034513  0.88530325  0.95616615  1  0.050659  0  0.100961  0.102418  0  0.998404  0
H  H36  1  0.62621356  0.73972349  0.96259396  1  0.080811  0  0.102024  0.110964  0  1.005864  0
H  H37  1  0.36494104  0.26519471  0.96798754  1  0.094806  0  0.100483  0.107364  0  1.009038  0
H  H38  1  0.62413123  0.26771088  0.95862616  1  0.094033  0  0.101766  0.107651  0  1.004583  0
H  H39  1  0.62572463  0.12795847  0.95648170  1  0.066158  0  0.101272  0.102615  0  0.997492  0
H  H40  1  0.13767191  0.34318047  0.45276912  1  0.043013  0  0.104344  0.143919  0  0.974433  0
H  H41  1  0.06457941  0.41370615  0.44268019  1  0.03417  0  0.094024  0.130967  0  1.013962  0
H  H42  1  0.15726490  0.40999584  0.41501107  1  0.075971  0  0.104074  0.143315  0  0.978303  0
H  H43  1  0.87415909  0.59183984  0.58194399  1  0.067271  0  0.10381  0.143657  0  0.974426  0
H  H44  1  0.93874960  0.61943229  0.54206086  1  0.04557  0  0.094912  0.132069  0  1.007957  0
H  H45  1  0.84305908  0.66447015  0.54942821  1  0.053596  0  0.103456  0.142166  0  0.97997  0
H  H46  1  0.30866283  0.87327443  0.52839687  1  0.053053  0  0.092961  0.127778  0  0.990863  0
H  H47  1  0.34960179  0.94627953  0.49868215  1  0.018651  0  0.088435  0.125309  0  1.022803  0
H  H48  1  0.30662640  0.86588275  0.47539118  1  0.046551  0  0.093498  0.129445  0  0.990245  0
H  H49  1  0.69167305  0.11763783  0.52560793  1  0.047478  0  0.093676  0.129282  0  0.987806  0
H  H50  1  0.64925360  0.05059495  0.49235748  1  0.029907  0  0.089028  0.126132  0  1.022086  0
H  H51  1  0.69777922  0.13178032  0.47310613  1  0.054374  0  0.091989  0.126265  0  0.994169  0
H  H52  1  0.69879954  0.54629144  0.16509838  1  0.031016  0  0.0933  0.128485  0  0.989838  0
H  H53  1  0.65168161  0.49709709  0.20507864  1  0.028618  0  0.089018  0.126429  0  1.022094  0
H  H54  1  0.69590659  0.44749493  0.16416042  1  0.04322  0  0.091903  0.126064  0  0.99242  0
H  H55  1  0.30104405  0.54516429  0.29860492  1  0.042558  0  0.093345  0.129008  0  0.98988  0
H  H56  1  0.34734714  0.49504975  0.25843800  1  0.015338  0  0.089088  0.126372  0  1.022009  0
H  H57  1  0.30280587  0.44634171  0.29929661  1  0.04773  0  0.091825  0.125965  0  0.993368  0
H  H58  1  0.86301712  0.34644138  0.00983659  1  0.043029  0  0.104408  0.143896  0  0.973851  0
H  H59  1  0.93650315  0.41662243  0.01968841  1  0.022816  0  0.093828  0.130683  0  1.014246  0
H  H60  1  0.84414526  0.41405071  0.04762103  1  0.062987  0  0.104119  0.143182  0  0.978094  0
H  H61  1  0.12572561  0.59330346  0.88101510  1  0.045544  0  0.103999  0.143888  0  0.974057  0
H  H62  1  0.06135264  0.62221112  0.92090409  1  0.040849  0  0.094826  0.131939  0  1.008025  0
H  H63  1  0.15701849  0.66666683  0.91328247  1  0.067341  0  0.103514  0.142329  0  0.9795  0
H  H64  1  0.68878212  0.87927002  0.93242979  1  0.037043  0  0.093109  0.127441  0  0.990883  0
H  H65  1  0.64932414  0.94925017  0.96499334  1  0.031202  0  0.089012  0.12558  0  1.022038  0
H  H66  1  0.69398039  0.86671702  0.98506402  1  0.045052  0  0.093176  0.128073  0  0.991102  0
H  H67  1  0.30887920  0.12059227  0.93586782  1  0.066321  0  0.093667  0.129291  0  0.987585  0
H  H68  1  0.34992327  0.05546105  0.97035402  1  0.054702  0  0.08929  0.126556  0  1.021269  0
H  H69  1  0.30091850  0.13813226  0.98810956  1  0.034476  0  0.091549  0.126013  0  0.994715  0
H  H70  1  0.71057291  0.48549007  0.65175331  1  0.007018  0  0.081267  0.108467  0  1.016923  0
H  H71  1  0.67062682  0.43711411  0.60901292  1  0.091556  0  0.094522  0.140057  0  0.99043  0
H  H72  1  0.67636553  0.53472212  0.60833976  1  0.056851  0  0.088547  0.126224  0  1.012828  0
H  H73  1  0.28987863  0.48654762  0.81119721  1  -0.000186  0  0.081168  0.107976  0  1.017123  0
H  H74  1  0.32954146  0.43840541  0.85390815  1  0.075517  0  0.094095  0.139815  0  0.991054  0
H  H75  1  0.32375445  0.53606604  0.85477032  1  0.0569  0  0.088626  0.126494  0  1.012375  0
C  C76  1  0.50500922  0.64776611  0.50165300  1  1.530174  0  0.212468  0.592085  0  4.16821  0
C  C77  1  0.50517491  0.50027536  0.57897535  1  1.508045  0  0.213111  0.594604  0  4.160889  0
C  C78  1  0.50785840  0.35478127  0.49868344  1  1.558523  0  0.211716  0.590137  0  4.171518  0
C  C79  1  0.49174511  0.50129144  0.42167574  1  1.569246  0  0.212593  0.591246  0  4.170027  0
C  C80  1  0.49526139  0.65098670  0.96078041  1  1.528265  0  0.212114  0.591709  0  4.168545  0
C  C81  1  0.49488425  0.50135676  0.88432104  1  1.525397  0  0.213036  0.595397  0  4.161373  0
C  C82  1  0.49304686  0.35812455  0.96471636  1  1.568519  0  0.212138  0.591468  0  4.168621  0
C  C83  1  0.50850994  0.50631701  0.04162011  1  1.515949  0  0.212804  0.592489  0  4.168404  0
C  C84  1  0.25205026  0.53940994  0.53079663  1  0.431599  0  0.056743  0.088499  0  3.947543  0
C  C85  1  0.16805477  0.53950789  0.53136837  1  -0.002218  0  -0.07369  -0.169219  0  3.951817  0
C  C86  1  0.12527713  0.49543719  0.50332724  1  0.108757  0  0.01701  0.105491  0  4.07801  0
C  C87  1  0.16969119  0.45178001  0.47533414  1  0.017952  0  0.010784  0.095104  0  3.912264  0
C  C88  1  0.25418122  0.45638676  0.47710174  1  0.522232  0  0.062133  0.039706  0  3.871925  0
C  C89  1  0.03942970  0.49617629  0.50319433  1  -0.199  0  -0.026827  -0.084453  0  4.094409  0
C  C90  1  0.96542343  0.49818145  0.50281264  1  -0.16761  0  -0.027294  -0.084994  0  4.094664  0
C  C91  1  0.87965559  0.50037727  0.50156661  1  0.112101  0  0.017533  0.105438  0  4.07693  0
C  C92  1  0.83516000  0.55431244  0.52375631  1  -0.001849  0  0.010422  0.097437  0  3.912489  0
C  C93  1  0.75081181  0.55250711  0.52016506  1  0.520337  0  0.061842  0.03677  0  3.879625  0
C  C94  1  0.75308173  0.45087240  0.47672010  1  0.479053  0  0.056798  0.090944  0  3.944088  0
C  C95  1  0.83705779  0.44849354  0.47764469  1  0.025556  0  -0.073344  -0.169829  0  3.948744  0
C  C96  1  0.50325562  0.73140060  0.50213243  1  -0.033254  0  -0.018083  -0.022817  0  3.982718  0
C  C97  1  0.57562108  0.77244227  0.50329927  1  -0.105267  0  -0.091549  -0.104668  0  4.026564  0
C  C98  1  0.57298680  0.84974064  0.50339162  1  0.006479  0  -0.089736  -0.130856  0  3.994437  0
C  C99  1  0.49796993  0.88827612  0.50256033  1  0.209361  0  -0.002322  0.077064  0  4.085395  0
C  C100  1  0.42444667  0.84719625  0.50156930  1  0.004685  0  -0.00154  0.131716  0  3.923103  0
C  C101  1  0.42904027  0.76939917  0.50120987  1  -0.012646  0  -0.087087  -0.15923  0  3.949674  0
C  C102  1  0.49814816  0.96723722  0.50235021  1  -0.060489  0  -0.044502  -0.104892  0  4.140971  0
C  C103  1  0.50082469  0.03540210  0.50179369  1  -0.347139  0  -0.044264  -0.105079  0  4.140242  0
C  C104  1  0.50392793  0.11427944  0.50088804  1  -0.023946  0  -0.003168  0.076856  0  4.085577  0
C  C105  1  0.57929389  0.15229112  0.49833644  1  0.032023  0  -0.000746  0.131972  0  3.920773  0
C  C106  1  0.57845568  0.23016992  0.49731537  1  -0.04144  0  -0.088309  -0.161464  0  3.95303  0
C  C107  1  0.50620101  0.27115619  0.49917680  1  -0.024144  0  -0.018165  -0.021459  0  3.981372  0
C  C108  1  0.43205584  0.23316268  0.50183557  1  -0.019478  0  -0.090917  -0.10423  0  4.020948  0
C  C109  1  0.43094385  0.15586216  0.50247492  1  0.039256  0  -0.089741  -0.130345  0  3.995196  0
C  C110  1  0.50843228  0.49911716  0.62398956  1  0.009899  0  -0.019916  -0.09858  0  3.907557  0
C  C111  1  0.49187605  0.49953177  0.83929808  1  0.044955  0  -0.020607  -0.09998  0  3.907357  0
C  C112  1  0.58101531  0.49236137  0.64643353  1  0.03177  0  0.001902  0.173402  0  3.92853  0
C  C113  1  0.57519165  0.49118822  0.68835652  1  -0.087446  0  -0.097334  -0.203571  0  3.937754  0
C  C114  1  0.41940786  0.49294511  0.81674728  1  -0.087833  0  0.002036  0.174579  0  3.927619  0
C  C115  1  0.42544972  0.49155980  0.77483333  1  0.023655  0  -0.097117  -0.203011  0  3.939342  0
C  C116  1  0.56590507  0.50497741  0.81865147  1  -0.119688  0  -0.090109  -0.08525  0  4.029009  0
C  C117  1  0.57003560  0.50451665  0.77708358  1  -0.017517  0  -0.100178  -0.147291  0  4.014093  0
C  C118  1  0.43452365  0.50517992  0.64473807  1  -0.000575  0  -0.090707  -0.086255  0  4.031229  0
C  C119  1  0.43061017  0.50496469  0.68630817  1  -0.00484  0  -0.099284  -0.146523  0  4.012969  0
C  C120  1  0.50158143  0.49762648  0.70941364  1  -0.004773  0  -0.005811  0.082286  0  4.007471  0
C  C121  1  0.49914967  0.49760272  0.75387344  1  -0.066649  0  -0.005819  0.081031  0  4.008339  0
C  C122  1  0.50804701  0.50519765  0.08659913  1  0.063617  0  -0.017957  -0.022142  0  3.981401  0
C  C123  1  0.43395930  0.50709325  0.10735276  1  0.056849  0  -0.090623  -0.103294  0  4.020289  0
C  C124  1  0.43311843  0.50505482  0.14888425  1  -0.045532  0  -0.088947  -0.129818  0  3.994596  0
C  C125  1  0.50631844  0.50176477  0.17094177  1  0.045082  0  -0.002852  0.077874  0  4.085585  0
C  C126  1  0.58165205  0.50045042  0.15024073  1  -0.027775  0  -0.001632  0.130133  0  3.92164  0
C  C127  1  0.58058213  0.50191743  0.10831617  1  -0.081152  0  -0.087992  -0.16145  0  3.952932  0
C  C128  1  0.50245998  0.50022880  0.21335052  1  -0.322966  0  -0.044729  -0.105825  0  4.144434  0
C  C129  1  0.49651287  0.49942713  0.24991540  1  -0.050238  0  -0.044465  -0.105524  0  4.144585  0
C  C130  1  0.49294822  0.49933866  0.29234041  1  0.10245  0  -0.002491  0.0781  0  4.085593  0
C  C131  1  0.41777222  0.49777709  0.31316690  1  -0.062106  0  -0.001778  0.129898  0  3.921427  0
C  C132  1  0.41917230  0.49817110  0.35509962  1  0.046865  0  -0.088564  -0.161777  0  3.953433  0
C  C133  1  0.49188699  0.50055648  0.37670298  1  0.023898  0  -0.017263  -0.020938  0  3.983219  0
C  C134  1  0.56583229  0.50230361  0.35583793  1  -0.11093  0  -0.090564  -0.103315  0  4.022694  0
C  C135  1  0.56633020  0.50136094  0.31429365  1  -0.038439  0  -0.088759  -0.12907  0  3.996446  0
C  C136  1  0.74795334  0.54200269  0.93220912  1  0.413018  0  0.05692  0.089595  0  3.945109  0
C  C137  1  0.83195993  0.54200625  0.93147280  1  0.03642  0  -0.073417  -0.170413  0  3.9494  0
C  C138  1  0.87514548  0.49821261  0.95937836  1  0.137348  0  0.01681  0.105659  0  4.077369  0
C  C139  1  0.83107145  0.45485495  0.98734623  1  -0.021553  0  0.011448  0.096084  0  3.913973  0
C  C140  1  0.74655983  0.45950147  0.98572386  1  0.575887  0  0.062278  0.038495  0  3.875715  0
C  C141  1  0.96099402  0.49902778  0.95945535  1  -0.188045  0  -0.026813  -0.083725  0  4.093678  0
C  C142  1  0.03498973  0.50116930  0.95996171  1  -0.177547  0  -0.026966  -0.085597  0  4.094398  0
C  C143  1  0.12073247  0.50356613  0.96141086  1  0.192191  0  0.017342  0.107177  0  4.078731  0
C  C144  1  0.16503356  0.55716958  0.93926873  1  0.005455  0  0.01083  0.094599  0  3.915871  0
C  C145  1  0.24937274  0.55562251  0.94302410  1  0.456921  0  0.061087  0.036679  0  3.879857  0
C  C146  1  0.24749466  0.45484819  0.98655749  1  0.45786  0  0.05646  0.088572  0  3.945526  0
C  C147  1  0.16353945  0.45228284  0.98547340  1  -0.035349  0  -0.073619  -0.170282  0  3.950748  0
C  C148  1  0.49661330  0.73461847  0.95972716  1  -0.049983  0  -0.017933  -0.02165  0  3.980673  0
C  C149  1  0.42408557  0.77559296  0.95786178  1  0.033623  0  -0.092082  -0.105419  0  4.024758  0
C  C150  1  0.42632187  0.85288380  0.95729090  1  -0.135628  0  -0.089009  -0.129555  0  3.992589  0
C  C151  1  0.50108794  0.89150164  0.95833485  1  0.1425  0  -0.002403  0.077777  0  4.082727  0
C  C152  1  0.57479417  0.85047324  0.95998157  1  0.084829  0  -0.00137  0.130946  0  3.923285  0
C  C153  1  0.57060500  0.77269162  0.96084011  1  -0.004754  0  -0.087098  -0.159223  0  3.948825  0
C  C154  1  0.50061120  0.97048279  0.95829907  1  -0.293832  0  -0.044635  -0.106289  0  4.140694  0
C  C155  1  0.49809174  0.03866457  0.95900281  1  -0.116262  0  -0.043755  -0.103391  0  4.139172  0
C  C156  1  0.49544436  0.11758190  0.96042501  1  0.077254  0  -0.002568  0.076848  0  4.083425  0
C  C157  1  0.42037931  0.15628020  0.96364772  1  0.057037  0  -0.001701  0.131047  0  3.92075  0
C  C158  1  0.42173700  0.23412836  0.96536971  1  -0.09552  0  -0.08783  -0.159944  0  3.953338  0
C  C159  1  0.49421693  0.27448128  0.96354905  1  0.000922  0  -0.017993  -0.022317  0  3.981984  0
C  C160  1  0.56805319  0.23581727  0.96020398  1  -0.018078  0  -0.091341  -0.104407  0  4.020505  0
C  C161  1  0.56865246  0.15850646  0.95887554  1  -0.115652  0  -0.089436  -0.129578  0  3.993924  0
C  C162  1  0.12980752  0.40230180  0.44476727  1  -0.046236  0  -0.229503  -0.409063  0  3.9722  0
C  C163  1  0.87515630  0.61075641  0.55052901  1  -0.072876  0  -0.228981  -0.40932  0  3.972725  0
C  C164  1  0.34317610  0.88555530  0.50091710  1  -0.058067  0  -0.236727  -0.406616  0  3.984833  0
C  C165  1  0.65854288  0.11054851  0.49715835  1  -0.069104  0  -0.237407  -0.406156  0  3.985619  0
C  C166  1  0.66103971  0.49767631  0.17248590  1  -0.051862  0  -0.237121  -0.405616  0  3.983979  0
C  C167  1  0.33821058  0.49596943  0.29104717  1  -0.031848  0  -0.237312  -0.406195  0  3.986088  0
C  C168  1  0.87122318  0.40564008  0.01778753  1  -0.02107  0  -0.22936  -0.408528  0  3.97151  0
C  C169  1  0.12490106  0.61306039  0.91237460  1  -0.039655  0  -0.229162  -0.408668  0  3.972909  0
C  C170  1  0.65587095  0.88881874  0.96077063  1  -0.051007  0  -0.237263  -0.404768  0  3.986401  0
C  C171  1  0.34094920  0.11516052  0.96470771  1  -0.093152  0  -0.237084  -0.406385  0  3.985692  0
C  C172  1  0.66433390  0.48699449  0.62802768  1  -0.082935  0  -0.242992  -0.407668  0  3.993159  0
C  C173  1  0.33595162  0.48809166  0.83501123  1  -0.051151  0  -0.242664  -0.407738  0  3.993101  0
N  N174  1  0.29413060  0.49866466  0.50385232  1  -1.232056  0  -0.314546  -0.178831  0  3.535929  0
N  N175  1  0.71092142  0.50227345  0.49769736  1  -1.23578  0  -0.315269  -0.180577  0  3.536769  0
N  N176  1  0.70621299  0.50158085  0.95916725  1  -1.239411  0  -0.315267  -0.178434  0  3.537657  0
N  N177  1  0.28946962  0.50589874  0.96560036  1  -1.228554  0  -0.314286  -0.178405  0  3.534934  0
O  O178  1  0.57377844  0.61601876  0.50599939  1  -1.177321  0  -0.321355  -0.556668  0  2.318294  0
O  O179  1  0.43738250  0.61454094  0.49686419  1  -1.165957  0  -0.320273  -0.549362  0  2.323101  0
O  O180  1  0.43592288  0.51159306  0.56292392  1  -1.170078  0  -0.323303  -0.557639  0  2.331067  0
O  O181  1  0.57097430  0.48967806  0.55959397  1  -1.170178  0  -0.311414  -0.5385  0  2.35221  0
O  O182  1  0.44054856  0.38828384  0.50468040  1  -1.167918  0  -0.320445  -0.552272  0  2.32548  0
O  O183  1  0.57601410  0.38623232  0.49253178  1  -1.169854  0  -0.321219  -0.554329  0  2.317365  0
O  O184  1  0.56017773  0.51100588  0.43878070  1  -1.165664  0  -0.321009  -0.549778  0  2.329765  0
O  O185  1  0.42411878  0.49230258  0.43953550  1  -1.174941  0  -0.32  -0.553737  0  2.318041  0
O  O186  1  0.42666874  0.61909790  0.95647354  1  -1.178272  0  -0.321015  -0.55676  0  2.321222  0
O  O187  1  0.56294822  0.61789820  0.96600711  1  -1.167864  0  -0.320356  -0.549206  0  2.321913  0
O  O188  1  0.56396711  0.51319561  0.90043582  1  -1.1679  0  -0.323249  -0.558147  0  2.33023  0
O  O189  1  0.42912836  0.49079501  0.90365478  1  -1.163288  0  -0.311391  -0.538699  0  2.351458  0
O  O190  1  0.56042749  0.39114612  0.95875617  1  -1.16754  0  -0.320288  -0.552609  0  2.323567  0
O  O191  1  0.42509797  0.39006568  0.97130193  1  -1.168761  0  -0.321705  -0.554987  0  2.317628  0
O  O192  1  0.44025315  0.51667705  0.02445689  1  -1.168403  0  -0.320985  -0.550727  0  2.329821  0
O  O193  1  0.57618616  0.49673249  0.02379601  1  -1.166374  0  -0.320444  -0.553669  0  2.314767  0
