# generated using pymatgen
data_H24PbC24(N3O2)2
_symmetry_space_group_name_H-M   'P 1'
_cell_length_a   7.65399668
_cell_length_b   10.67935950
_cell_length_c   15.24810969
_cell_angle_alpha   110.50142129
_cell_angle_beta   93.90093399
_cell_angle_gamma   90.00515371
_symmetry_Int_Tables_number   1
_chemical_formula_structural   H24PbC24(N3O2)2
_chemical_formula_sum   'H48 Pb2 C48 N12 O8'
_cell_volume   1164.34972989
_cell_formula_units_Z   2
loop_
 _symmetry_equiv_pos_site_id
 _symmetry_equiv_pos_as_xyz
  1  'x, y, z'
loop_
 _atom_site_type_symbol
 _atom_site_label
 _atom_site_symmetry_multiplicity
 _atom_site_fract_x
 _atom_site_fract_y
 _atom_site_fract_z
 _atom_site_occupancy
 _atom_site_hle17_bader_spin_density
 _atom_site_hle17_ddec_charge
 _atom_site_hle17_ddec_spin_density
 _atom_site_hle17_ddec_sum_bond_order
 _atom_site_hle17_magmom
 _atom_site_hse06_10hf_bader_spin_density
 _atom_site_hse06_10hf_ddec_charge
 _atom_site_hse06_10hf_ddec_spin_density
 _atom_site_hse06_10hf_ddec_sum_bond_order
 _atom_site_hse06_10hf_magmom
 _atom_site_hse06_bader_spin_density
 _atom_site_hse06_ddec_charge
 _atom_site_hse06_ddec_spin_density
 _atom_site_hse06_ddec_sum_bond_order
 _atom_site_hse06_magmom
 _atom_site_pbe_bader_spin_density
 _atom_site_pbe_cm5_charge
 _atom_site_pbe_ddec_charge
 _atom_site_pbe_ddec_spin_density
 _atom_site_pbe_ddec_sum_bond_order
 _atom_site_pbe_magmom
H  H0  1  0.47392757  0.67430204  0.00631465  1  0  0.064471  0  0.953877  0  0  0.07167  0  1.023314  0  0  0.074361  0  1.02085  0  0  0.107571  0.06977  0  1.024916  0
H  H1  1  0.02626449  0.66744729  0.99350497  1  0  0.064459  0  0.95474  0  0  0.071803  0  1.023997  0  0  0.074508  0  1.021486  0  0  0.107462  0.069859  0  1.025686  0
H  H2  1  0.52616571  0.32566841  0.99366950  1  0  0.06463  0  0.953802  0  0  0.071766  0  1.023263  0  0  0.074463  0  1.020789  0  0  0.107607  0.069862  0  1.024866  0
H  H3  1  0.97388681  0.33257319  0.00648238  1  0  0.064474  0  0.954681  0  0  0.071719  0  1.02404  0  0  0.074439  0  1.02149  0  0  0.107484  0.06977  0  1.025735  0
H  H4  1  0.33848598  0.51919611  0.07533745  1  0  0.090992  0  0.979299  0  0  0.099897  0  1.045168  0  0  0.102529  0  1.045706  0  0  0.096565  0.098039  0  1.044855  0
H  H5  1  0.16163409  0.44326386  0.92439801  1  0  0.091338  0  0.979046  0  0  0.10012  0  1.04508  0  0  0.102759  0  1.045602  0  0  0.096522  0.098209  0  1.044882  0
H  H6  1  0.66151680  0.48077035  0.92464460  1  0  0.091172  0  0.97909  0  0  0.100028  0  1.045054  0  0  0.102655  0  1.045596  0  0  0.096641  0.098172  0  1.044744  0
H  H7  1  0.83837420  0.55667167  0.07556019  1  0  0.0914  0  0.979352  0  0  0.100174  0  1.045375  0  0  0.102817  0  1.045892  0  0  0.096506  0.098267  0  1.045177  0
H  H8  1  0.36808228  0.58168011  0.25137690  1  0  0.087338  0  0.949625  0  0  0.101463  0  1.004279  0  0  0.103544  0  1.003256  0  0  0.103018  0.100043  0  1.004828  0
H  H9  1  0.13198490  0.32981312  0.74835364  1  0  0.088159  0  0.949708  0  0  0.102036  0  1.00457  0  0  0.104144  0  1.003514  0  0  0.102991  0.100588  0  1.005145  0
H  H10  1  0.63191835  0.41826139  0.74858841  1  0  0.087438  0  0.949564  0  0  0.101525  0  1.004251  0  0  0.103602  0  1.003235  0  0  0.103036  0.100113  0  1.0048  0
H  H11  1  0.86796331  0.67016550  0.25159413  1  0  0.088257  0  0.949655  0  0  0.102083  0  1.004556  0  0  0.104185  0  1.003508  0  0  0.103076  0.100635  0  1.005133  0
H  H12  1  0.53143272  0.79464782  0.34915634  1  0  0.116616  0  1.015384  0  0  0.115174  0  1.092468  0  0  0.119956  0  1.089948  0  0  0.102764  0.111823  0  1.094292  0
H  H13  1  0.96864507  0.44508525  0.65064319  1  0  0.115787  0  1.015474  0  0  0.115091  0  1.09197  0  0  0.119756  0  1.08956  0  0  0.102754  0.111741  0  1.09388  0
H  H14  1  0.46865563  0.20525457  0.65082264  1  0  0.116337  0  1.015468  0  0  0.114886  0  1.092602  0  0  0.119674  0  1.090084  0  0  0.102568  0.111539  0  1.094427  0
H  H15  1  0.03144258  0.55502734  0.34934244  1  0  0.115714  0  1.015514  0  0  0.115033  0  1.092011  0  0  0.119702  0  1.089586  0  0  0.102749  0.111683  0  1.09391  0
H  H16  1  0.71941269  0.01025337  0.23090304  1  0  0.297459  0  0.949752  0  0  0.276342  0  1.019705  0  0  0.284107  0  1.013901  0  0  0.306257  0.270934  0  1.023739  0
H  H17  1  0.78088308  0.77897482  0.76899938  1  0  0.29715  0  0.950403  0  0  0.27624  0  1.019729  0  0  0.283971  0  1.013944  0  0  0.306484  0.270865  0  1.023755  0
H  H18  1  0.28055914  0.98972704  0.76909844  1  0  0.297221  0  0.950161  0  0  0.276198  0  1.019995  0  0  0.283966  0  1.014193  0  0  0.306188  0.270791  0  1.024022  0
H  H19  1  0.21906156  0.22101452  0.23102043  1  0  0.297332  0  0.950432  0  0  0.276323  0  1.019916  0  0  0.284055  0  1.014126  0  0  0.30646  0.270949  0  1.023941  0
H  H20  1  0.70445461  0.99440207  0.57248802  1  0  0.060103  0  0.957523  0  0  0.066825  0  1.02829  0  0  0.069293  0  1.02606  0  0  0.103611  0.064921  0  1.030121  0
H  H21  1  0.79559974  0.42170353  0.42733141  1  0  0.060087  0  0.957677  0  0  0.067223  0  1.028135  0  0  0.069594  0  1.026022  0  0  0.103515  0.065303  0  1.030042  0
H  H22  1  0.29576491  0.00546823  0.42750260  1  0  0.059962  0  0.957336  0  0  0.066758  0  1.028076  0  0  0.06923  0  1.025844  0  0  0.103599  0.064847  0  1.029913  0
H  H23  1  0.20439225  0.57836900  0.57265942  1  0  0.060163  0  0.9579  0  0  0.067328  0  1.028283  0  0  0.069717  0  1.026145  0  0  0.103686  0.06541  0  1.03018  0
H  H24  1  0.89983470  0.19853549  0.62625554  1  0  0.095488  0  0.969103  0  0  0.108803  0  1.027432  0  0  0.111317  0  1.02805  0  0  0.098985  0.107025  0  1.027123  0
H  H25  1  0.60043079  0.57233163  0.37366152  1  0  0.09596  0  0.968876  0  0  0.109047  0  1.027395  0  0  0.111509  0  1.028048  0  0  0.098988  0.107249  0  1.027135  0
H  H26  1  0.10030369  0.80137487  0.37373170  1  0  0.095718  0  0.968593  0  0  0.109045  0  1.026938  0  0  0.111562  0  1.027551  0  0  0.099149  0.107262  0  1.026634  0
H  H27  1  0.39949393  0.42780383  0.62636813  1  0  0.095905  0  0.969311  0  0  0.109054  0  1.02771  0  0  0.111508  0  1.028372  0  0  0.098931  0.107311  0  1.027397  0
H  H28  1  0.99842177  0.28806273  0.50406152  1  0  0.090206  0  0.963252  0  0  0.101412  0  1.023983  0  0  0.103237  0  1.023376  0  0  0.103582  0.100069  0  1.024435  0
H  H29  1  0.50170926  0.78383263  0.49596758  1  0  0.089934  0  0.962497  0  0  0.101399  0  1.023058  0  0  0.103226  0  1.022442  0  0  0.10384  0.100021  0  1.023611  0
H  H30  1  0.00157208  0.71191065  0.49594226  1  0  0.090228  0  0.963224  0  0  0.10151  0  1.023835  0  0  0.103339  0  1.023222  0  0  0.103545  0.100135  0  1.024364  0
H  H31  1  0.49816350  0.21619958  0.50409906  1  0  0.090019  0  0.962393  0  0  0.101602  0  1.022785  0  0  0.103428  0  1.022166  0  0  0.10385  0.100223  0  1.023343  0
H  H32  1  0.89215855  0.17034407  0.33558712  1  0  0.121839  0  0.95879  0  0  0.129005  0  1.021206  0  0  0.13355  0  1.019166  0  0  0.104625  0.125751  0  1.022871  0
H  H33  1  0.60792299  0.83440583  0.66442927  1  0  0.122166  0  0.957995  0  0  0.129153  0  1.020686  0  0  0.133782  0  1.018517  0  0  0.104899  0.125888  0  1.022328  0
H  H34  1  0.10768364  0.82971337  0.66443028  1  0  0.121711  0  0.959062  0  0  0.128867  0  1.021455  0  0  0.133415  0  1.019408  0  0  0.10454  0.125621  0  1.023104  0
H  H35  1  0.39191130  0.16557340  0.33561903  1  0  0.122136  0  0.957829  0  0  0.129113  0  1.020464  0  0  0.133723  0  1.018313  0  0  0.104978  0.12586  0  1.022085  0
H  H36  1  0.66656452  0.32614911  0.27939746  1  0  0.132046  0  0.955575  0  0  0.150556  0  1.017574  0  0  0.152653  0  1.01711  0  0  0.094721  0.149108  0  1.017898  0
H  H37  1  0.83386762  0.04696600  0.72056140  1  0  0.131512  0  0.955863  0  0  0.150402  0  1.017584  0  0  0.152467  0  1.01716  0  0  0.094678  0.148946  0  1.017916  0
H  H38  1  0.33350985  0.67388135  0.72060087  1  0  0.13196  0  0.955636  0  0  0.150421  0  1.017745  0  0  0.152522  0  1.017276  0  0  0.094693  0.148972  0  1.01807  0
H  H39  1  0.16619008  0.95303639  0.27944582  1  0  0.131379  0  0.95576  0  0  0.150246  0  1.017547  0  0  0.15231  0  1.017122  0  0  0.094604  0.148794  0  1.017878  0
H  H40  1  0.47143632  0.31776190  0.20535222  1  0  0.130472  0  0.971401  0  0  0.146569  0  1.037755  0  0  0.148796  0  1.037181  0  0  0.096246  0.14503  0  1.038016  0
H  H41  1  0.02892470  0.11262992  0.79468918  1  0  0.130632  0  0.97142  0  0  0.146476  0  1.038089  0  0  0.148738  0  1.037488  0  0  0.096399  0.144936  0  1.038335  0
H  H42  1  0.52856292  0.68225436  0.79469447  1  0  0.130297  0  0.971584  0  0  0.146399  0  1.037931  0  0  0.148617  0  1.037366  0  0  0.096207  0.144853  0  1.038204  0
H  H43  1  0.97111328  0.88737032  0.20535554  1  0  0.130677  0  0.971353  0  0  0.146561  0  1.037916  0  0  0.148826  0  1.037309  0  0  0.096386  0.145021  0  1.038168  0
H  H44  1  0.66675454  0.38893961  0.18523681  1  0  0.130759  0  0.973109  0  0  0.149601  0  1.036667  0  0  0.150554  0  1.038769  0  0  0.094627  0.14894  0  1.035199  0
H  H45  1  0.83356671  0.20381145  0.81483806  1  0  0.130333  0  0.972708  0  0  0.149451  0  1.036237  0  0  0.150411  0  1.038338  0  0  0.094611  0.148772  0  1.034765  0
H  H46  1  0.33321670  0.61106189  0.81474429  1  0  0.130777  0  0.973027  0  0  0.149602  0  1.03661  0  0  0.150556  0  1.038708  0  0  0.094588  0.148943  0  1.035142  0
H  H47  1  0.16647179  0.79620397  0.18516779  1  0  0.130214  0  0.972743  0  0  0.149299  0  1.036305  0  0  0.150261  0  1.038401  0  0  0.094569  0.148628  0  1.03483  0
Pb  Pb48  1  0.75003619  0.90973946  0.99992272  1  0  1.291169  0  1.420714  0  0  1.085755  0  1.821323  0  0  1.151588  0  1.77762  0  0  0.6271  1.038558  0  1.851389  0
Pb  Pb49  1  0.24962137  0.09031822  0.00004186  1  0  1.291122  0  1.420521  0  0  1.085722  0  1.821049  0  0  1.151543  0  1.777381  0  0  0.627086  1.038511  0  1.851094  0
C  C50  1  0.48685676  0.69486879  0.08195219  1  0  0.129337  0  3.796153  0  0  0.104063  0  4.049984  0  0  0.112303  0  4.068007  0  0  0.037354  0.09889  0  4.037328  0
C  C51  1  0.01338085  0.61242988  0.91786270  1  0  0.12846  0  3.797322  0  0  0.103094  0  4.0511  0  0  0.111335  0  4.069125  0  0  0.037242  0.09791  0  4.038542  0
C  C52  1  0.51316201  0.30510564  0.91803762  1  0  0.129373  0  3.795643  0  0  0.104221  0  4.049398  0  0  0.11246  0  4.067419  0  0  0.037412  0.099053  0  4.036734  0
C  C53  1  0.98670314  0.38757557  0.08213110  1  0  0.128582  0  3.797431  0  0  0.103349  0  4.051085  0  0  0.111591  0  4.069127  0  0  0.037315  0.098172  0  4.038515  0
C  C54  1  0.41033356  0.60921452  0.12022364  1  0  -0.174766  0  3.791611  0  0  -0.187638  0  4.04327  0  0  -0.197099  0  4.066452  0  0  -0.11114  -0.181479  0  4.027481  0
C  C55  1  0.08987000  0.48850435  0.87954366  1  0  -0.175339  0  3.791946  0  0  -0.188104  0  4.043433  0  0  -0.197578  0  4.066663  0  0  -0.111101  -0.182002  0  4.027795  0
C  C56  1  0.58969790  0.39074796  0.87975053  1  0  -0.175135  0  3.79146  0  0  -0.188029  0  4.043225  0  0  -0.19749  0  4.066404  0  0  -0.111311  -0.181871  0  4.027445  0
C  C57  1  0.91013024  0.51146417  0.12042504  1  0  -0.175372  0  3.792031  0  0  -0.188176  0  4.043434  0  0  -0.19765  0  4.066653  0  0  -0.110984  -0.182091  0  4.027813  0
C  C58  1  0.42766425  0.64438069  0.21790038  1  0  0.000853  0  3.781294  0  0  -0.014705  0  4.025306  0  0  -0.009062  0  4.043575  0  0  -0.077197  -0.018009  0  4.012518  0
C  C59  1  0.07249360  0.42601892  0.78186378  1  0  8.4e-05  0  3.781357  0  0  -0.015038  0  4.02535  0  0  -0.009433  0  4.043634  0  0  -0.076962  -0.018363  0  4.012625  0
C  C60  1  0.57234495  0.35558178  0.78207762  1  0  0.000827  0  3.781217  0  0  -0.014679  0  4.025211  0  0  -0.009034  0  4.043473  0  0  -0.07716  -0.017996  0  4.012442  0
C  C61  1  0.92752210  0.57398061  0.21810982  1  0  -0.000157  0  3.780897  0  0  -0.015276  0  4.024968  0  0  -0.009664  0  4.043235  0  0  -0.077218  -0.0186  0  4.012247  0
C  C62  1  0.51696557  0.76159522  0.27305960  1  0  -0.233386  0  3.701845  0  0  -0.246017  0  3.952675  0  0  -0.2567  0  3.971062  0  0  -0.101214  -0.239117  0  3.940341  0
C  C63  1  0.98321212  0.48811619  0.72673387  1  0  -0.231268  0  3.700932  0  0  -0.245117  0  3.951626  0  0  -0.25569  0  3.970082  0  0  -0.101267  -0.238315  0  3.939421  0
C  C64  1  0.48305249  0.23835820  0.72692958  1  0  -0.233179  0  3.70151  0  0  -0.245829  0  3.952248  0  0  -0.256512  0  3.970614  0  0  -0.101212  -0.238943  0  3.939944  0
C  C65  1  0.01687902  0.51194534  0.27325238  1  0  -0.23119  0  3.700619  0  0  -0.244993  0  3.95121  0  0  -0.255553  0  3.96967  0  0  -0.101141  -0.238182  0  3.939003  0
C  C66  1  0.59160613  0.84182237  0.22805199  1  0  0.425205  0  3.778087  0  0  0.399849  0  4.03718  0  0  0.418257  0  4.050907  0  0  0.226846  0.38756  0  4.027609  0
C  C67  1  0.90860184  0.61335555  0.77179723  1  0  0.423671  0  3.77961  0  0  0.398797  0  4.038118  0  0  0.417251  0  4.051735  0  0  0.225664  0.386532  0  4.02855  0
C  C68  1  0.40835295  0.15816805  0.77194956  1  0  0.425227  0  3.778438  0  0  0.400049  0  4.037361  0  0  0.418458  0  4.051094  0  0  0.227051  0.387772  0  4.02778  0
C  C69  1  0.09145997  0.38669088  0.22821118  1  0  0.424105  0  3.778478  0  0  0.399306  0  4.036922  0  0  0.417726  0  4.05058  0  0  0.225913  0.387023  0  4.027385  0
C  C70  1  0.74941848  0.03711714  0.52232455  1  0  0.128452  0  3.790091  0  0  0.10129  0  4.056476  0  0  0.108951  0  4.073664  0  0  0.036451  0.096407  0  4.04495  0
C  C71  1  0.75066916  0.51459533  0.47753635  1  0  0.128601  0  3.790613  0  0  0.101286  0  4.056846  0  0  0.109011  0  4.074044  0  0  0.037017  0.096385  0  4.045323  0
C  C72  1  0.25072825  0.96276918  0.47766557  1  0  0.128139  0  3.789984  0  0  0.101014  0  4.056328  0  0  0.108667  0  4.073528  0  0  0.036391  0.096133  0  4.0448  0
C  C73  1  0.24931236  0.48547718  0.52246263  1  0  0.12844  0  3.791272  0  0  0.10105  0  4.057569  0  0  0.108771  0  4.07475  0  0  0.036779  0.096149  0  4.046067  0
C  C74  1  0.85821819  0.15052094  0.55223300  1  0  -0.162424  0  3.769474  0  0  -0.17625  0  4.019575  0  0  -0.185483  0  4.042773  0  0  -0.105777  -0.170564  0  4.004155  0
C  C75  1  0.64199201  0.59817125  0.44767911  1  0  -0.163639  0  3.771609  0  0  -0.177444  0  4.022096  0  0  -0.186623  0  4.045293  0  0  -0.105904  -0.171688  0  4.006646  0
C  C76  1  0.14188914  0.84940039  0.44776442  1  0  -0.162793  0  3.769327  0  0  -0.176667  0  4.019481  0  0  -0.185911  0  4.04269  0  0  -0.106157  -0.170975  0  4.004056  0
C  C77  1  0.35795935  0.40190018  0.55234219  1  0  -0.163684  0  3.772289  0  0  -0.177508  0  4.022702  0  0  -0.186684  0  4.045907  0  0  -0.105828  -0.171799  0  4.007247  0
C  C78  1  0.91187815  0.20005311  0.48427097  1  0  0.007684  0  3.765275  0  0  -0.010799  0  4.014863  0  0  -0.005227  0  4.033787  0  0  -0.074379  -0.014013  0  4.001958  0
C  C79  1  0.58826551  0.71558665  0.51571327  1  0  0.009029  0  3.765532  0  0  -0.009484  0  4.015102  0  0  -0.003878  0  4.033997  0  0  -0.074536  -0.01274  0  4.00216  0
C  C80  1  0.08812701  0.79990627  0.51572909  1  0  0.007708  0  3.765229  0  0  -0.010842  0  4.01484  0  0  -0.005265  0  4.033761  0  0  -0.07421  -0.014061  0  4.001915  0
C  C81  1  0.41162928  0.28443862  0.48433667  1  0  0.009085  0  3.766029  0  0  -0.009525  0  4.015588  0  0  -0.003922  0  4.034487  0  0  -0.074463  -0.012782  0  4.002675  0
C  C82  1  0.85367243  0.13591271  0.39108633  1  0  -0.233244  0  3.701347  0  0  -0.247099  0  3.95183  0  0  -0.257857  0  3.971952  0  0  -0.099368  -0.240077  0  3.938354  0
C  C83  1  0.64641125  0.74452264  0.60889158  1  0  -0.233909  0  3.702287  0  0  -0.247895  0  3.952685  0  0  -0.258734  0  3.972767  0  0  -0.099586  -0.240729  0  3.93915  0
C  C84  1  0.14626089  0.86409069  0.60892476  1  0  -0.233046  0  3.701762  0  0  -0.246897  0  3.95212  0  0  -0.257656  0  3.97224  0  0  -0.099334  -0.239874  0  3.938617  0
C  C85  1  0.35346307  0.25547861  0.39115697  1  0  -0.234114  0  3.702428  0  0  -0.248087  0  3.95294  0  0  -0.258903  0  3.972983  0  0  -0.099871  -0.240931  0  3.939418  0
C  C86  1  0.74163045  0.02175913  0.36797524  1  0  0.404284  0  3.812732  0  0  0.383044  0  4.068224  0  0  0.399608  0  4.083919  0  0  0.22205  0.372098  0  4.057167  0
C  C87  1  0.75847649  0.65343603  0.63192531  1  0  0.404507  0  3.812945  0  0  0.383751  0  4.067283  0  0  0.400345  0  4.082921  0  0  0.222373  0.372778  0  4.056264  0
C  C88  1  0.25837065  0.97819625  0.63202434  1  0  0.404177  0  3.813195  0  0  0.383114  0  4.068517  0  0  0.399683  0  4.084224  0  0  0.222132  0.372162  0  4.05746  0
C  C89  1  0.24148767  0.34658833  0.36809792  1  0  0.40479  0  3.813013  0  0  0.384143  0  4.067248  0  0  0.400733  0  4.082883  0  0  0.222632  0.373176  0  4.056233  0
C  C90  1  0.66520063  0.17642836  0.14080692  1  0  0.765881  0  3.804949  0  0  0.720801  0  4.094696  0  0  0.756264  0  4.086689  0  0  0.218637  0.696618  0  4.09938  0
C  C91  1  0.83508968  0.03554538  0.85903863  1  0  0.763848  0  3.80843  0  0  0.720245  0  4.096129  0  0  0.755669  0  4.08821  0  0  0.218777  0.696083  0  4.100734  0
C  C92  1  0.33475306  0.82359608  0.85919565  1  0  0.765267  0  3.804809  0  0  0.720346  0  4.094379  0  0  0.755801  0  4.086384  0  0  0.21845  0.696162  0  4.099057  0
C  C93  1  0.16488617  0.96447609  0.14095609  1  0  0.763769  0  3.80863  0  0  0.720045  0  4.096559  0  0  0.755481  0  4.088622  0  0  0.218616  0.695881  0  4.101182  0
C  C94  1  0.61423602  0.31016004  0.20765783  1  0  -0.45326  0  3.647719  0  0  -0.528841  0  3.877576  0  0  -0.535517  0  3.880013  0  0  -0.249814  -0.524094  0  3.875645  0
C  C95  1  0.88612298  0.10263704  0.79233073  1  0  -0.452062  0  3.64881  0  0  -0.528473  0  3.878159  0  0  -0.535176  0  3.880614  0  0  -0.24978  -0.523715  0  3.876201  0
C  C96  1  0.38576736  0.68986237  0.79235183  1  0  -0.452803  0  3.64762  0  0  -0.528488  0  3.877573  0  0  -0.535163  0  3.880032  0  0  -0.249663  -0.52373  0  3.875642  0
C  C97  1  0.11390752  0.89737435  0.20767845  1  0  -0.451861  0  3.648299  0  0  -0.528182  0  3.877829  0  0  -0.534885  0  3.880276  0  0  -0.249699  -0.52343  0  3.875876  0
N  N98  1  0.57741059  0.80705042  0.13327715  1  0  -0.453854  0  3.115282  0  0  -0.397726  0  3.376436  0  0  -0.417744  0  3.393382  0  0  -0.321175  -0.38413  0  3.364572  0
N  N99  1  0.92283108  0.67332358  0.86657037  1  0  -0.452674  0  3.114065  0  0  -0.39686  0  3.375171  0  0  -0.416841  0  3.392055  0  0  -0.320662  -0.383253  0  3.363291  0
N  N100  1  0.42255266  0.19294704  0.86671382  1  0  -0.453764  0  3.11547  0  0  -0.397703  0  3.376526  0  0  -0.417721  0  3.393474  0  0  -0.321185  -0.3841  0  3.364641  0
N  N101  1  0.07726565  0.32670984  0.13343536  1  0  -0.452862  0  3.113864  0  0  -0.396995  0  3.374835  0  0  -0.416987  0  3.391754  0  0  -0.320821  -0.38336  0  3.362915  0
N  N102  1  0.68447673  0.95992422  0.27407378  1  0  -0.466866  0  3.352019  0  0  -0.408518  0  3.587277  0  0  -0.430581  0  3.595737  0  0  -0.398581  -0.393185  0  3.580671  0
N  N103  1  0.81572534  0.68545651  0.72580477  1  0  -0.466771  0  3.353781  0  0  -0.408325  0  3.588053  0  0  -0.430497  0  3.596748  0  0  -0.398074  -0.393051  0  3.581554  0
N  N104  1  0.31548890  0.04006620  0.72592734  1  0  -0.466894  0  3.352442  0  0  -0.40882  0  3.587727  0  0  -0.430882  0  3.596157  0  0  -0.398597  -0.393498  0  3.581134  0
N  N105  1  0.18427770  0.31455588  0.27420765  1  0  -0.467256  0  3.353501  0  0  -0.409036  0  3.588163  0  0  -0.431189  0  3.596842  0  0  -0.398183  -0.393747  0  3.581646  0
N  N106  1  0.69101456  0.97291772  0.43244473  1  0  -0.407141  0  3.069808  0  0  -0.364864  0  3.335011  0  0  -0.380338  0  3.349308  0  0  -0.328709  -0.354414  0  3.325254  0
N  N107  1  0.80905468  0.54014114  0.56740573  1  0  -0.407192  0  3.068264  0  0  -0.365409  0  3.333628  0  0  -0.380845  0  3.347796  0  0  -0.329562  -0.354941  0  3.323912  0
N  N108  1  0.30911207  0.02699361  0.56755219  1  0  -0.406407  0  3.069405  0  0  -0.36427  0  3.334599  0  0  -0.379719  0  3.348849  0  0  -0.328612  -0.353842  0  3.324883  0
N  N109  1  0.19096975  0.45992236  0.43258922  1  0  -0.407119  0  3.068632  0  0  -0.365231  0  3.333793  0  0  -0.380668  0  3.347962  0  0  -0.329572  -0.354773  0  3.32408  0
O  O110  1  0.58811149  0.13275189  0.05801268  1  0  -0.689266  0  1.993763  0  0  -0.604435  0  2.230789  0  0  -0.63926  0  2.224776  0  0  -0.294044  -0.580068  0  2.2341  0
O  O111  1  0.91198243  0.07464388  0.94189869  1  0  -0.688396  0  1.995883  0  0  -0.60431  0  2.232827  0  0  -0.639152  0  2.226778  0  0  -0.294159  -0.579944  0  2.236173  0
O  O112  1  0.41178781  0.86729054  0.94200033  1  0  -0.68908  0  1.994322  0  0  -0.604168  0  2.231152  0  0  -0.638984  0  2.225127  0  0  -0.29383  -0.579804  0  2.234471  0
O  O113  1  0.08796047  0.92537155  0.05810521  1  0  -0.688362  0  1.99554  0  0  -0.604302  0  2.232545  0  0  -0.639141  0  2.226488  0  0  -0.294126  -0.579937  0  2.235897  0
O  O114  1  0.78485734  0.11090141  0.16624234  1  0  -0.651139  0  1.93623  0  0  -0.582567  0  2.15702  0  0  -0.610487  0  2.149002  0  0  -0.306079  -0.563209  0  2.161993  0
O  O115  1  0.71554011  0.94450105  0.83348670  1  0  -0.649761  0  1.934999  0  0  -0.581868  0  2.155384  0  0  -0.609627  0  2.147192  0  0  -0.306191  -0.562591  0  2.160469  0
O  O116  1  0.21510638  0.88911011  0.83373770  1  0  -0.650882  0  1.936055  0  0  -0.582325  0  2.156716  0  0  -0.610251  0  2.148707  0  0  -0.306034  -0.562948  0  2.161668  0
O  O117  1  0.28440506  0.05554248  0.16650126  1  0  -0.649784  0  1.935305  0  0  -0.581814  0  2.15573  0  0  -0.609572  0  2.147527  0  0  -0.306174  -0.56254  0  2.160821  0
