# generated using pymatgen
data_NdH23C14O9
_symmetry_space_group_name_H-M   'P 1'
_cell_length_a   8.61791168
_cell_length_b   8.86468455
_cell_length_c   11.77091716
_cell_angle_alpha   108.71289761
_cell_angle_beta   89.99983343
_cell_angle_gamma   90.00011803
_symmetry_Int_Tables_number   1
_chemical_formula_structural   NdH23C14O9
_chemical_formula_sum   'Nd2 H46 C28 O18'
_cell_volume   851.70447023
_cell_formula_units_Z   2
loop_
 _symmetry_equiv_pos_site_id
 _symmetry_equiv_pos_as_xyz
  1  'x, y, z'
loop_
 _atom_site_type_symbol
 _atom_site_label
 _atom_site_symmetry_multiplicity
 _atom_site_fract_x
 _atom_site_fract_y
 _atom_site_fract_z
 _atom_site_occupancy
 _atom_site_hle17_bader_spin_density
 _atom_site_hle17_ddec_charge
 _atom_site_hle17_ddec_spin_density
 _atom_site_hle17_ddec_sum_bond_order
 _atom_site_hle17_magmom
 _atom_site_hse06_10hf_bader_spin_density
 _atom_site_hse06_10hf_ddec_charge
 _atom_site_hse06_10hf_ddec_spin_density
 _atom_site_hse06_10hf_ddec_sum_bond_order
 _atom_site_hse06_10hf_magmom
 _atom_site_hse06_bader_spin_density
 _atom_site_hse06_ddec_charge
 _atom_site_hse06_ddec_spin_density
 _atom_site_hse06_ddec_sum_bond_order
 _atom_site_hse06_magmom
 _atom_site_pbe_bader_spin_density
 _atom_site_pbe_cm5_charge
 _atom_site_pbe_ddec_charge
 _atom_site_pbe_ddec_spin_density
 _atom_site_pbe_ddec_sum_bond_order
 _atom_site_pbe_magmom
Nd  Nd0  1  0.45683030  0.01124575  0.99513307  1  0  2.333947  0  1.526892  0  0  2.229873  0  1.87203  0  0  2.27317  0  1.830303  0  0  1.48999  2.142091  0  2.003999  0
Nd  Nd1  1  0.95683027  0.98875305  0.00486611  1  0  2.333953  0  1.526885  0  0  2.229878  0  1.872022  0  0  2.273169  0  1.830298  0  0  1.489989  2.142089  0  2.003996  0
H  H2  1  0.07875299  0.84786854  0.66625655  1  0  0.113348  0  0.939651  0  0  0.125342  0  1.00548  0  0  0.128439  0  1.003623  0  0  0.104997  0.123361  0  1.006601  0
H  H3  1  0.57874528  0.15213108  0.33373855  1  0  0.113312  0  0.939662  0  0  0.125333  0  1.005455  0  0  0.128429  0  1.003599  0  0  0.10499  0.123352  0  1.006576  0
H  H4  1  0.09187657  0.67067700  0.69948519  1  0  0.11624  0  0.937352  0  0  0.131392  0  0.997325  0  0  0.133787  0  0.996761  0  0  0.105569  0.129723  0  0.997697  0
H  H5  1  0.59187284  0.32932500  0.30051134  1  0  0.116186  0  0.937399  0  0  0.131339  0  0.997394  0  0  0.133732  0  0.99683  0  0  0.105568  0.129666  0  0.997775  0
H  H6  1  0.32303508  0.78046832  0.54132111  1  0  0.055675  0  0.953026  0  0  0.072399  0  1.021553  0  0  0.072981  0  1.022132  0  0  0.085422  0.072178  0  1.020785  0
H  H7  1  0.82302818  0.21953156  0.45867607  1  0  0.055613  0  0.95307  0  0  0.072359  0  1.021609  0  0  0.072938  0  1.022188  0  0  0.085411  0.072136  0  1.020836  0
H  H8  1  0.34901211  0.60934840  0.58287146  1  0  0.053076  0  0.953447  0  0  0.070594  0  1.020812  0  0  0.071311  0  1.020901  0  0  0.085349  0.070325  0  1.020014  0
H  H9  1  0.84900341  0.39065265  0.41712851  1  0  0.052981  0  0.953507  0  0  0.070515  0  1.020892  0  0  0.07123  0  1.020984  0  0  0.085337  0.070247  0  1.020085  0
H  H10  1  0.07866043  0.66466817  0.43076927  1  0  0.06007  0  0.948114  0  0  0.079033  0  1.011177  0  0  0.080088  0  1.011173  0  0  0.083992  0.07831  0  1.011279  0
H  H11  1  0.57865217  0.33532897  0.56923031  1  0  0.060029  0  0.948197  0  0  0.079029  0  1.011223  0  0  0.080082  0  1.011223  0  0  0.083996  0.078309  0  1.011325  0
H  H12  1  0.09333076  0.50101802  0.48376390  1  0  0.053649  0  0.954207  0  0  0.073023  0  1.020433  0  0  0.073313  0  1.021442  0  0  0.084763  0.07284  0  1.019373  0
H  H13  1  0.59332306  0.49898031  0.51623679  1  0  0.053617  0  0.954231  0  0  0.073013  0  1.020458  0  0  0.073302  0  1.021468  0  0  0.084775  0.072827  0  1.019407  0
H  H14  1  0.33255270  0.58306161  0.31919091  1  0  0.05816  0  0.937835  0  0  0.079013  0  0.996599  0  0  0.079449  0  0.997509  0  0  0.087034  0.078973  0  0.995401  0
H  H15  1  0.83254534  0.41693348  0.68080675  1  0  0.058194  0  0.937855  0  0  0.079061  0  0.996622  0  0  0.079502  0  0.997524  0  0  0.087042  0.079016  0  0.995422  0
H  H16  1  0.34930242  0.42708689  0.38008420  1  0  0.052694  0  0.952971  0  0  0.071236  0  1.020184  0  0  0.071598  0  1.020903  0  0  0.087346  0.071225  0  1.018967  0
H  H17  1  0.84929794  0.57290823  0.61991258  1  0  0.052744  0  0.952939  0  0  0.07129  0  1.020161  0  0  0.071652  0  1.020882  0  0  0.087382  0.071278  0  1.018939  0
H  H18  1  0.11145633  0.46156281  0.19817153  1  0  0.109917  0  0.951329  0  0  0.125656  0  1.009048  0  0  0.128433  0  1.007524  0  0  0.103751  0.123743  0  1.010303  0
H  H19  1  0.61145338  0.53844030  0.80183032  1  0  0.109896  0  0.951375  0  0  0.125643  0  1.009059  0  0  0.12842  0  1.007537  0  0  0.103745  0.12373  0  1.010316  0
H  H20  1  0.07711128  0.32909656  0.27933245  1  0  0.11088  0  0.962294  0  0  0.124251  0  1.026043  0  0  0.126846  0  1.02521  0  0  0.102247  0.122101  0  1.02723  0
H  H21  1  0.57711125  0.67090532  0.72066917  1  0  0.110887  0  0.962311  0  0  0.124248  0  1.026054  0  0  0.126843  0  1.025221  0  0  0.102242  0.122098  0  1.027247  0
H  H22  1  0.56883253  0.26449615  0.81410361  1  0  0.39835  0  0.903058  0  0  0.36472  0  0.984748  0  0  0.37787  0  0.969113  0  0  0.301087  0.355443  0  0.99394  0
H  H23  1  0.06883494  0.73549851  0.18589961  1  0  0.398324  0  0.90281  0  0  0.364701  0  0.984498  0  0  0.377853  0  0.969061  0  0  0.301028  0.355421  0  0.9937  0
H  H24  1  0.37465125  0.89353012  0.38872383  1  0  0.096273  0  0.93864  0  0  0.113233  0  0.999657  0  0  0.114488  0  0.999881  0  0  0.101143  0.111927  0  1.000627  0
H  H25  1  0.87465164  0.10647451  0.61127784  1  0  0.096298  0  0.938669  0  0  0.113257  0  0.99967  0  0  0.114515  0  0.999896  0  0  0.101141  0.11197  0  1.000618  0
H  H26  1  0.17392281  0.85095895  0.36707366  1  0  0.096887  0  0.956555  0  0  0.11204  0  1.017524  0  0  0.113669  0  1.017752  0  0  0.098782  0.110516  0  1.017554  0
H  H27  1  0.67392320  0.14904540  0.63293007  1  0  0.09691  0  0.956541  0  0  0.112014  0  1.017554  0  0  0.113646  0  1.017783  0  0  0.098751  0.11049  0  1.017587  0
H  H28  1  0.31903027  0.18078775  0.40737453  1  0  0.067801  0  0.940986  0  0  0.089202  0  0.998833  0  0  0.089721  0  0.999957  0  0  0.092668  0.088516  0  0.99798  0
H  H29  1  0.81902873  0.81921564  0.59262610  1  0  0.067766  0  0.941066  0  0  0.089188  0  0.998861  0  0  0.089704  0  0.999991  0  0  0.092666  0.088505  0  0.998006  0
H  H30  1  0.11834938  0.13739832  0.39787893  1  0  0.076887  0  0.929713  0  0  0.097753  0  0.986421  0  0  0.098781  0  0.986903  0  0  0.094532  0.096771  0  0.986825  0
H  H31  1  0.61834673  0.86260601  0.60212237  1  0  0.076875  0  0.929686  0  0  0.097725  0  0.98641  0  0  0.098749  0  0.986891  0  0  0.094518  0.096741  0  0.986824  0
H  H32  1  0.34003143  0.08587518  0.58715750  1  0  0.061358  0  0.934708  0  0  0.082932  0  0.990949  0  0  0.083583  0  0.991704  0  0  0.088489  0.081989  0  0.991445  0
H  H33  1  0.84003079  0.91412825  0.41284225  1  0  0.061344  0  0.93472  0  0  0.082925  0  0.990966  0  0  0.083576  0  0.991722  0  0  0.088493  0.081983  0  0.991456  0
H  H34  1  0.13921013  0.04916645  0.58098727  1  0  0.059677  0  0.941459  0  0  0.082886  0  0.996837  0  0  0.082999  0  0.998469  0  0  0.088666  0.082265  0  0.996019  0
H  H35  1  0.63920839  0.95083553  0.41901339  1  0  0.05969  0  0.941478  0  0  0.082919  0  0.996848  0  0  0.083034  0  0.99848  0  0  0.088675  0.082294  0  0.996026  0
H  H36  1  0.29063338  0.37632515  0.62322620  1  0  0.066109  0  0.942391  0  0  0.085342  0  1.004738  0  0  0.085794  0  1.00582  0  0  0.090712  0.085293  0  1.002747  0
H  H37  1  0.79063228  0.62367936  0.37677648  1  0  0.066063  0  0.942357  0  0  0.085276  0  1.004739  0  0  0.085724  0  1.005828  0  0  0.090689  0.085223  0  1.002758  0
H  H38  1  0.08880952  0.34162851  0.61542042  1  0  0.062462  0  0.943699  0  0  0.081991  0  1.007196  0  0  0.082652  0  1.007874  0  0  0.090615  0.081317  0  1.007018  0
H  H39  1  0.58880847  0.65837454  0.38458317  1  0  0.062412  0  0.943772  0  0  0.081963  0  1.007228  0  0  0.082625  0  1.007906  0  0  0.090611  0.081288  0  1.007057  0
H  H40  1  0.09968061  0.24955006  0.79586909  1  0  0.123032  0  0.931738  0  0  0.135594  0  0.990926  0  0  0.138265  0  0.990272  0  0  0.108552  0.133345  0  0.992131  0
H  H41  1  0.59968278  0.75045304  0.20413279  1  0  0.123039  0  0.931728  0  0  0.135605  0  0.990932  0  0  0.138273  0  0.990284  0  0  0.108552  0.133355  0  0.992132  0
H  H42  1  0.17180264  0.44442306  0.82682220  1  0  0.11831  0  0.904772  0  0  0.137236  0  0.953957  0  0  0.139832  0  0.952756  0  0  0.111948  0.134766  0  0.955933  0
H  H43  1  0.67179756  0.55557887  0.17318263  1  0  0.118292  0  0.904784  0  0  0.137242  0  0.953962  0  0  0.139842  0  0.952755  0  0  0.111935  0.134765  0  0.955942  0
H  H44  1  0.32614700  0.72188932  0.02575133  1  0  0.424578  0  0.87793  0  0  0.392933  0  0.942457  0  0  0.404325  0  0.925673  0  0  0.300228  0.384654  0  0.954552  0
H  H45  1  0.82614747  0.27811168  0.97424953  1  0  0.424545  0  0.877979  0  0  0.39288  0  0.942517  0  0  0.404272  0  0.925735  0  0  0.300213  0.384608  0  0.954601  0
H  H46  1  0.40995435  0.63747967  0.90103177  1  0  0.426872  0  0.833298  0  0  0.407657  0  0.893521  0  0  0.414978  0  0.883801  0  0  0.32029  0.402208  0  0.898954  0
H  H47  1  0.90995381  0.36252145  0.09896809  1  0  0.426902  0  0.833295  0  0  0.407707  0  0.893482  0  0  0.41503  0  0.883741  0  0  0.320297  0.402253  0  0.898928  0
C  C48  1  0.25881609  0.84389088  0.78586196  1  0  0.738425  0  3.815487  0  0  0.699012  0  4.108438  0  0  0.732667  0  4.098703  0  0  0.213958  0.676195  0  4.108544  0
C  C49  1  0.75881350  0.15610890  0.21413619  1  0  0.738232  0  3.815257  0  0  0.698827  0  4.108231  0  0  0.732479  0  4.0985  0  0  0.213856  0.67601  0  4.108331  0
C  C50  1  0.16330236  0.75992501  0.67681857  1  0  -0.278291  0  3.671934  0  0  -0.315886  0  3.919948  0  0  -0.322422  0  3.928176  0  0  -0.164068  -0.310954  0  3.913018  0
C  C51  1  0.66329836  0.24007704  0.32317951  1  0  -0.278213  0  3.671743  0  0  -0.315827  0  3.919845  0  0  -0.322355  0  3.928061  0  0  -0.164053  -0.310895  0  3.912924  0
C  C52  1  0.25919465  0.68645957  0.56396803  1  0  -0.080645  0  3.728016  0  0  -0.125622  0  3.996008  0  0  -0.125495  0  4.010595  0  0  -0.16994  -0.125181  0  3.984224  0
C  C53  1  0.75918687  0.31354136  0.43603211  1  0  -0.080362  0  3.727845  0  0  -0.125407  0  3.995966  0  0  -0.125282  0  4.01056  0  0  -0.169887  -0.124963  0  3.984172  0
C  C54  1  0.16303457  0.58843279  0.45710143  1  0  -0.117572  0  3.700653  0  0  -0.160579  0  3.970424  0  0  -0.161884  0  3.985311  0  0  -0.170154  -0.158983  0  3.958665  0
C  C55  1  0.66302658  0.41156443  0.54289883  1  0  -0.11753  0  3.70064  0  0  -0.160573  0  3.970496  0  0  -0.161881  0  3.985387  0  0  -0.170182  -0.158981  0  3.958742  0
C  C56  1  0.26404059  0.49894777  0.35019396  1  0  -0.068584  0  3.693803  0  0  -0.112795  0  3.959892  0  0  -0.112514  0  3.974261  0  0  -0.165846  -0.112992  0  3.94899  0
C  C57  1  0.76403353  0.50104726  0.64980213  1  0  -0.068677  0  3.693859  0  0  -0.112956  0  3.96005  0  0  -0.112676  0  3.974421  0  0  -0.165872  -0.113142  0  3.949132  0
C  C58  1  0.16944352  0.38995589  0.24661294  1  0  -0.280772  0  3.662746  0  0  -0.316256  0  3.906458  0  0  -0.323143  0  3.914925  0  0  -0.16781  -0.311634  0  3.901305  0
C  C59  1  0.66944207  0.61004255  0.75338677  1  0  -0.280792  0  3.662812  0  0  -0.31621  0  3.906434  0  0  -0.323099  0  3.914905  0  0  -0.167817  -0.311599  0  3.901296  0
C  C60  1  0.26253805  0.26410298  0.15591442  1  0  0.751833  0  3.798356  0  0  0.709787  0  4.094763  0  0  0.743693  0  4.085104  0  0  0.214274  0.686774  0  4.095404  0
C  C61  1  0.76253883  0.73589559  0.84408427  1  0  0.751778  0  3.798493  0  0  0.709726  0  4.094877  0  0  0.743635  0  4.085216  0  0  0.214234  0.686712  0  4.095519  0
C  C62  1  0.29221166  0.90032207  0.22184680  1  0  0.74061  0  3.771979  0  0  0.695128  0  4.071905  0  0  0.728536  0  4.062873  0  0  0.237919  0.672107  0  4.075152  0
C  C63  1  0.79221138  0.09967767  0.77815552  1  0  0.740436  0  3.772233  0  0  0.694996  0  4.07208  0  0  0.728403  0  4.063055  0  0  0.237806  0.671966  0  4.075338  0
C  C64  1  0.26636178  0.92905782  0.35442978  1  0  -0.271488  0  3.667007  0  0  -0.311527  0  3.91994  0  0  -0.31706  0  3.928511  0  0  -0.162707  -0.307705  0  3.914959  0
C  C65  1  0.76635964  0.07094666  0.64557294  1  0  -0.271561  0  3.667145  0  0  -0.311577  0  3.920015  0  0  -0.317122  0  3.928601  0  0  -0.162698  -0.307767  0  3.915036  0
C  C66  1  0.23064911  0.10303270  0.42705411  1  0  -0.077675  0  3.652941  0  0  -0.118638  0  3.911507  0  0  -0.119027  0  3.925291  0  0  -0.160814  -0.118838  0  3.902758  0
C  C67  1  0.73064781  0.89697174  0.57294867  1  0  -0.077563  0  3.652928  0  0  -0.118502  0  3.911446  0  0  -0.118882  0  3.925226  0  0  -0.160732  -0.118705  0  3.902706  0
C  C68  1  0.22840007  0.12683499  0.56162578  1  0  -0.109358  0  3.682666  0  0  -0.147507  0  3.946351  0  0  -0.148808  0  3.961482  0  0  -0.166726  -0.14639  0  3.936251  0
C  C69  1  0.72839809  0.87316827  0.43837587  1  0  -0.109418  0  3.682687  0  0  -0.147618  0  3.946399  0  0  -0.14892  0  3.961527  0  0  -0.166803  -0.146495  0  3.936286  0
C  C70  1  0.19973653  0.29897222  0.64019469  1  0  -0.081438  0  3.683563  0  0  -0.12823  0  3.953265  0  0  -0.128412  0  3.96792  0  0  -0.163585  -0.128239  0  3.942507  0
C  C71  1  0.69973451  0.70102862  0.35980641  1  0  -0.081327  0  3.683482  0  0  -0.128078  0  3.953181  0  0  -0.128262  0  3.967836  0  0  -0.163553  -0.128091  0  3.942427  0
C  C72  1  0.19440785  0.31869734  0.77455761  1  0  -0.275748  0  3.646365  0  0  -0.313331  0  3.898626  0  0  -0.319608  0  3.9061  0  0  -0.157162  -0.308762  0  3.894557  0
C  C73  1  0.69440747  0.68130225  0.22544574  1  0  -0.275731  0  3.646351  0  0  -0.313378  0  3.8987  0  0  -0.319654  0  3.906175  0  0  -0.157134  -0.308798  0  3.894615  0
C  C74  1  0.34198522  0.26837417  0.82156085  1  0  0.746952  0  3.723927  0  0  0.702824  0  4.022506  0  0  0.736197  0  4.01224  0  0  0.253016  0.679561  0  4.028115  0
C  C75  1  0.84198514  0.73162205  0.17844047  1  0  0.746951  0  3.723877  0  0  0.702826  0  4.02248  0  0  0.736199  0  4.012215  0  0  0.252991  0.679567  0  4.02808  0
O  O76  1  0.19491182  0.88957141  0.89056095  1  0  -0.839789  0  2.116042  0  0  -0.798883  0  2.38159  0  0  -0.822111  0  2.36752  0  0  -0.445967  -0.76916  0  2.390383  0
O  O77  1  0.69491187  0.11043072  0.10943538  1  0  -0.839699  0  2.115797  0  0  -0.798816  0  2.381402  0  0  -0.822049  0  2.367343  0  0  -0.445911  -0.769096  0  2.390192  0
O  O78  1  0.40247043  0.86815882  0.77584663  1  0  -0.68964  0  1.977209  0  0  -0.647888  0  2.215998  0  0  -0.671925  0  2.208212  0  0  -0.368547  -0.626554  0  2.222452  0
O  O79  1  0.90246659  0.13183870  0.22415320  1  0  -0.689587  0  1.97714  0  0  -0.647821  0  2.215917  0  0  -0.671858  0  2.208136  0  0  -0.368532  -0.626489  0  2.222367  0
O  O80  1  0.19570978  0.13248738  0.09503407  1  0  -0.841497  0  2.120206  0  0  -0.796983  0  2.383929  0  0  -0.822046  0  2.372744  0  0  -0.446966  -0.766223  0  2.39027  0
O  O81  1  0.69571291  0.86750985  0.90496783  1  0  -0.841465  0  2.120291  0  0  -0.796954  0  2.384012  0  0  -0.822012  0  2.372812  0  0  -0.446921  -0.766188  0  2.39034  0
O  O82  1  0.40520956  0.28507141  0.14016119  1  0  -0.67951  0  1.931113  0  0  -0.638568  0  2.16268  0  0  -0.661824  0  2.153456  0  0  -0.371496  -0.617878  0  2.170644  0
O  O83  1  0.90521139  0.71492861  0.85983331  1  0  -0.679478  0  1.931179  0  0  -0.638551  0  2.162765  0  0  -0.661802  0  2.153529  0  0  -0.371512  -0.61786  0  2.170727  0
O  O84  1  0.40689271  0.96685475  0.19092552  1  0  -0.693357  0  2.00054  0  0  -0.643535  0  2.244628  0  0  -0.669136  0  2.237168  0  0  -0.365934  -0.619882  0  2.251823  0
O  O85  1  0.90689448  0.03314759  0.80907296  1  0  -0.693316  0  2.000674  0  0  -0.643509  0  2.244739  0  0  -0.669105  0  2.237279  0  0  -0.365889  -0.619854  0  2.251933  0
O  O86  1  0.19939109  0.80634350  0.14449155  1  0  -0.67283  0  2.002253  0  0  -0.615573  0  2.225632  0  0  -0.639577  0  2.211151  0  0  -0.297823  -0.594985  0  2.231518  0
O  O87  1  0.69938721  0.19365132  0.85551143  1  0  -0.672676  0  2.002264  0  0  -0.615427  0  2.225584  0  0  -0.639436  0  2.211069  0  0  -0.297761  -0.594841  0  2.231464  0
O  O88  1  0.47186484  0.31401001  0.78248234  1  0  -0.576529  0  2.097333  0  0  -0.519538  0  2.318021  0  0  -0.543426  0  2.302975  0  0  -0.324247  -0.503252  0  2.327788  0
O  O89  1  0.97186218  0.68598274  0.21752123  1  0  -0.576484  0  2.097095  0  0  -0.519541  0  2.31784  0  0  -0.543423  0  2.302922  0  0  -0.324194  -0.503255  0  2.327616  0
O  O90  1  0.34089541  0.19009943  0.89188294  1  0  -0.666782  0  2.083491  0  0  -0.627632  0  2.330784  0  0  -0.649232  0  2.320569  0  0  -0.34241  -0.605526  0  2.337625  0
O  O91  1  0.84090157  0.80989327  0.10811495  1  0  -0.666776  0  2.083438  0  0  -0.627597  0  2.330718  0  0  -0.649203  0  2.320503  0  0  -0.342399  -0.605499  0  2.337563  0
O  O92  1  0.42452625  0.71563725  0.97987200  1  0  -0.872586  0  1.858321  0  0  -0.833131  0  2.035429  0  0  -0.849831  0  2.008221  0  0  -0.61512  -0.815384  0  2.056747  0
O  O93  1  0.92452702  0.28436627  0.02012844  1  0  -0.872593  0  1.858347  0  0  -0.833122  0  2.035443  0  0  -0.849821  0  2.008223  0  0  -0.615102  -0.815374  0  2.056765  0
