# generated using pymatgen
data_Zr6H13C52S10O32F7
_symmetry_space_group_name_H-M   'P 1'
_cell_length_a   16.45374461
_cell_length_b   16.45045159
_cell_length_c   16.51284554
_cell_angle_alpha   61.85036499
_cell_angle_beta   59.85836901
_cell_angle_gamma   60.24800279
_symmetry_Int_Tables_number   1
_chemical_formula_structural   Zr6H13C52S10O32F7
_chemical_formula_sum   'Zr6 H13 C52 S10 O32 F7'
_cell_volume   3204.83697273
_cell_formula_units_Z   1
loop_
 _symmetry_equiv_pos_site_id
 _symmetry_equiv_pos_as_xyz
  1  'x, y, z'
loop_
 _atom_site_type_symbol
 _atom_site_label
 _atom_site_symmetry_multiplicity
 _atom_site_fract_x
 _atom_site_fract_y
 _atom_site_fract_z
 _atom_site_occupancy
 _atom_site_pbe_bader_charge
 _atom_site_pbe_bader_spin_density
 _atom_site_pbe_cm5_charge
 _atom_site_pbe_ddec_charge
 _atom_site_pbe_ddec_spin_density
 _atom_site_pbe_ddec_sum_bond_order
 _atom_site_pbe_magmom
Zr  Zr0  1  0.88787516  0.90250698  0.59759556  1  2.638647  0  1.630004  2.373444  0  2.78352  0
Zr  Zr1  1  0.11158532  0.10176468  0.39842671  1  2.639682  0  1.631821  2.375241  0  2.77706  0
Zr  Zr2  1  0.10233106  0.89320425  0.60719908  1  2.637099  0  1.626245  2.379413  0  2.733099  0
Zr  Zr3  1  0.89719028  0.11099895  0.38951332  1  2.636176  0  1.62133  2.37526  0  2.740948  0
Zr  Zr4  1  0.10898695  0.89268472  0.38910553  1  2.637772  0  1.621219  2.379111  0  2.727679  0
Zr  Zr5  1  0.89039742  0.11106523  0.60772884  1  2.638236  0  1.621283  2.378793  0  2.728783  0
H  H6  1  0.07789820  0.75235515  0.57675071  1  0.588463  0  0.331667  0.42401  0  0.855737  0
H  H7  1  0.09258682  0.08066249  0.24845355  1  0.624806  0  0.331758  0.424624  0  0.854552  0
H  H8  1  0.08297815  0.08135278  0.59017997  1  0.608336  0  0.331474  0.425099  0  0.853369  0
H  H9  1  0.74478973  0.09396659  0.57762940  1  0.595481  0  0.331153  0.424887  0  0.852511  0
H  H10  1  0.12566045  0.61096889  0.36204687  1  0.133178  0  0.124134  0.150562  0  0.966332  0
H  H11  1  0.60997904  0.12700340  0.89949504  1  0.124633  0  0.123999  0.150309  0  0.965409  0
H  H12  1  0.86849315  0.12557010  0.11725903  1  0.120888  0  0.122355  0.1489  0  0.967259  0
H  H13  1  0.62266416  0.39447055  0.36413241  1  0.111154  0  0.122751  0.149061  0  0.967282  0
H  H14  1  0.10225075  0.63561128  0.87134585  1  0.1176  0  0.115169  0.131275  0  0.994344  0
H  H15  1  0.84121989  0.65454372  0.85186983  1  0.095354  0  0.11807  0.148761  0  0.986827  0
H  H16  1  0.89023427  0.37546882  0.13133577  1  0.088098  0  0.111455  0.12535  0  1.001345  0
H  H17  1  0.15150146  0.35595840  0.15068473  1  0.123071  0  0.119051  0.149911  0  0.985447  0
H  H18  1  0.62130111  0.87611472  0.61088219  1  0.110785  0  0.123236  0.149852  0  0.969643  0
C  C19  1  0.99427950  0.73859523  0.48467429  1  1.575741  0  0.226211  0.643652  0  4.156486  0
C  C20  1  0.28173484  0.98775208  0.23515770  1  1.563789  0  0.223984  0.664522  0  4.15413  0
C  C21  1  0.99733942  0.27205920  0.50521305  1  1.57282  0  0.224512  0.663777  0  4.153119  0
C  C22  1  0.72448577  0.00826618  0.76843251  1  1.579128  0  0.226521  0.643069  0  4.159804  0
C  C23  1  0.98108534  0.74053280  0.76554078  1  1.554449  0  0.236882  0.639367  0  4.0949  0
C  C24  1  0.73111888  0.00630836  0.48633714  1  1.577376  0  0.226511  0.64429  0  4.15791  0
C  C25  1  0.01191881  0.26966211  0.23649037  1  1.548266  0  0.236171  0.639371  0  4.097315  0
C  C26  1  0.27562472  0.99094318  0.50151317  1  1.604468  0  0.22413  0.664626  0  4.157461  0
C  C27  1  0.27265344  0.73016618  0.49605319  1  1.560668  0  0.224161  0.66362  0  4.150597  0
C  C28  1  0.99038745  0.99714770  0.77757096  1  1.591036  0  0.223657  0.664305  0  4.150887  0
C  C29  1  0.73394875  0.28109754  0.49392397  1  1.571794  0  0.225855  0.644524  0  4.151983  0
C  C30  1  0.00049091  0.99952844  0.22653967  1  1.591535  0  0.226769  0.645077  0  4.15189  0
C  C31  1  0.92703171  0.42255194  0.56279340  1  0.565636  0  0.101473  0.251647  0  4.085464  0
C  C32  1  0.06192830  0.59220602  0.42360022  1  0.05934  0  -0.085962  -0.131474  0  3.958675  0
C  C33  1  0.99498331  0.36380990  0.50137303  1  -0.108473  0  -0.03615  -0.249129  0  3.973104  0
C  C34  1  0.99355752  0.64891032  0.48642228  1  -0.155688  0  -0.02137  -0.11839  0  3.968458  0
C  C35  1  0.03694313  0.50973936  0.45167862  1  -0.168642  0  -0.019349  0.007082  0  4.084062  0
C  C36  1  0.94979192  0.50601269  0.53558708  1  -0.14461  0  -0.033171  -0.139367  0  4.112643  0
C  C37  1  0.42315008  0.92673822  0.08774704  1  0.569001  0  0.101209  0.252077  0  4.085832  0
C  C38  1  0.58919870  0.06527846  0.91852246  1  0.061553  0  -0.085521  -0.13034  0  3.955659  0
C  C39  1  0.37074885  0.98823967  0.14640708  1  -0.092926  0  -0.037497  -0.25215  0  3.97534  0
C  C40  1  0.63915965  0.00342937  0.86095336  1  -0.175607  0  -0.0208  -0.116428  0  3.966007  0
C  C41  1  0.51043329  0.03669022  0.00161382  1  -0.183439  0  -0.019734  0.004698  0  4.083925  0
C  C42  1  0.50290927  0.95328448  0.00491952  1  -0.122007  0  -0.032486  -0.137087  0  4.110478  0
C  C43  1  0.05679149  0.93019678  0.91675930  1  0.530212  0  0.102576  0.253653  0  4.079032  0
C  C44  1  0.92946802  0.06333157  0.09274512  1  -0.005316  0  -0.087016  -0.131841  0  3.955849  0
C  C45  1  0.99020259  0.99586071  0.86709271  1  -0.053946  0  -0.036646  -0.250019  0  3.963934  0
C  C46  1  0.99762711  0.99716637  0.14000354  1  -0.118493  0  -0.02082  -0.118226  0  3.958739  0
C  C47  1  0.95125470  0.03834418  0.01135518  1  -0.153573  0  -0.019929  0.006602  0  4.083501  0
C  C48  1  0.03583300  0.95326125  0.99891351  1  -0.158697  0  -0.032795  -0.139545  0  4.110353  0
C  C49  1  0.41474120  0.59457692  0.55980611  1  0.574807  0  0.101495  0.252053  0  4.082324  0
C  C50  1  0.59714112  0.41915212  0.42618196  1  0.023111  0  -0.087572  -0.131938  0  3.954774  0
C  C51  1  0.36405349  0.64405349  0.49423618  1  -0.091926  0  -0.036263  -0.2481  0  3.963482  0
C  C52  1  0.64554105  0.37096053  0.49318268  1  -0.126364  0  -0.020945  -0.119145  0  3.959135  0
C  C53  1  0.51298986  0.50100553  0.45069819  1  -0.164994  0  -0.019893  0.007525  0  4.080583  0
C  C54  1  0.49960328  0.51301902  0.53620689  1  -0.113824  0  -0.032889  -0.140537  0  4.110552  0
C  C55  1  0.04270242  0.60725970  0.89967866  1  0.011111  0  -0.077839  -0.132692  0  3.931038  0
C  C56  1  0.89499841  0.61784360  0.88881327  1  0.083006  0  -0.095691  -0.232986  0  3.987502  0
C  C57  1  0.88887397  0.53709049  0.96920135  1  0.390081  0  0.102221  0.247391  0  4.054778  0
C  C58  1  0.95700295  0.48668252  0.01995547  1  0.079418  0  -0.008046  -0.007426  0  4.021888  0
C  C59  1  0.94975240  0.40381210  0.10308638  1  0.042971  0  -0.081291  -0.136475  0  3.942979  0
C  C60  1  0.09752042  0.39293037  0.11392564  1  0.047772  0  -0.094861  -0.231969  0  3.983463  0
C  C61  1  0.10408249  0.47335660  0.03313089  1  0.400895  0  0.1035  0.247222  0  4.05636  0
C  C62  1  0.03568944  0.52412231  0.98258891  1  0.025836  0  -0.007416  -0.006984  0  4.018389  0
C  C63  1  0.97337071  0.65319239  0.85388268  1  -0.027356  0  -0.012579  -0.007646  0  3.986388  0
C  C64  1  0.01880078  0.35797083  0.14917962  1  -0.012375  0  -0.012765  -0.007045  0  3.987709  0
C  C65  1  0.41739242  0.05665432  0.43084228  1  0.541795  0  0.10171  0.252666  0  4.081262  0
C  C66  1  0.59622030  0.93509057  0.55163739  1  0.058435  0  -0.086078  -0.130387  0  3.957079  0
C  C67  1  0.36673033  0.99065220  0.49726765  1  -0.077164  0  -0.036166  -0.249914  0  3.9717  0
C  C68  1  0.64415945  0.00281171  0.48534402  1  -0.187903  0  -0.022185  -0.117688  0  3.966769  0
C  C69  1  0.51353981  0.95475182  0.53121682  1  -0.146536  0  -0.019187  0.006616  0  4.082652  0
C  C70  1  0.50106771  0.03736077  0.44917966  1  -0.132695  0  -0.033497  -0.14012  0  4.113241  0
S  S71  1  0.08869028  0.41139216  0.40815933  1  0.295648  0  0.090962  0.148296  0  2.744742  0
S  S72  1  0.89848678  0.60343566  0.57975593  1  0.285051  0  0.093926  0.158174  0  2.751715  0
S  S73  1  0.42004337  0.08033239  0.09988678  1  0.287861  0  0.09053  0.148644  0  2.74446  0
S  S74  1  0.59203219  0.91000578  0.90667611  1  0.278989  0  0.094621  0.158456  0  2.75095  0
S  S75  1  0.89967590  0.08791916  0.92226115  1  0.275547  0  0.08664  0.141887  0  2.730826  0
S  S76  1  0.08834176  0.90397202  0.08676157  1  0.296392  0  0.097281  0.162588  0  2.734206  0
S  S77  1  0.42177094  0.58991508  0.40120491  1  0.251986  0  0.087593  0.142714  0  2.729442  0
S  S78  1  0.58994538  0.42440850  0.58621533  1  0.292524  0  0.09765  0.163532  0  2.735626  0
S  S79  1  0.42283447  0.90267189  0.58369335  1  0.283093  0  0.095043  0.153295  0  2.724016  0
S  S80  1  0.59030682  0.09057448  0.39736407  1  0.292021  0  0.092125  0.154588  0  2.736593  0
O  O81  1  0.92278573  0.77671949  0.55250585  1  -1.176067  0  -0.358086  -0.618817  0  2.292672  0
O  O82  1  0.24725596  0.05633122  0.27233721  1  -1.17398  0  -0.357545  -0.615209  0  2.277344  0
O  O83  1  0.07033472  0.23317233  0.43842562  1  -1.179257  0  -0.358617  -0.61634  0  2.276013  0
O  O84  1  0.75711965  0.94224913  0.72865342  1  -1.175087  0  -0.358321  -0.618551  0  2.295375  0
O  O85  1  0.05254515  0.77069730  0.73457565  1  -1.175585  0  -0.347867  -0.608067  0  2.27118  0
O  O86  1  0.76609602  0.07455621  0.42049100  1  -1.178843  0  -0.352603  -0.617067  0  2.258221  0
O  O87  1  0.94109685  0.23876869  0.26664226  1  -1.179961  0  -0.351595  -0.615677  0  2.271778  0
O  O88  1  0.23883463  0.92477331  0.56996555  1  -1.178225  0  -0.351316  -0.611682  0  2.239418  0
O  O89  1  0.23977847  0.76242106  0.42689070  1  -1.170181  0  -0.355413  -0.617065  0  2.24819  0
O  O90  1  0.92256613  0.06798598  0.74343931  1  -1.178395  0  -0.355291  -0.618203  0  2.248656  0
O  O91  1  0.76518372  0.24623951  0.56468448  1  -1.174784  0  -0.351973  -0.614147  0  2.262482  0
O  O92  1  0.06957821  0.93044214  0.25958560  1  -1.182986  0  -0.352861  -0.615023  0  2.263816  0
O  O93  1  0.05936444  0.92817951  0.74013508  1  -1.172465  0  -0.360748  -0.614169  0  2.27674  0
O  O94  1  0.77091868  0.24454323  0.42433232  1  -1.177672  0  -0.359789  -0.614619  0  2.261236  0
O  O95  1  0.93402837  0.07147760  0.26058026  1  -1.180014  0  -0.359983  -0.614596  0  2.261826  0
O  O96  1  0.23260258  0.76520885  0.56735254  1  -1.165929  0  -0.361619  -0.614883  0  2.279228  0
O  O97  1  0.91516419  0.77766817  0.72653330  1  -1.186834  0  -0.360624  -0.617487  0  2.296646  0
O  O98  1  0.23955421  0.05992901  0.43569511  1  -1.179127  0  -0.367517  -0.616788  0  2.30991  0
O  O99  1  0.07959437  0.23058793  0.27366068  1  -1.179279  0  -0.35739  -0.613753  0  2.298896  0
O  O100  1  0.76330628  0.94002507  0.55560110  1  -1.178134  0  -0.36395  -0.613514  0  2.289212  0
O  O101  1  0.75813444  0.07744907  0.73513263  1  -1.178667  0  -0.356168  -0.609412  0  2.25415  0
O  O102  1  0.06615458  0.76966075  0.41797594  1  -1.178404  0  -0.35559  -0.60901  0  2.249881  0
O  O103  1  0.24470689  0.92142631  0.26691837  1  -1.163218  0  -0.359956  -0.613258  0  2.266172  0
O  O104  1  0.92818081  0.23798775  0.57412821  1  -1.169755  0  -0.359816  -0.612438  0  2.268573  0
O  O105  1  0.81721711  0.06873780  0.55455871  1  -1.225304  0  -0.693818  -1.070243  0  2.353217  0
O  O106  1  0.05877200  0.05836461  0.56494497  1  -1.235834  0  -0.693087  -1.069783  0  2.356274  0
O  O107  1  0.06629073  0.05788480  0.31947056  1  -1.253318  0  -0.694479  -1.071657  0  2.359931  0
O  O108  1  0.05557588  0.82337541  0.55388355  1  -1.214714  0  -0.694529  -1.071229  0  2.362503  0
O  O109  1  0.13358688  0.95286521  0.45678435  1  -1.200894  0  -0.789327  -1.149556  0  2.122175  0
O  O110  1  0.95598055  0.96064971  0.44870591  1  -1.203799  0  -0.789827  -1.148909  0  2.118501  0
O  O111  1  0.95787217  0.13392414  0.45730964  1  -1.198173  0  -0.789987  -1.150243  0  2.121939  0
O  O112  1  0.95025701  0.96099458  0.63007476  1  -1.20107  0  -0.789921  -1.150747  0  2.122416  0
F  F113  1  0.84743225  0.40334514  0.64083196  1  -0.622873  0  -0.087048  -0.10628  0  1.353236  0
F  F114  1  0.40111438  0.84990772  0.10585077  1  -0.618611  0  -0.086851  -0.106521  0  1.353698  0
F  F115  1  0.13454905  0.85234148  0.89050117  1  -0.623975  0  -0.085448  -0.103199  0  1.352718  0
F  F116  1  0.38729258  0.61982654  0.63867249  1  -0.620656  0  -0.085154  -0.103148  0  1.354951  0
F  F117  1  0.39097824  0.13242857  0.35641721  1  -0.625403  0  -0.086906  -0.106756  0  1.364394  0
F  F118  1  0.17952612  0.50731923  0.99847849  1  -0.629568  0  -0.102177  -0.143311  0  1.313618  0
F  F119  1  0.81407938  0.50227132  0.00329765  1  -0.635023  0  -0.106487  -0.149068  0  1.309873  0
