# generated using pymatgen
data_Gd9H37C72(N6O19)2
_symmetry_space_group_name_H-M   'P 1'
_cell_length_a   16.99407416
_cell_length_b   16.99406450
_cell_length_c   21.13166985
_cell_angle_alpha   66.29711377
_cell_angle_beta   66.29713488
_cell_angle_gamma   60.00470646
_symmetry_Int_Tables_number   1
_chemical_formula_structural   Gd9H37C72(N6O19)2
_chemical_formula_sum   'Gd18 H74 C144 N24 O76'
_cell_volume   4681.47889211
_cell_formula_units_Z   2
loop_
 _symmetry_equiv_pos_site_id
 _symmetry_equiv_pos_as_xyz
  1  'x, y, z'
loop_
 _atom_site_type_symbol
 _atom_site_label
 _atom_site_symmetry_multiplicity
 _atom_site_fract_x
 _atom_site_fract_y
 _atom_site_fract_z
 _atom_site_occupancy
 _atom_site_pbe_bader_charge
 _atom_site_pbe_bader_spin_density
 _atom_site_pbe_cm5_charge
 _atom_site_pbe_ddec_charge
 _atom_site_pbe_ddec_spin_density
 _atom_site_pbe_ddec_sum_bond_order
 _atom_site_pbe_magmom
Gd  Gd0  1  0.94856890  0.84603358  0.10234299  1  2.154747  0  1.496735  2.082829  0  2.270387  0
Gd  Gd1  1  0.10307117  0.94856761  0.10232525  1  2.155451  0  1.496816  2.08389  0  2.268127  0
Gd  Gd2  1  0.84605823  0.10303294  0.10237039  1  2.15505  0  1.496336  2.082259  0  2.270697  0
Gd  Gd3  1  0.55143066  0.39692846  0.39767740  1  2.155587  0  1.496828  2.08388  0  2.268115  0
Gd  Gd4  1  0.39696581  0.65394262  0.39763032  1  2.155044  0  1.496347  2.082269  0  2.270661  0
Gd  Gd5  1  0.65396236  0.55143291  0.39765895  1  2.154808  0  1.49673  2.082787  0  2.270475  0
Gd  Gd6  1  0.05143317  0.15396407  0.89765791  1  2.154787  0  1.496734  2.082839  0  2.270417  0
Gd  Gd7  1  0.89692598  0.05143010  0.89767627  1  2.155533  0  1.496828  2.08388  0  2.268118  0
Gd  Gd8  1  0.15394664  0.89696293  0.89762923  1  2.15508  0  1.496335  2.082223  0  2.270706  0
Gd  Gd9  1  0.44856860  0.60307418  0.60232232  1  2.155579  0  1.496812  2.083826  0  2.268183  0
Gd  Gd10  1  0.60303626  0.34605503  0.60236916  1  2.155002  0  1.496381  2.082317  0  2.270579  0
Gd  Gd11  1  0.34603409  0.44856958  0.60234268  1  2.154832  0  1.496749  2.082808  0  2.270443  0
Gd  Gd12  1  0.77557771  0.72442122  0.25000048  1  2.150298  0  1.543718  1.900315  0  2.325278  0
Gd  Gd13  1  0.25000642  0.77556521  0.24999093  1  2.150147  0  1.543307  1.89967  0  2.325714  0
Gd  Gd14  1  0.72443425  0.24999157  0.25001094  1  2.150183  0  1.543359  1.89974  0  2.325575  0
Gd  Gd15  1  0.22442085  0.27557913  0.74999879  1  2.150165  0  1.543763  1.900461  0  2.325097  0
Gd  Gd16  1  0.74999003  0.22443792  0.75001001  1  2.150104  0  1.543336  1.89973  0  2.32563  0
Gd  Gd17  1  0.27556572  0.75000629  0.74999010  1  2.150125  0  1.54335  1.899709  0  2.325663  0
H  H18  1  0.72193925  0.86985405  0.93820928  1  0.119641  0  0.109186  0.105063  0  1.012915  0
H  H19  1  0.46999883  0.72197331  0.93818424  1  0.084346  0  0.109363  0.105338  0  1.012653  0
H  H20  1  0.86986307  0.46997394  0.93823152  1  0.094284  0  0.109253  0.105651  0  1.012944  0
H  H21  1  0.77802726  0.03000166  0.56181553  1  0.084375  0  0.109371  0.105373  0  1.012643  0
H  H22  1  0.03002637  0.63013670  0.56176760  1  0.094305  0  0.10926  0.105668  0  1.012903  0
H  H23  1  0.63014489  0.77806099  0.56179077  1  0.119591  0  0.109192  0.105035  0  1.012932  0
H  H24  1  0.27806071  0.13014638  0.06179046  1  0.119648  0  0.109177  0.105049  0  1.01291  0
H  H25  1  0.53000183  0.27802683  0.06181536  1  0.084373  0  0.109352  0.105346  0  1.012682  0
H  H26  1  0.13013689  0.53002585  0.06176842  1  0.094284  0  0.109246  0.105638  0  1.012914  0
H  H27  1  0.22197340  0.96999784  0.43818428  1  0.084361  0  0.109386  0.105373  0  1.01262  0
H  H28  1  0.96997359  0.36986373  0.43823213  1  0.0943  0  0.109263  0.105681  0  1.012902  0
H  H29  1  0.36985507  0.22193879  0.43820917  1  0.119587  0  0.109192  0.105071  0  1.0129  0
H  H30  1  0.61815942  0.78261056  0.01980729  1  0.059618  0  0.09889  0.106051  0  1.028134  0
H  H31  1  0.57940904  0.61821606  0.01979942  1  0.080952  0  0.098783  0.105352  0  1.028094  0
H  H32  1  0.78255073  0.57941516  0.01982751  1  0.07833  0  0.098797  0.10564  0  1.027499  0
H  H33  1  0.88178336  0.92059066  0.48020112  1  0.080949  0  0.098801  0.105396  0  1.028089  0
H  H34  1  0.92058438  0.71745029  0.48017210  1  0.078331  0  0.098806  0.105627  0  1.027485  0
H  H35  1  0.71738915  0.88184066  0.48019398  1  0.059623  0  0.098894  0.106064  0  1.028137  0
H  H36  1  0.38184125  0.21738894  0.98019346  1  0.059595  0  0.098887  0.106042  0  1.028128  0
H  H37  1  0.42059162  0.38178408  0.98020065  1  0.081092  0  0.098799  0.105386  0  1.028146  0
H  H38  1  0.21744994  0.42058434  0.98017230  1  0.078343  0  0.098806  0.105642  0  1.027478  0
H  H39  1  0.11821801  0.07940728  0.51979944  1  0.08098  0  0.098764  0.10534  0  1.028162  0
H  H40  1  0.07941558  0.28254949  0.51982784  1  0.07833  0  0.098804  0.105651  0  1.027463  0
H  H41  1  0.28261011  0.11816005  0.51980684  1  0.059608  0  0.098889  0.106048  0  1.028142  0
H  H42  1  0.62129277  0.71490279  0.14895288  1  0.084867  0  0.117385  0.080148  0  0.979411  0
H  H43  1  0.51481984  0.62129010  0.14895364  1  0.081912  0  0.117334  0.080505  0  0.980455  0
H  H44  1  0.71486953  0.51482782  0.14898739  1  0.078918  0  0.117648  0.08093  0  0.980121  0
H  H45  1  0.87870890  0.98517969  0.35104709  1  0.081916  0  0.117381  0.080591  0  0.980466  0
H  H46  1  0.98517095  0.78513162  0.35101337  1  0.078805  0  0.117639  0.080939  0  0.98008  0
H  H47  1  0.78509836  0.87870659  0.35104769  1  0.084988  0  0.117377  0.080125  0  0.979424  0
H  H48  1  0.37870649  0.28509728  0.85104720  1  0.084874  0  0.117388  0.080161  0  0.979416  0
H  H49  1  0.48518013  0.37870968  0.85104678  1  0.081917  0  0.117357  0.080541  0  0.980448  0
H  H50  1  0.28513113  0.48517168  0.85101241  1  0.078912  0  0.117645  0.080929  0  0.980091  0
H  H51  1  0.12129176  0.01481981  0.64895272  1  0.081934  0  0.117352  0.080541  0  0.980422  0
H  H52  1  0.01482901  0.21486817  0.64898705  1  0.078897  0  0.117635  0.080924  0  0.980082  0
H  H53  1  0.21490160  0.12129320  0.64895273  1  0.084986  0  0.117404  0.080194  0  0.979406  0
H  H54  1  0.56854258  0.96179585  0.29321588  1  0.119591  0  0.115385  0.118423  0  0.997028  0
H  H55  1  0.17640624  0.56857808  0.29322016  1  0.121175  0  0.115516  0.1189  0  0.998007  0
H  H56  1  0.96180612  0.17640338  0.29322565  1  0.127437  0  0.115526  0.118833  0  0.997698  0
H  H57  1  0.93142183  0.32359416  0.20677984  1  0.121031  0  0.115522  0.118917  0  0.99799  0
H  H58  1  0.32359788  0.53819360  0.20677414  1  0.127461  0  0.115534  0.11884  0  0.9977  0
H  H59  1  0.53820453  0.93145659  0.20678404  1  0.11973  0  0.115401  0.11844  0  0.997024  0
H  H60  1  0.43145809  0.03820366  0.70678393  1  0.119625  0  0.115381  0.118428  0  0.997009  0
H  H61  1  0.82359372  0.43142234  0.70678005  1  0.121159  0  0.11551  0.118898  0  0.99802  0
H  H62  1  0.03819384  0.82359769  0.70677388  1  0.127497  0  0.115527  0.11883  0  0.997707  0
H  H63  1  0.06857814  0.67640627  0.79321989  1  0.121168  0  0.115511  0.118909  0  0.998009  0
H  H64  1  0.67640138  0.46180712  0.79322573  1  0.127497  0  0.115514  0.118813  0  0.997786  0
H  H65  1  0.46179614  0.06854291  0.79321577  1  0.119767  0  0.11538  0.118407  0  0.997046  0
H  H66  1  0.45456702  0.07469981  0.37081347  1  0.036819  0  0.102162  0.110013  0  1.008787  0
H  H67  1  0.09991815  0.45457287  0.37079481  1  0.067298  0  0.101906  0.109478  0  1.009174  0
H  H68  1  0.07471840  0.09989256  0.37080879  1  0.040811  0  0.10219  0.110126  0  1.008797  0
H  H69  1  0.04542723  0.40008188  0.12920506  1  0.067292  0  0.101907  0.109472  0  1.009165  0
H  H70  1  0.40010744  0.42528141  0.12919120  1  0.040831  0  0.102199  0.110149  0  1.008752  0
H  H71  1  0.42530033  0.04543241  0.12918661  1  0.036947  0  0.102142  0.109987  0  1.008817  0
H  H72  1  0.54543294  0.92529933  0.62918715  1  0.036824  0  0.102136  0.109973  0  1.008813  0
H  H73  1  0.90008181  0.54542755  0.62920540  1  0.06725  0  0.101926  0.10947  0  1.009164  0
H  H74  1  0.92528156  0.90010787  0.62919095  1  0.040813  0  0.102184  0.110124  0  1.008819  0
H  H75  1  0.95457273  0.59991790  0.87079535  1  0.067298  0  0.101911  0.109481  0  1.009174  0
H  H76  1  0.59989252  0.57471838  0.87080827  1  0.040823  0  0.10218  0.110115  0  1.00882  0
H  H77  1  0.57469963  0.95456737  0.87081333  1  0.036942  0  0.102161  0.109997  0  1.008793  0
H  H78  1  0.49971783  0.19911797  0.36607841  1  0.144575  0  0.117422  0.086915  0  1.022512  0
H  H79  1  0.93506343  0.49974181  0.36606902  1  0.126305  0  0.117314  0.085981  0  1.022896  0
H  H80  1  0.19913756  0.93507225  0.36607464  1  0.113855  0  0.117291  0.085501  0  1.024225  0
H  H81  1  0.00025766  0.56493692  0.13393160  1  0.126317  0  0.117326  0.08598  0  1.022943  0
H  H82  1  0.56492817  0.30086238  0.13392580  1  0.113858  0  0.117304  0.085529  0  1.02423  0
H  H83  1  0.30088209  0.00028304  0.13392123  1  0.144571  0  0.117417  0.086916  0  1.022519  0
H  H84  1  0.50028283  0.80088217  0.63392214  1  0.144578  0  0.117432  0.086932  0  1.022512  0
H  H85  1  0.06493653  0.50025861  0.63393072  1  0.126302  0  0.117346  0.086016  0  1.02297  0
H  H86  1  0.80086310  0.06492725  0.63392564  1  0.113788  0  0.117305  0.085536  0  1.024209  0
H  H87  1  0.99974160  0.43506315  0.86606895  1  0.126302  0  0.117312  0.085976  0  1.022908  0
H  H88  1  0.43507250  0.69913713  0.86607401  1  0.113799  0  0.117292  0.085532  0  1.024244  0
H  H89  1  0.69911787  0.99971803  0.86607782  1  0.14527  0  0.117432  0.086944  0  1.022497  0
H  H90  1  0.00000122  0.00000084  0.99999745  1  0.584821  0  0.270521  0.405682  0  0.969388  0
H  H91  1  0.49999998  0.49999989  0.50000045  1  0.584817  0  0.270499  0.405636  0  0.969472  0
C  C92  1  0.78970233  0.78957523  0.09128302  1  1.201722  0  0.21639  0.506633  0  4.123665  0
C  C93  1  0.32943733  0.78971374  0.09127312  1  1.212703  0  0.216086  0.50635  0  4.121693  0
C  C94  1  0.78953294  0.32942155  0.09130924  1  1.227315  0  0.215447  0.504347  0  4.122202  0
C  C95  1  0.71028740  0.17056316  0.40872598  1  1.212691  0  0.216085  0.506401  0  4.121682  0
C  C96  1  0.17057739  0.71046723  0.40869114  1  1.227305  0  0.215363  0.504267  0  4.122328  0
C  C97  1  0.71042493  0.71029783  0.40871714  1  1.202132  0  0.216394  0.506607  0  4.123552  0
C  C98  1  0.21029693  0.21042484  0.90871659  1  1.201788  0  0.216418  0.506671  0  4.123606  0
C  C99  1  0.67056334  0.21028705  0.90872769  1  1.212641  0  0.21609  0.506305  0  4.121888  0
C  C100  1  0.21046772  0.67057730  0.90869125  1  1.227295  0  0.215431  0.504325  0  4.122326  0
C  C101  1  0.28971256  0.82943727  0.59127376  1  1.212681  0  0.216099  0.506401  0  4.121743  0
C  C102  1  0.82942257  0.28953320  0.59130859  1  1.22691  0  0.215416  0.504385  0  4.12224  0
C  C103  1  0.28957573  0.28970167  0.59128314  1  1.201744  0  0.216416  0.506629  0  4.123712  0
C  C104  1  0.78524859  0.83964474  0.01931440  1  0.032034  0  -0.028014  -0.207175  0  3.922639  0
C  C105  1  0.35579624  0.78526735  0.01928863  1  -0.033369  0  -0.027961  -0.205764  0  3.919311  0
C  C106  1  0.83960824  0.35577815  0.01931970  1  0.033816  0  -0.02763  -0.205149  0  3.919823  0
C  C107  1  0.71473347  0.14420446  0.48071002  1  -0.034104  0  -0.027968  -0.205794  0  3.919379  0
C  C108  1  0.14422233  0.66039090  0.48067957  1  0.033801  0  -0.027584  -0.20509  0  3.919789  0
C  C109  1  0.66035484  0.71475256  0.48068515  1  0.032168  0  -0.028026  -0.207078  0  3.922627  0
C  C110  1  0.21475208  0.16035605  0.98068499  1  0.032072  0  -0.028028  -0.207104  0  3.922555  0
C  C111  1  0.64420442  0.21473215  0.98071259  1  -0.034208  0  -0.027938  -0.205832  0  3.919381  0
C  C112  1  0.16039172  0.64422292  0.98067936  1  0.033795  0  -0.027659  -0.205163  0  3.919806  0
C  C113  1  0.28526719  0.85579504  0.51928979  1  -0.034123  0  -0.028002  -0.205906  0  3.919492  0
C  C114  1  0.85577763  0.33960953  0.51932017  1  0.034116  0  -0.027571  -0.205079  0  3.919782  0
C  C115  1  0.33964512  0.28524787  0.51931412  1  0.032122  0  -0.028079  -0.207229  0  3.922718  0
C  C116  1  0.72395399  0.83468682  0.99381357  1  -0.133142  0  -0.065046  -0.02095  0  3.987799  0
C  C117  1  0.44754502  0.72396601  0.99379451  1  -0.030228  0  -0.065305  -0.022458  0  3.985387  0
C  C118  1  0.83458710  0.44755362  0.99381199  1  -0.086664  0  -0.065636  -0.022802  0  3.986138  0
C  C119  1  0.77603529  0.05245466  0.50620528  1  -0.030518  0  -0.06535  -0.022567  0  3.985418  0
C  C120  1  0.05244626  0.66541296  0.50618718  1  -0.086645  0  -0.065604  -0.022816  0  3.986046  0
C  C121  1  0.66531191  0.77604832  0.50618636  1  -0.133097  0  -0.065039  -0.020909  0  3.987748  0
C  C122  1  0.27604667  0.16531332  0.00618603  1  -0.133156  0  -0.065019  -0.020924  0  3.987724  0
C  C123  1  0.55245424  0.27603470  0.00620536  1  -0.030508  0  -0.065298  -0.022405  0  3.985384  0
C  C124  1  0.16541216  0.55244709  0.00618741  1  -0.08669  0  -0.065569  -0.022734  0  3.985959  0
C  C125  1  0.22396537  0.94754420  0.49379521  1  -0.030009  0  -0.0653  -0.022428  0  3.985393  0
C  C126  1  0.94755440  0.33458718  0.49381289  1  -0.086563  0  -0.065639  -0.022875  0  3.986167  0
C  C127  1  0.33468735  0.22395304  0.49381331  1  -0.133094  0  -0.065002  -0.020888  0  3.987723  0
C  C128  1  0.66644093  0.78692585  0.03870481  1  -0.006358  0  -0.114691  -0.202487  0  4.053796  0
C  C129  1  0.50791815  0.66646749  0.03869696  1  -0.058097  0  -0.114666  -0.200582  0  4.051366  0
C  C130  1  0.78689619  0.50791117  0.03872302  1  -0.03757  0  -0.115028  -0.20141  0  4.050141  0
C  C131  1  0.83353239  0.99208136  0.46130349  1  -0.057743  0  -0.114694  -0.200637  0  4.051378  0
C  C132  1  0.99208863  0.71310460  0.46127611  1  -0.037659  0  -0.115077  -0.201368  0  4.050138  0
C  C133  1  0.71307424  0.83355981  0.46129565  1  -0.006424  0  -0.114707  -0.202527  0  4.053744  0
C  C134  1  0.33355974  0.21307429  0.96129526  1  -0.00611  0  -0.114694  -0.202466  0  4.053731  0
C  C135  1  0.49208111  0.33353322  0.96130291  1  -0.057974  0  -0.114697  -0.200677  0  4.051425  0
C  C136  1  0.21310378  0.49208990  0.96127651  1  -0.037554  0  -0.115066  -0.201424  0  4.050096  0
C  C137  1  0.16646827  0.00791814  0.53869632  1  -0.058349  0  -0.114642  -0.200565  0  4.051427  0
C  C138  1  0.00791133  0.28689583  0.53872362  1  -0.037805  0  -0.11505  -0.201404  0  4.050158  0
C  C139  1  0.28692572  0.16643997  0.53870477  1  -0.006127  0  -0.114711  -0.202489  0  4.053683  0
C  C140  1  0.66886093  0.74825376  0.11045232  1  0.52351  0  0.058558  0.152229  0  3.993995  0
C  C141  1  0.47244500  0.66889205  0.11043439  1  0.547986  0  0.059042  0.151736  0  3.99542  0
C  C142  1  0.74816766  0.47245481  0.11045753  1  0.494471  0  0.059107  0.151509  0  3.996318  0
C  C143  1  0.83110739  0.02755382  0.38956627  1  0.547888  0  0.059043  0.151717  0  3.995447  0
C  C144  1  0.02754537  0.75183341  0.38954167  1  0.494655  0  0.059089  0.151397  0  3.996319  0
C  C145  1  0.75174746  0.83113930  0.38954841  1  0.52214  0  0.058544  0.152216  0  3.993942  0
C  C146  1  0.33113903  0.25174603  0.88954762  1  0.523262  0  0.05852  0.152163  0  3.993957  0
C  C147  1  0.52755566  0.33110680  0.88956515  1  0.547984  0  0.059041  0.151748  0  3.995461  0
C  C148  1  0.25183300  0.52754534  0.88954207  1  0.494473  0  0.059102  0.151488  0  3.996292  0
C  C149  1  0.16889327  0.97244504  0.61043374  1  0.547986  0  0.059046  0.15169  0  3.995373  0
C  C150  1  0.97245529  0.24816674  0.61045793  1  0.494686  0  0.059091  0.151456  0  3.996326  0
C  C151  1  0.24825320  0.16886085  0.61045261  1  0.523145  0  0.058504  0.15214  0  3.993881  0
C  C152  1  0.83724200  0.89996965  0.97435033  1  1.498002  0  0.213175  0.630674  0  4.162286  0
C  C153  1  0.28839485  0.83725255  0.97433983  1  1.523166  0  0.213144  0.629493  0  4.162081  0
C  C154  1  0.90000792  0.28838925  0.97436362  1  1.507416  0  0.213952  0.629677  0  4.16077  0
C  C155  1  0.66274961  0.21160609  0.52565832  1  1.524373  0  0.213177  0.629514  0  4.161945  0
C  C156  1  0.21161132  0.59999021  0.52563502  1  1.507418  0  0.214006  0.629723  0  4.16073  0
C  C157  1  0.60002909  0.66276073  0.52564851  1  1.498025  0  0.213112  0.630499  0  4.162419  0
C  C158  1  0.16275866  0.10002985  0.02564900  1  1.497993  0  0.213197  0.630618  0  4.162314  0
C  C159  1  0.71160721  0.16274703  0.02565998  1  1.52405  0  0.213128  0.629508  0  4.161995  0
C  C160  1  0.09999274  0.71161089  0.02563504  1  1.507438  0  0.213926  0.629659  0  4.160766  0
C  C161  1  0.33725176  0.78839313  0.47434182  1  1.524379  0  0.213149  0.629484  0  4.161945  0
C  C162  1  0.78838864  0.40000958  0.47436493  1  1.507422  0  0.213996  0.629696  0  4.160686  0
C  C163  1  0.39997087  0.33724034  0.47435102  1  1.498066  0  0.213212  0.630701  0  4.162274  0
C  C164  1  0.69036950  0.09093292  0.25455331  1  1.186672  0  0.208479  0.485248  0  4.140953  0
C  C165  1  0.96410060  0.69042501  0.25456012  1  1.176392  0  0.20945  0.487076  0  4.139012  0
C  C166  1  0.09094770  0.96414928  0.25450808  1  1.191831  0  0.209144  0.487077  0  4.13789  0
C  C167  1  0.80957575  0.53589951  0.24544035  1  1.176598  0  0.209393  0.486952  0  4.139114  0
C  C168  1  0.53585148  0.40905219  0.24549179  1  1.191866  0  0.209157  0.487073  0  4.138039  0
C  C169  1  0.40906672  0.80963108  0.24544719  1  1.186712  0  0.20845  0.485197  0  4.140876  0
C  C170  1  0.30963117  0.90906530  0.74544691  1  1.186662  0  0.208501  0.48532  0  4.140861  0
C  C171  1  0.03589936  0.30957671  0.74543968  1  1.176203  0  0.209392  0.486948  0  4.139131  0
C  C172  1  0.90905156  0.03585271  0.74549138  1  1.191871  0  0.20911  0.487002  0  4.138043  0
C  C173  1  0.19042351  0.46409992  0.75456041  1  1.175853  0  0.209433  0.487019  0  4.139095  0
C  C174  1  0.46414989  0.59094767  0.75450720  1  1.191841  0  0.209141  0.487134  0  4.138001  0
C  C175  1  0.59093324  0.19036870  0.75455228  1  1.186667  0  0.208378  0.485095  0  4.14113  0
C  C176  1  0.66930286  0.02243784  0.25035429  1  -0.015688  0  -0.024825  -0.220417  0  3.927897  0
C  C177  1  0.05784467  0.66934379  0.25039068  1  -0.061742  0  -0.025177  -0.221151  0  3.926167  0
C  C178  1  0.02244570  0.05789197  0.25034845  1  -0.004883  0  -0.02503  -0.221152  0  3.928033  0
C  C179  1  0.83065612  0.44215587  0.24960926  1  -0.061877  0  -0.025187  -0.221132  0  3.926161  0
C  C180  1  0.44210666  0.47755522  0.24965257  1  -0.004905  0  -0.025055  -0.221167  0  3.92812  0
C  C181  1  0.47756191  0.83069795  0.24964563  1  -0.015678  0  -0.024769  -0.220386  0  3.927777  0
C  C182  1  0.33069780  0.97756102  0.74964525  1  -0.015612  0  -0.024821  -0.220468  0  3.927837  0
C  C183  1  0.94215529  0.33065663  0.74960953  1  -0.061923  0  -0.025177  -0.221139  0  3.926184  0
C  C184  1  0.97755356  0.94210810  0.74965257  1  -0.004872  0  -0.025051  -0.221214  0  3.928073  0
C  C185  1  0.16934455  0.55784428  0.75039034  1  -0.061739  0  -0.025139  -0.221062  0  3.926054  0
C  C186  1  0.55789401  0.52244556  0.75034683  1  -0.004873  0  -0.025042  -0.221198  0  3.928241  0
C  C187  1  0.52243735  0.16930212  0.75035445  1  -0.015672  0  -0.024719  -0.220373  0  3.927877  0
C  C188  1  0.58388307  0.01653413  0.29390941  1  -0.111762  0  -0.060647  -0.012421  0  3.95735  0
C  C189  1  0.10564263  0.58389134  0.29392129  1  0.062623  0  -0.060261  -0.013491  0  3.960926  0
C  C190  1  0.01652379  0.10564512  0.29392734  1  -0.090191  0  -0.05981  -0.011725  0  3.958889  0
C  C191  1  0.91610929  0.39435782  0.20607893  1  0.062938  0  -0.060311  -0.013569  0  3.960983  0
C  C192  1  0.39435530  0.48347664  0.20607278  1  -0.090207  0  -0.059788  -0.011685  0  3.958997  0
C  C193  1  0.48346564  0.91611795  0.20609091  1  -0.111764  0  -0.06066  -0.012431  0  3.957314  0
C  C194  1  0.41611760  0.98346538  0.70609088  1  -0.111815  0  -0.060646  -0.012417  0  3.957373  0
C  C195  1  0.89435663  0.41610937  0.70607906  1  0.062787  0  -0.060276  -0.013549  0  3.960979  0
C  C196  1  0.98347687  0.89435503  0.70607273  1  -0.09023  0  -0.059803  -0.011676  0  3.958941  0
C  C197  1  0.08389137  0.60564297  0.79392046  1  0.062799  0  -0.060343  -0.013645  0  3.960977  0
C  C198  1  0.60564536  0.51652222  0.79392723  1  -0.090275  0  -0.059762  -0.011649  0  3.959102  0
C  C199  1  0.51653362  0.08388212  0.79391011  1  -0.11179  0  -0.060677  -0.012429  0  3.957397  0
C  C200  1  0.52125021  0.07856062  0.33694396  1  0.061941  0  -0.111831  -0.19846  0  4.045588  0
C  C201  1  0.06319446  0.52128483  0.33698408  1  -0.126109  0  -0.110986  -0.19641  0  4.047959  0
C  C202  1  0.07857389  0.06322946  0.33693668  1  0.005484  0  -0.11184  -0.198818  0  4.046703  0
C  C203  1  0.97871462  0.43680591  0.16301560  1  -0.126119  0  -0.110972  -0.196352  0  4.047958  0
C  C204  1  0.43677135  0.42142602  0.16306397  1  0.005524  0  -0.11185  -0.19885  0  4.046776  0
C  C205  1  0.42143868  0.97875016  0.16305577  1  0.061835  0  -0.111818  -0.198406  0  4.045594  0
C  C206  1  0.47875045  0.92143824  0.66305653  1  0.061944  0  -0.111798  -0.198381  0  4.045628  0
C  C207  1  0.93680410  0.47871552  0.66301613  1  -0.126038  0  -0.111017  -0.196334  0  4.047976  0
C  C208  1  0.92142608  0.93677033  0.66306374  1  0.005502  0  -0.111828  -0.19881  0  4.046739  0
C  C209  1  0.02128535  0.56319516  0.83698393  1  -0.126093  0  -0.110985  -0.196369  0  4.04797  0
C  C210  1  0.56322932  0.57857348  0.83693678  1  0.005516  0  -0.111821  -0.19877  0  4.046689  0
C  C211  1  0.57856128  0.02124963  0.83694418  1  0.061809  0  -0.111805  -0.198376  0  4.045647  0
C  C212  1  0.54587254  0.14655537  0.33524515  1  0.472332  0  0.059742  0.153184  0  3.968322  0
C  C213  1  0.97229328  0.54590771  0.33524568  1  0.496944  0  0.059792  0.15383  0  3.968868  0
C  C214  1  0.14657750  0.97232435  0.33523170  1  0.489145  0  0.059573  0.154917  0  3.969041  0
C  C215  1  0.95409321  0.52770608  0.16475450  1  0.496878  0  0.059783  0.15378  0  3.968852  0
C  C216  1  0.52767692  0.35342143  0.16476973  1  0.489117  0  0.059554  0.154841  0  3.969111  0
C  C217  1  0.35344466  0.95412741  0.16475400  1  0.472217  0  0.059728  0.153118  0  3.968383  0
C  C218  1  0.45412813  0.85344413  0.66475466  1  0.472234  0  0.059762  0.153183  0  3.968296  0
C  C219  1  0.02770527  0.45409392  0.66475364  1  0.496911  0  0.059748  0.153691  0  3.968955  0
C  C220  1  0.85342176  0.02767572  0.66476932  1  0.489165  0  0.059525  0.154856  0  3.969038  0
C  C221  1  0.04590676  0.47229434  0.83524618  1  0.496922  0  0.0598  0.153827  0  3.96882  0
C  C222  1  0.47232375  0.64657807  0.83523008  1  0.489267  0  0.059534  0.154786  0  3.969161  0
C  C223  1  0.64655460  0.04587330  0.83524540  1  0.47157  0  0.059716  0.153102  0  3.968376  0
C  C224  1  0.73418961  0.95607014  0.20450980  1  1.546207  0  0.245761  0.688368  0  4.102618  0
C  C225  1  0.10514722  0.73423464  0.20453664  1  1.573403  0  0.247138  0.689845  0  4.098243  0
C  C226  1  0.95606934  0.10518255  0.20453651  1  1.573141  0  0.247011  0.689122  0  4.098241  0
C  C227  1  0.76576426  0.39485437  0.29546329  1  1.573413  0  0.247056  0.689689  0  4.098507  0
C  C228  1  0.39481748  0.54392965  0.29546439  1  1.573151  0  0.247042  0.68915  0  4.098166  0
C  C229  1  0.54392734  0.76581015  0.29549182  1  1.546202  0  0.245722  0.688435  0  4.102568  0
C  C230  1  0.26581035  0.04393093  0.79548973  1  1.54668  0  0.245753  0.688333  0  4.102635  0
C  C231  1  0.89485415  0.26576457  0.79546209  1  1.573383  0  0.247112  0.689835  0  4.098239  0
C  C232  1  0.04393062  0.89481659  0.79546412  1  1.573146  0  0.247047  0.689227  0  4.098043  0
C  C233  1  0.23423500  0.60514698  0.70453637  1  1.573409  0  0.247092  0.689775  0  4.098353  0
C  C234  1  0.60518178  0.45607042  0.70453521  1  1.573144  0  0.24702  0.689153  0  4.098107  0
C  C235  1  0.45606982  0.23419077  0.70450867  1  1.546174  0  0.245732  0.68841  0  4.102599  0
N  N236  1  0.72789072  0.74986311  0.13616821  1  -1.262084  0  -0.377696  -0.433164  0  3.406854  0
N  N237  1  0.38607975  0.72787675  0.13616184  1  -1.269144  0  -0.378105  -0.43387  0  3.405617  0
N  N238  1  0.74982505  0.38608174  0.13619165  1  -1.26302  0  -0.378348  -0.433622  0  3.407116  0
N  N239  1  0.77212328  0.11391922  0.36383811  1  -1.269192  0  -0.378112  -0.433879  0  3.405545  0
N  N240  1  0.11391880  0.75017556  0.36380759  1  -1.263062  0  -0.378355  -0.433554  0  3.407145  0
N  N241  1  0.75013594  0.77211011  0.36383256  1  -1.261198  0  -0.377656  -0.433105  0  3.406851  0
N  N242  1  0.27210924  0.25013603  0.86383194  1  -1.262146  0  -0.377693  -0.433192  0  3.406871  0
N  N243  1  0.61392092  0.27212275  0.86383891  1  -1.269129  0  -0.378118  -0.433871  0  3.405837  0
N  N244  1  0.25017561  0.61391841  0.86380795  1  -1.263049  0  -0.378358  -0.433615  0  3.407185  0
N  N245  1  0.22787808  0.88608064  0.63616136  1  -1.269167  0  -0.378147  -0.433867  0  3.40561  0
N  N246  1  0.88608186  0.24982523  0.63619133  1  -1.263026  0  -0.378355  -0.433617  0  3.407203  0
N  N247  1  0.24986191  0.22789181  0.63616785  1  -1.262046  0  -0.377707  -0.433197  0  3.40688  0
N  N248  1  0.62786102  0.15210217  0.29549509  1  -1.277315  0  -0.399632  -0.444433  0  3.464655  0
N  N249  1  0.92450912  0.62790534  0.29550112  1  -1.262608  0  -0.400617  -0.445837  0  3.464746  0
N  N250  1  0.15208345  0.92454544  0.29548769  1  -1.267428  0  -0.399433  -0.444934  0  3.462595  0
N  N251  1  0.87209380  0.57549146  0.20449830  1  -1.262543  0  -0.400559  -0.4457  0  3.464666  0
N  N252  1  0.57545653  0.34791489  0.20451324  1  -1.267436  0  -0.399477  -0.444911  0  3.462661  0
N  N253  1  0.34789729  0.87213880  0.20450666  1  -1.277208  0  -0.399612  -0.444394  0  3.464688  0
N  N254  1  0.37213894  0.84789569  0.70450548  1  -1.27727  0  -0.399652  -0.444487  0  3.464714  0
N  N255  1  0.07549084  0.37209509  0.70449767  1  -1.262323  0  -0.400562  -0.445686  0  3.464686  0
N  N256  1  0.84791440  0.07545520  0.70451361  1  -1.267399  0  -0.399424  -0.44495  0  3.462703  0
N  N257  1  0.12790475  0.42450889  0.79550192  1  -1.26242  0  -0.400576  -0.445784  0  3.464731  0
N  N258  1  0.42454414  0.65208332  0.79548699  1  -1.267473  0  -0.399443  -0.444917  0  3.462701  0
N  N259  1  0.65210267  0.12786098  0.79549376  1  -1.277228  0  -0.39961  -0.444383  0  3.464692  0
O  O260  1  0.88701417  0.91250126  0.00016980  1  -1.209223  0  -0.428747  -0.739468  0  2.339007  0
O  O261  1  0.20027773  0.88699676  0.00016275  1  -1.211501  0  -0.428222  -0.738329  0  2.338172  0
O  O262  1  0.91249765  0.20028300  0.00017318  1  -1.211253  0  -0.428541  -0.738727  0  2.338724  0
O  O263  1  0.61300757  0.29972516  0.49983594  1  -1.211537  0  -0.428296  -0.738372  0  2.338081  0
O  O264  1  0.29971789  0.58749777  0.49982432  1  -1.211285  0  -0.428578  -0.738796  0  2.338778  0
O  O265  1  0.58749295  0.61299064  0.49982840  1  -1.209307  0  -0.428766  -0.739446  0  2.33909  0
O  O266  1  0.11298509  0.08750009  0.99982986  1  -1.209209  0  -0.42874  -0.739447  0  2.339072  0
O  O267  1  0.79972363  0.11300310  0.99983719  1  -1.211546  0  -0.428225  -0.738296  0  2.338087  0
O  O268  1  0.08750231  0.79971678  0.99982581  1  -1.211262  0  -0.428522  -0.738709  0  2.338723  0
O  O269  1  0.38699309  0.70027434  0.50016481  1  -1.211566  0  -0.428278  -0.738326  0  2.338105  0
O  O270  1  0.70028067  0.41250322  0.50017616  1  -1.211309  0  -0.428592  -0.738814  0  2.338732  0
O  O271  1  0.41250631  0.38701007  0.50017147  1  -1.209325  0  -0.428776  -0.739497  0  2.339052  0
O  O272  1  0.82991080  0.94500302  0.91094266  1  -1.176285  0  -0.355412  -0.600347  0  2.184496  0
O  O273  1  0.31410224  0.82986894  0.91094692  1  -1.179691  0  -0.355334  -0.599931  0  2.185802  0
O  O274  1  0.94501586  0.31412420  0.91094846  1  -1.180259  0  -0.355556  -0.599476  0  2.183252  0
O  O275  1  0.67013131  0.18589717  0.58905187  1  -1.180056  0  -0.355336  -0.599927  0  2.185766  0
O  O276  1  0.18587555  0.55498355  0.58905097  1  -1.180252  0  -0.355585  -0.599486  0  2.183228  0
O  O277  1  0.55499833  0.67008867  0.58905781  1  -1.176352  0  -0.355333  -0.600253  0  2.18451  0
O  O278  1  0.17008846  0.05499640  0.08905763  1  -1.176269  0  -0.35542  -0.600345  0  2.184491  0
O  O279  1  0.68589842  0.17013120  0.08905316  1  -1.17967  0  -0.355326  -0.599954  0  2.185808  0
O  O280  1  0.05498410  0.68587687  0.08905106  1  -1.180228  0  -0.355557  -0.599501  0  2.183263  0
O  O281  1  0.32987006  0.81410012  0.41094748  1  -1.180033  0  -0.355306  -0.599901  0  2.185728  0
O  O282  1  0.81412371  0.44501587  0.41094932  1  -1.18022  0  -0.355551  -0.599445  0  2.183226  0
O  O283  1  0.44500163  0.32991176  0.41094193  1  -1.176357  0  -0.355399  -0.600355  0  2.1845  0
O  O284  1  0.85020377  0.77790085  0.12024935  1  -1.198125  0  -0.458533  -0.729774  0  2.500227  0
O  O285  1  0.25163761  0.85019736  0.12024218  1  -1.213292  0  -0.458349  -0.729722  0  2.49996  0
O  O286  1  0.77788377  0.25161778  0.12028777  1  -1.200679  0  -0.457533  -0.727805  0  2.500592  0
O  O287  1  0.64980214  0.24836214  0.37975768  1  -1.213299  0  -0.458338  -0.729726  0  2.49993  0
O  O288  1  0.24838155  0.72211651  0.37971198  1  -1.200648  0  -0.457465  -0.72775  0  2.500569  0
O  O289  1  0.72209914  0.64979611  0.37974953  1  -1.19818  0  -0.45852  -0.729781  0  2.500159  0
O  O290  1  0.14979479  0.22209886  0.87975060  1  -1.198204  0  -0.45853  -0.72982  0  2.5002  0
O  O291  1  0.74836165  0.14980400  0.87975654  1  -1.213285  0  -0.458368  -0.72967  0  2.499983  0
O  O292  1  0.22211689  0.74838173  0.87971062  1  -1.200617  0  -0.457494  -0.727741  0  2.50059  0
O  O293  1  0.35019783  0.75163765  0.62024273  1  -1.213308  0  -0.458353  -0.729707  0  2.499967  0
O  O294  1  0.75161842  0.27788392  0.62028823  1  -1.200638  0  -0.45752  -0.727837  0  2.500613  0
O  O295  1  0.27789872  0.35020516  0.62024966  1  -1.198189  0  -0.458514  -0.729761  0  2.500206  0
O  O296  1  0.80803089  0.96772088  0.15707824  1  -1.212438  0  -0.430138  -0.749103  0  2.343762  0
O  O297  1  0.06714873  0.80804569  0.15706607  1  -1.215338  0  -0.430677  -0.750286  0  2.344766  0
O  O298  1  0.96775620  0.06714863  0.15707335  1  -1.21395  0  -0.431255  -0.750478  0  2.343287  0
O  O299  1  0.69195339  0.43285156  0.34293469  1  -1.215438  0  -0.430614  -0.750171  0  2.344787  0
O  O300  1  0.43285309  0.53224201  0.34292678  1  -1.213977  0  -0.431257  -0.750486  0  2.34323  0
O  O301  1  0.53227971  0.69196731  0.34292240  1  -1.212504  0  -0.430119  -0.749126  0  2.343814  0
O  O302  1  0.19196907  0.03228019  0.84292129  1  -1.212827  0  -0.430126  -0.749089  0  2.343806  0
O  O303  1  0.93284982  0.19195466  0.84293556  1  -1.215393  0  -0.430648  -0.750283  0  2.344695  0
O  O304  1  0.03224306  0.93285337  0.84292563  1  -1.213959  0  -0.431206  -0.750417  0  2.343185  0
O  O305  1  0.30804517  0.56714943  0.65706532  1  -1.21542  0  -0.430638  -0.750226  0  2.344795  0
O  O306  1  0.56714757  0.46775813  0.65707235  1  -1.213971  0  -0.431216  -0.75044  0  2.343285  0
O  O307  1  0.46772095  0.30803283  0.65707767  1  -1.212491  0  -0.430138  -0.749158  0  2.343793  0
O  O308  1  0.71471836  0.88931532  0.21368239  1  -1.1849  0  -0.375337  -0.623703  0  2.358366  0
O  O309  1  0.18223742  0.71473135  0.21366602  1  -1.186212  0  -0.376013  -0.623882  0  2.35344  0
O  O310  1  0.88932436  0.18224961  0.21368206  1  -1.203416  0  -0.375555  -0.623279  0  2.35431  0
O  O311  1  0.78526881  0.31776400  0.28633403  1  -1.186176  0  -0.37597  -0.623817  0  2.353529  0
O  O312  1  0.31774987  0.61067604  0.28631903  1  -1.203442  0  -0.375563  -0.623279  0  2.354209  0
O  O313  1  0.61068246  0.78527998  0.28631959  1  -1.18481  0  -0.375298  -0.623704  0  2.358284  0
O  O314  1  0.28528161  0.11068446  0.78631897  1  -1.184968  0  -0.375347  -0.623716  0  2.358365  0
O  O315  1  0.81776324  0.28526879  0.78633405  1  -1.186197  0  -0.375997  -0.62387  0  2.353447  0
O  O316  1  0.11067700  0.81774961  0.78631809  1  -1.203438  0  -0.375599  -0.623366  0  2.35425  0
O  O317  1  0.21473116  0.68223643  0.71366712  1  -1.186216  0  -0.375988  -0.62386  0  2.353472  0
O  O318  1  0.68225009  0.38932439  0.71368023  1  -1.203439  0  -0.375596  -0.623319  0  2.354154  0
O  O319  1  0.38931610  0.21471973  0.71368036  1  -1.184798  0  -0.375292  -0.62368  0  2.358317  0
O  O320  1  0.76930955  0.10153985  0.22105397  1  -1.199413  0  -0.463609  -0.726125  0  2.441159  0
O  O321  1  0.90807851  0.76935596  0.22103374  1  -1.201677  0  -0.464702  -0.727285  0  2.441291  0
O  O322  1  0.10151526  0.90809489  0.22102783  1  -1.195562  0  -0.464742  -0.728105  0  2.440284  0
O  O323  1  0.73064347  0.59192055  0.27896654  1  -1.201918  0  -0.464683  -0.727212  0  2.441195  0
O  O324  1  0.59190387  0.39848554  0.27897145  1  -1.195615  0  -0.46472  -0.728096  0  2.44038  0
O  O325  1  0.39846179  0.73068907  0.27894605  1  -1.199446  0  -0.463605  -0.726106  0  2.441079  0
O  O326  1  0.23069041  0.89845865  0.77894734  1  -1.199404  0  -0.463637  -0.726131  0  2.441109  0
O  O327  1  0.09192075  0.23064475  0.77896755  1  -1.201668  0  -0.464688  -0.727242  0  2.441221  0
O  O328  1  0.89848260  0.09190575  0.77897252  1  -1.195572  0  -0.464709  -0.728062  0  2.440355  0
O  O329  1  0.26935579  0.40807823  0.72103301  1  -1.201483  0  -0.46471  -0.727256  0  2.44127  0
O  O330  1  0.40809539  0.60151582  0.72102774  1  -1.195625  0  -0.464715  -0.728131  0  2.440336  0
O  O331  1  0.60153887  0.26930979  0.72105397  1  -1.199348  0  -0.463599  -0.726056  0  2.441147  0
O  O332  1  0.97827008  0.97826902  0.06514792  1  -1.291438  0  -0.846244  -1.247379  0  2.020436  0
O  O333  1  0.52173076  0.52173026  0.43485325  1  -1.291446  0  -0.846252  -1.24735  0  2.020494  0
O  O334  1  0.02172988  0.02173012  0.93485365  1  -1.291476  0  -0.846236  -1.247404  0  2.020486  0
O  O335  1  0.47826991  0.47826925  0.56514703  1  -1.291418  0  -0.846239  -1.247309  0  2.020333  0
