# generated using pymatgen
data_Co2H14C24Br4N4O9
_symmetry_space_group_name_H-M   'P 1'
_cell_length_a   11.30582225
_cell_length_b   11.30588352
_cell_length_c   14.42404367
_cell_angle_alpha   109.68763037
_cell_angle_beta   109.68741074
_cell_angle_gamma   96.77829777
_symmetry_Int_Tables_number   1
_chemical_formula_structural   Co2H14C24Br4N4O9
_chemical_formula_sum   'Co4 H28 C48 Br8 N8 O18'
_cell_volume   1577.73743930
_cell_formula_units_Z   2
loop_
 _symmetry_equiv_pos_site_id
 _symmetry_equiv_pos_as_xyz
  1  'x, y, z'
loop_
 _atom_site_type_symbol
 _atom_site_label
 _atom_site_symmetry_multiplicity
 _atom_site_fract_x
 _atom_site_fract_y
 _atom_site_fract_z
 _atom_site_occupancy
 _atom_site_pbe_bader_charge
 _atom_site_pbe_bader_spin_density
 _atom_site_pbe_cm5_charge
 _atom_site_pbe_ddec_charge
 _atom_site_pbe_ddec_spin_density
 _atom_site_pbe_ddec_sum_bond_order
 _atom_site_pbe_magmom
Co  Co0  1  0.28524102  0.53126007  0.29339644  1  1.294485  2.60822  0.672663  0.918556  2.830324  2.401471  2.59
Co  Co1  1  0.46874025  0.71476196  0.20660302  1  1.294522  2.608236  0.672608  0.918507  2.830348  2.401501  2.59
Co  Co2  1  0.71475998  0.46874052  0.70660246  1  1.294518  2.608231  0.672636  0.918566  2.830338  2.40144  2.59
Co  Co3  1  0.53125978  0.28523932  0.79339651  1  1.294489  2.608226  0.672606  0.918475  2.83033  2.401505  2.59
H  H4  1  0.49545476  0.38272969  0.99590745  1  0.1179  0.001835  0.118455  0.098004  0.000565  1.030328  0.001
H  H5  1  0.61726680  0.50455191  0.50409760  1  0.117954  0.001834  0.118474  0.098052  0.000564  1.0303  0.001
H  H6  1  0.50455403  0.61727104  0.00409772  1  0.117971  0.001834  0.118474  0.098082  0.000564  1.030245  0.001
H  H7  1  0.38273225  0.49545286  0.49590744  1  0.11785  0.001835  0.11843  0.097982  0.000565  1.030315  0.001
H  H8  1  0.42716432  0.04936425  0.58611552  1  0.169245  0.001711  0.119421  0.099171  0.000621  1.043782  0.001
H  H9  1  0.95062933  0.57282604  0.91387972  1  0.168957  0.001711  0.119409  0.099163  0.000621  1.043809  0.001
H  H10  1  0.57282890  0.95063337  0.41388192  1  0.168862  0.001711  0.119423  0.099153  0.000621  1.043814  0.001
H  H11  1  0.04936875  0.42716627  0.08611554  1  0.169007  0.001711  0.119385  0.099091  0.000621  1.043827  0.001
H  H12  1  0.08370633  0.29951324  0.92483610  1  0.149608  5.5e-05  0.112528  0.136403  -0.000208  0.999256  0.0
H  H13  1  0.70048031  0.91629985  0.57517013  1  0.14957  5.5e-05  0.112528  0.136453  -0.000208  0.999159  0.0
H  H14  1  0.91630148  0.70047973  0.07516537  1  0.149492  5.5e-05  0.112526  0.136456  -0.000208  0.999162  0.0
H  H15  1  0.29950999  0.08370452  0.42482971  1  0.149632  5.5e-05  0.112511  0.136377  -0.000208  0.999202  0.0
H  H16  1  0.39726674  0.70526958  0.65229324  1  0.119504  4.1e-05  0.107127  0.123748  -0.000188  1.016041  0.0
H  H17  1  0.29473149  0.60273252  0.84770711  1  0.11949  4.1e-05  0.107122  0.123703  -0.000188  1.015998  0.0
H  H18  1  0.60273135  0.29472931  0.34770514  1  0.119456  4.1e-05  0.107132  0.123734  -0.000188  1.016011  0.0
H  H19  1  0.70527243  0.39726695  0.15229366  1  0.11956  4.1e-05  0.107124  0.123775  -0.000188  1.016053  0.0
H  H20  1  0.23531022  0.18274104  0.67797012  1  0.137194  0.001676  0.11969  0.105808  0.000317  1.008647  0.001
H  H21  1  0.81726563  0.76469565  0.82203407  1  0.137175  0.001676  0.119674  0.105808  0.000317  1.008631  0.001
H  H22  1  0.76470149  0.81726328  0.32203330  1  0.136904  0.001676  0.119688  0.105822  0.000317  1.008586  0.001
H  H23  1  0.18273732  0.23531671  0.17797055  1  0.137229  0.001676  0.119686  0.105759  0.000317  1.0087  0.001
H  H24  1  0.56280558  0.09514852  0.90472555  1  0.156988  0.001579  0.110998  0.096063  0.000263  1.03365  0.001
H  H25  1  0.90485354  0.43719286  0.59527250  1  0.15695  0.001579  0.110984  0.096022  0.000263  1.033646  0.001
H  H26  1  0.43719056  0.90484986  0.09527218  1  0.156945  0.001579  0.110988  0.096013  0.000263  1.033651  0.001
H  H27  1  0.09515233  0.56280336  0.40472585  1  0.156926  0.001579  0.111006  0.096114  0.000263  1.033603  0.001
H  H28  1  0.23304141  0.68864452  0.18265099  1  0.652038  0.000427  0.28552  0.375619  0.000473  0.980839  0.001
H  H29  1  0.31134035  0.76694641  0.31733735  1  0.65217  0.000426  0.285442  0.375481  0.000474  0.981012  0.001
H  H30  1  0.76695084  0.31134627  0.81734162  1  0.65215  0.000427  0.285461  0.375516  0.000474  0.980979  0.001
H  H31  1  0.68864898  0.23304644  0.68265434  1  0.652063  0.000427  0.285473  0.375544  0.000473  0.980947  0.001
C  C32  1  0.39414148  0.33934378  0.93963584  1  0.560443  -0.007404  0.045182  0.069884  -0.007759  3.893553  -0.005
C  C33  1  0.66065420  0.60586496  0.56036620  1  0.560565  -0.007404  0.04513  0.069759  -0.007759  3.893484  -0.005
C  C34  1  0.60586633  0.66065670  0.06036553  1  0.560573  -0.007404  0.045122  0.069712  -0.007759  3.89356  -0.005
C  C35  1  0.33934389  0.39414144  0.43963694  1  0.560465  -0.007404  0.045242  0.069981  -0.007759  3.893486  -0.005
C  C36  1  0.44142512  0.00317564  0.64252867  1  0.41379  -0.006198  0.052298  0.080654  -0.006931  3.885664  -0.004
C  C37  1  0.99682164  0.55856774  0.85746877  1  0.414118  -0.0062  0.052405  0.080711  -0.006933  3.885699  -0.004
C  C38  1  0.55857005  0.99682342  0.35747036  1  0.414217  -0.006201  0.052344  0.080744  -0.006934  3.885655  -0.004
C  C39  1  0.00317936  0.44142721  0.14252795  1  0.413951  -0.006199  0.052351  0.080747  -0.006932  3.885732  -0.004
C  C40  1  0.29379423  0.34923092  0.97552982  1  -0.075169  0.014978  -0.01236  -0.058078  0.007755  3.946722  0.012
C  C41  1  0.65076933  0.70621287  0.52447184  1  -0.075178  0.014976  -0.012346  -0.057932  0.007753  3.94675  0.012
C  C42  1  0.70621360  0.65077238  0.02447022  1  -0.07523  0.014976  -0.012325  -0.057913  0.007754  3.946711  0.012
C  C43  1  0.34922876  0.29379259  0.47552966  1  -0.075154  0.014977  -0.012365  -0.058074  0.007754  3.946715  0.012
C  C44  1  0.40278502  0.86792809  0.60489761  1  0.034747  0.009891  -0.012805  -0.059675  0.005057  3.951154  0.008
C  C45  1  0.13207073  0.59720898  0.89510177  1  0.03472  0.009891  -0.012854  -0.059652  0.005058  3.951258  0.008
C  C46  1  0.59721015  0.13207097  0.39510142  1  0.034717  0.00989  -0.012825  -0.059729  0.005057  3.951278  0.008
C  C47  1  0.86793125  0.40278716  0.10489760  1  0.034756  0.009891  -0.012773  -0.059646  0.005058  3.951261  0.008
C  C48  1  0.16471442  0.29310982  0.90004355  1  0.030524  -0.013231  -0.071335  -0.112546  -0.014304  3.902515  -0.008
C  C49  1  0.70688633  0.83528965  0.59995985  1  0.030534  -0.013229  -0.071345  -0.112656  -0.014302  3.902746  -0.008
C  C50  1  0.83529242  0.70688760  0.09995745  1  0.030513  -0.013229  -0.071387  -0.112716  -0.014302  3.902691  -0.008
C  C51  1  0.29310689  0.16471548  0.40004028  1  0.030572  -0.013231  -0.071284  -0.11255  -0.014303  3.902487  -0.008
C  C52  1  0.42468956  0.81070699  0.67920868  1  -0.086705  -0.01361  -0.069406  -0.102274  -0.014526  3.918605  -0.008
C  C53  1  0.18929238  0.57530842  0.82079313  1  -0.086673  -0.01361  -0.069452  -0.102252  -0.014527  3.918682  -0.008
C  C54  1  0.57530755  0.18929070  0.32079051  1  -0.086597  -0.013614  -0.069423  -0.102215  -0.01453  3.918683  -0.008
C  C55  1  0.81071056  0.42469078  0.17921009  1  -0.086652  -0.013611  -0.069465  -0.102383  -0.014528  3.918752  -0.008
C  C56  1  0.14385148  0.23423384  0.79169806  1  -0.125409  0.006135  -0.015545  0.060553  0.002866  3.979455  0.005
C  C57  1  0.76576374  0.85615436  0.70830541  1  -0.125173  0.006136  -0.015563  0.060489  0.002865  3.979563  0.005
C  C58  1  0.85615634  0.76576288  0.20830301  1  -0.125111  0.006136  -0.015521  0.060541  0.002866  3.979591  0.005
C  C59  1  0.23422850  0.14385427  0.29169539  1  -0.125244  0.006136  -0.015571  0.06058  0.002866  3.979527  0.005
C  C60  1  0.48322004  0.89377133  0.78797863  1  0.021913  0.005766  -0.01695  0.057579  0.002584  3.97915  0.005
C  C61  1  0.10623183  0.51677864  0.71202234  1  0.021974  0.005766  -0.016955  0.057474  0.002584  3.979205  0.005
C  C62  1  0.51677707  0.10622823  0.21202175  1  0.021869  0.005766  -0.016948  0.057484  0.002584  3.979257  0.005
C  C63  1  0.89377404  0.48321946  0.28797789  1  0.021928  0.005766  -0.016884  0.057636  0.002584  3.979137  0.005
C  C64  1  0.24880619  0.22686798  0.76185167  1  0.52016  -0.009207  0.040472  0.031472  -0.01023  3.930056  -0.006
C  C65  1  0.77313259  0.75119941  0.73815230  1  0.520182  -0.009205  0.040495  0.031533  -0.010229  3.929965  -0.006
C  C66  1  0.75120357  0.77313207  0.23815150  1  0.520404  -0.009205  0.040487  0.031544  -0.010229  3.930041  -0.006
C  C67  1  0.22686355  0.24881212  0.26185099  1  0.519981  -0.009207  0.04047  0.031511  -0.010231  3.930212  -0.006
C  C68  1  0.51717033  0.02838948  0.82022624  1  0.478643  -0.01001  0.037871  0.028283  -0.011248  3.95833  -0.007
C  C69  1  0.97161129  0.48282632  0.67977164  1  0.478603  -0.010011  0.037925  0.028439  -0.01125  3.958257  -0.007
C  C70  1  0.48282581  0.97161172  0.17977224  1  0.478633  -0.010012  0.037918  0.028472  -0.011251  3.958179  -0.007
C  C71  1  0.02839166  0.51717008  0.32022598  1  0.478315  -0.010009  0.037827  0.02819  -0.01125  3.958379  -0.007
C  C72  1  0.33039965  0.43046450  0.09286105  1  1.610292  0.009783  0.217373  0.586793  0.006911  4.184149  0.007
C  C73  1  0.56953542  0.66960467  0.40714113  1  1.609473  0.009787  0.217408  0.58669  0.006913  4.184248  0.007
C  C74  1  0.66960719  0.56953761  0.90714050  1  1.609366  0.009783  0.217394  0.586816  0.006911  4.18399  0.007
C  C75  1  0.43046072  0.33039653  0.59285943  1  1.610348  0.009782  0.217378  0.586796  0.006911  4.184097  0.007
C  C76  1  0.34260161  0.79031669  0.48513006  1  1.560472  0.00071  0.213098  0.578936  -0.000135  4.179945  0.0
C  C77  1  0.20967407  0.65738959  0.01487111  1  1.560192  0.000709  0.213223  0.579128  -0.000136  4.179737  0.0
C  C78  1  0.65739160  0.20967904  0.51487035  1  1.560316  0.000709  0.213208  0.57908  -0.000135  4.179981  0.0
C  C79  1  0.79032206  0.34260503  0.98512908  1  1.560323  0.00071  0.213224  0.579106  -0.000135  4.179893  0.0
Br  Br80  1  0.97361848  0.17000837  0.68093186  1  -0.02379  0.003677  0.051517  -0.031438  0.002092  1.57573  0.003
Br  Br81  1  0.82999187  0.02638789  0.81907124  1  -0.024191  0.003677  0.051482  -0.031452  0.002092  1.575722  0.003
Br  Br82  1  0.02639323  0.82998562  0.31906744  1  -0.02423  0.003678  0.051497  -0.031449  0.002092  1.575674  0.003
Br  Br83  1  0.17000039  0.97362545  0.18092249  1  -0.023904  0.003677  0.051519  -0.031445  0.002092  1.575677  0.003
Br  Br84  1  0.52176674  0.82582465  0.89554889  1  -0.052372  0.003224  0.057218  -0.036939  0.001696  1.530766  0.002
Br  Br85  1  0.17418575  0.47823185  0.60445721  1  -0.052429  0.003224  0.057234  -0.036905  0.001696  1.530781  0.002
Br  Br86  1  0.47823134  0.17418174  0.10445632  1  -0.052409  0.003224  0.057221  -0.036917  0.001696  1.53076  0.002
Br  Br87  1  0.82582790  0.52176639  0.39554928  1  -0.052325  0.003225  0.05721  -0.03694  0.001696  1.530724  0.002
N  N88  1  0.37224714  0.27789548  0.83561574  1  -1.219752  0.058917  -0.323891  -0.219401  0.031117  3.594195  0.052
N  N89  1  0.72210288  0.62775907  0.66438696  1  -1.220008  0.058915  -0.323798  -0.219323  0.031116  3.594038  0.052
N  N90  1  0.62776262  0.72210551  0.16438698  1  -1.219925  0.058915  -0.323828  -0.219363  0.031116  3.594097  0.052
N  N91  1  0.27789520  0.37225014  0.33561762  1  -1.219651  0.058917  -0.323913  -0.219443  0.031118  3.59435  0.052
N  N92  1  0.49614890  0.08203614  0.74766110  1  -1.191669  0.061902  -0.323913  -0.239072  0.033102  3.596298  0.053
N  N93  1  0.91796273  0.50384881  0.75233533  1  -1.191671  0.0619  -0.323987  -0.239209  0.033101  3.596353  0.053
N  N94  1  0.50384821  0.91796155  0.25233671  1  -1.19167  0.061899  -0.323991  -0.239247  0.033101  3.59628  0.053
N  N95  1  0.08204023  0.49614947  0.24766210  1  -1.19133  0.061902  -0.323936  -0.239096  0.033104  3.596444  0.053
O  O96  1  0.25226520  0.40904882  0.13510343  1  -1.147521  0.082006  -0.298955  -0.539524  0.042343  2.338962  0.069
O  O97  1  0.59094340  0.74774694  0.36489889  1  -1.146718  0.082012  -0.299005  -0.539501  0.042346  2.338879  0.069
O  O98  1  0.74774457  0.59094935  0.86489646  1  -1.146686  0.082009  -0.298983  -0.539551  0.042345  2.338856  0.069
O  O99  1  0.40904689  0.25226118  0.63510334  1  -1.147582  0.082009  -0.299005  -0.539546  0.042345  2.338862  0.069
O  O100  1  0.31259665  0.66650668  0.45085783  1  -1.134117  0.061514  -0.30995  -0.561938  0.032058  2.329195  0.053
O  O101  1  0.33348904  0.68739412  0.04914434  1  -1.133935  0.06152  -0.30999  -0.56202  0.032061  2.329157  0.053
O  O102  1  0.68739559  0.33349067  0.54914206  1  -1.133998  0.061514  -0.310016  -0.561982  0.032058  2.329235  0.053
O  O103  1  0.66650903  0.31259912  0.95085808  1  -1.133999  0.061516  -0.310002  -0.561979  0.032059  2.329196  0.053
O  O104  1  0.32839036  0.85563186  0.42730420  1  -1.175688  0.003807  -0.313313  -0.528809  0.001448  2.203279  0.003
O  O105  1  0.14435739  0.67159763  0.07269243  1  -1.175623  0.003805  -0.313365  -0.528916  0.001447  2.20323  0.003
O  O106  1  0.67160188  0.14436174  0.57269401  1  -1.175671  0.003806  -0.313366  -0.528903  0.001447  2.203328  0.003
O  O107  1  0.85563778  0.32839485  0.92730486  1  -1.175691  0.003806  -0.313396  -0.528919  0.001447  2.203332  0.003
O  O108  1  0.43773727  0.51724641  0.13971080  1  -1.160113  0.07103  -0.309505  -0.551455  0.036251  2.403674  0.058
O  O109  1  0.48276098  0.56226242  0.36028585  1  -1.160469  0.071022  -0.309537  -0.551484  0.036248  2.403736  0.058
O  O110  1  0.56226764  0.48275801  0.86028739  1  -1.160077  0.071028  -0.309522  -0.55154  0.03625  2.403505  0.058
O  O111  1  0.51724295  0.43773611  0.63971398  1  -1.160436  0.07103  -0.309497  -0.551524  0.036252  2.40364  0.058
O  O112  1  0.30768687  0.69230484  0.24999586  1  -1.270727  0.101543  -0.566801  -0.812411  0.05536  2.418269  0.085
O  O113  1  0.69230732  0.30769021  0.74999908  1  -1.270724  0.101541  -0.566789  -0.812411  0.05536  2.418246  0.085
