# generated using pymatgen
data_ZnH20C26(NO3)2
_symmetry_space_group_name_H-M   'P 1'
_cell_length_a   8.47672230
_cell_length_b   11.46280396
_cell_length_c   13.55882789
_cell_angle_alpha   89.99998703
_cell_angle_beta   90.00006431
_cell_angle_gamma   111.71255174
_symmetry_Int_Tables_number   1
_chemical_formula_structural   ZnH20C26(NO3)2
_chemical_formula_sum   'Zn2 H40 C52 N4 O12'
_cell_volume   1223.99820413
_cell_formula_units_Z   2
loop_
 _symmetry_equiv_pos_site_id
 _symmetry_equiv_pos_as_xyz
  1  'x, y, z'
loop_
 _atom_site_type_symbol
 _atom_site_label
 _atom_site_symmetry_multiplicity
 _atom_site_fract_x
 _atom_site_fract_y
 _atom_site_fract_z
 _atom_site_occupancy
 _atom_site_hle17_bader_spin_density
 _atom_site_hle17_ddec_charge
 _atom_site_hle17_ddec_spin_density
 _atom_site_hle17_ddec_sum_bond_order
 _atom_site_hle17_magmom
 _atom_site_hse06_10hf_bader_spin_density
 _atom_site_hse06_10hf_ddec_charge
 _atom_site_hse06_10hf_ddec_spin_density
 _atom_site_hse06_10hf_ddec_sum_bond_order
 _atom_site_hse06_10hf_magmom
 _atom_site_hse06_bader_spin_density
 _atom_site_hse06_ddec_charge
 _atom_site_hse06_ddec_spin_density
 _atom_site_hse06_ddec_sum_bond_order
 _atom_site_hse06_magmom
 _atom_site_pbe_bader_spin_density
 _atom_site_pbe_cm5_charge
 _atom_site_pbe_ddec_charge
 _atom_site_pbe_ddec_spin_density
 _atom_site_pbe_ddec_sum_bond_order
 _atom_site_pbe_magmom
Zn  Zn0  1  0.63404474  0.99998459  0.99987564  1  0  0.967246  0  1.873106  0  0  0.777261  0  2.340702  0  0  0.827414  0  2.28654  0  0  0.67918  0.742353  0  2.377701  0
Zn  Zn1  1  0.13404490  0.99998553  0.50012430  1  0  0.967269  0  1.873124  0  0  0.777281  0  2.340728  0  0  0.827429  0  2.286564  0  0  0.67919  0.742365  0  2.377726  0
H  H2  1  0.52019862  0.39291870  0.67134284  1  0  0.074146  0  0.92346  0  0  0.085767  0  0.991959  0  0  0.086321  0  0.990392  0  0  0.109641  0.08525  0  0.993144  0
H  H3  1  0.12735342  0.60702759  0.32854977  1  0  0.074283  0  0.923621  0  0  0.085804  0  0.992339  0  0  0.086372  0  0.990833  0  0  0.109759  0.085363  0  0.993506  0
H  H4  1  0.02019894  0.39291879  0.82865714  1  0  0.074162  0  0.923508  0  0  0.08579  0  0.991984  0  0  0.086344  0  0.990419  0  0  0.109648  0.085272  0  0.99317  0
H  H5  1  0.62735546  0.60702750  0.17145156  1  0  0.074283  0  0.923612  0  0  0.085801  0  0.992343  0  0  0.086372  0  0.990834  0  0  0.109752  0.08536  0  0.99351  0
H  H6  1  0.30201273  0.29635368  0.66824368  1  0  0.073086  0  0.952685  0  0  0.083281  0  1.022242  0  0  0.082789  0  1.024078  0  0  0.107202  0.083553  0  1.021071  0
H  H7  1  0.00599753  0.70375740  0.33174174  1  0  0.07301  0  0.952063  0  0  0.083484  0  1.021311  0  0  0.083018  0  1.023162  0  0  0.107095  0.083787  0  1.020155  0
H  H8  1  0.80201225  0.29635269  0.83175578  1  0  0.073119  0  0.952601  0  0  0.083303  0  1.022167  0  0  0.082814  0  1.024003  0  0  0.107198  0.083575  0  1.020995  0
H  H9  1  0.50599838  0.70375730  0.16825949  1  0  0.073022  0  0.952079  0  0  0.083477  0  1.021339  0  0  0.083012  0  1.023193  0  0  0.107099  0.083781  0  1.02018  0
H  H10  1  0.22153105  0.78134945  0.76215733  1  0  0.097324  0  0.940274  0  0  0.108125  0  1.000076  0  0  0.11131  0  0.997874  0  0  0.104292  0.10589  0  1.001499  0
H  H11  1  0.44006516  0.21852572  0.23780019  1  0  0.097132  0  0.94112  0  0  0.108296  0  1.000301  0  0  0.111504  0  0.998043  0  0  0.104337  0.105951  0  1.001979  0
H  H12  1  0.72153157  0.78134844  0.73784124  1  0  0.097307  0  0.940268  0  0  0.108102  0  1.000076  0  0  0.111288  0  0.997873  0  0  0.10428  0.105868  0  1.001501  0
H  H13  1  0.94006312  0.21852659  0.26219702  1  0  0.097134  0  0.941136  0  0  0.108289  0  1.00033  0  0  0.111495  0  0.998075  0  0  0.104331  0.105964  0  1.001981  0
H  H14  1  0.44638603  0.13040694  0.67369923  1  0  0.144232  0  0.970835  0  0  0.153121  0  1.028366  0  0  0.157246  0  1.02614  0  0  0.114553  0.150067  0  1.030289  0
H  H15  1  0.31626192  0.86959976  0.32613589  1  0  0.144426  0  0.970221  0  0  0.152975  0  1.028072  0  0  0.1572  0  1.025699  0  0  0.114893  0.149928  0  1.029939  0
H  H16  1  0.94638554  0.13040595  0.82629962  1  0  0.144236  0  0.970796  0  0  0.15312  0  1.028332  0  0  0.157245  0  1.026106  0  0  0.114537  0.15005  0  1.030278  0
H  H17  1  0.81625831  0.86959779  0.17386553  1  0  0.144477  0  0.970204  0  0  0.153003  0  1.028072  0  0  0.15723  0  1.025698  0  0  0.114901  0.149956  0  1.02994  0
H  H18  1  0.44480088  0.36684097  0.92120069  1  0  0.115132  0  0.959328  0  0  0.122795  0  1.02241  0  0  0.126005  0  1.021459  0  0  0.109539  0.12043  0  1.023317  0
H  H19  1  0.07786902  0.63311920  0.07871400  1  0  0.11544  0  0.959137  0  0  0.122764  0  1.02261  0  0  0.126029  0  1.021605  0  0  0.109542  0.120408  0  1.02349  0
H  H20  1  0.94480039  0.36684085  0.57879959  1  0  0.115156  0  0.959309  0  0  0.122804  0  1.022409  0  0  0.126014  0  1.021458  0  0  0.109544  0.120456  0  1.023299  0
H  H21  1  0.57786871  0.63311823  0.42128877  1  0  0.11548  0  0.959104  0  0  0.122809  0  1.022564  0  0  0.126075  0  1.021559  0  0  0.109551  0.120452  0  1.023446  0
H  H22  1  0.31300655  0.63714379  0.48534362  1  0  0.094981  0  0.959343  0  0  0.102028  0  1.026276  0  0  0.106264  0  1.02209  0  0  0.099362  0.098995  0  1.029282  0
H  H23  1  0.67547852  0.36299465  0.51463908  1  0  0.094825  0  0.959495  0  0  0.101921  0  1.026447  0  0  0.106165  0  1.022242  0  0  0.099384  0.098878  0  1.029421  0
H  H24  1  0.81300757  0.63714459  0.01465636  1  0  0.094984  0  0.959321  0  0  0.102035  0  1.026255  0  0  0.106273  0  1.022067  0  0  0.099366  0.099004  0  1.029258  0
H  H25  1  0.17548032  0.36299478  0.98535954  1  0  0.094815  0  0.959472  0  0  0.101901  0  1.026434  0  0  0.106143  0  1.022231  0  0  0.099384  0.098858  0  1.029405  0
H  H26  1  0.37847597  0.46887679  0.57118220  1  0  0.106106  0  0.964694  0  0  0.116718  0  1.025455  0  0  0.119997  0  1.024381  0  0  0.102603  0.114389  0  1.02632  0
H  H27  1  0.90942311  0.53127094  0.42884117  1  0  0.105729  0  0.965547  0  0  0.116716  0  1.025763  0  0  0.120093  0  1.02458  0  0  0.102558  0.11434  0  1.026677  0
H  H28  1  0.87847780  0.46887770  0.92881801  1  0  0.106115  0  0.964696  0  0  0.116727  0  1.025453  0  0  0.120006  0  1.024378  0  0  0.102611  0.114398  0  1.026317  0
H  H29  1  0.40942411  0.53127097  0.07115964  1  0  0.105749  0  0.965538  0  0  0.116756  0  1.025736  0  0  0.120134  0  1.024552  0  0  0.10256  0.114379  0  1.026651  0
H  H30  1  0.29490713  0.61603148  0.85104485  1  0  0.104266  0  0.940627  0  0  0.11657  0  0.999439  0  0  0.120105  0  0.997751  0  0  0.103066  0.114087  0  1.000755  0
H  H31  1  0.67873455  0.38400241  0.14895924  1  0  0.103965  0  0.941211  0  0  0.11647  0  0.999808  0  0  0.120013  0  0.998119  0  0  0.102959  0.113956  0  1.001133  0
H  H32  1  0.79490630  0.61603044  0.64895528  1  0  0.10427  0  0.940623  0  0  0.116574  0  0.999431  0  0  0.12011  0  0.997742  0  0  0.103064  0.114093  0  1.000749  0
H  H33  1  0.17873327  0.38400157  0.35103996  1  0  0.103973  0  0.941218  0  0  0.116463  0  0.999832  0  0  0.120005  0  0.99814  0  0  0.102963  0.11395  0  1.001158  0
H  H34  1  0.52764752  0.99312581  0.79181927  1  0  0.093674  0  0.937459  0  0  0.103052  0  0.99711  0  0  0.105587  0  0.995055  0  0  0.121787  0.101086  0  0.998739  0
H  H35  1  0.53490885  0.00675596  0.20793409  1  0  0.094017  0  0.937235  0  0  0.103353  0  0.996912  0  0  0.105917  0  0.994833  0  0  0.121882  0.101397  0  0.998569  0
H  H36  1  0.02764761  0.99312587  0.70818060  1  0  0.09368  0  0.93746  0  0  0.103051  0  0.997118  0  0  0.105587  0  0.995062  0  0  0.121783  0.101082  0  0.998746  0
H  H37  1  0.03490698  0.00675417  0.29206582  1  0  0.09401  0  0.937171  0  0  0.103364  0  0.996834  0  0  0.105929  0  0.994753  0  0  0.121883  0.101407  0  0.998493  0
H  H38  1  0.51968433  0.21790330  0.02935004  1  0  0.076656  0  0.93109  0  0  0.089544  0  0.98821  0  0  0.091333  0  0.987007  0  0  0.118955  0.088193  0  0.989147  0
H  H39  1  0.30168420  0.78195906  0.97048141  1  0  0.077249  0  0.93059  0  0  0.089982  0  0.98783  0  0  0.091785  0  0.986626  0  0  0.119037  0.088583  0  0.98882  0
H  H40  1  0.01968375  0.21790343  0.47064981  1  0  0.07666  0  0.931128  0  0  0.089546  0  0.988251  0  0  0.091334  0  0.987048  0  0  0.118964  0.088195  0  0.989189  0
H  H41  1  0.80168573  0.78196081  0.52952090  1  0  0.077259  0  0.930602  0  0  0.089957  0  0.987876  0  0  0.091757  0  0.986672  0  0  0.119033  0.088559  0  0.988868  0
C  C42  1  0.21971385  0.81457185  0.56114659  1  0  0.624193  0  3.948102  0  0  0.581021  0  4.230794  0  0  0.615269  0  4.224257  0  0  0.190441  0.557805  0  4.234398  0
C  C43  1  0.40497747  0.18545608  0.43888983  1  0  0.623709  0  3.949309  0  0  0.580619  0  4.231841  0  0  0.614889  0  4.225302  0  0  0.190045  0.5574  0  4.235528  0
C  C44  1  0.71971405  0.81457183  0.93885271  1  0  0.624169  0  3.948152  0  0  0.580983  0  4.23086  0  0  0.615233  0  4.224321  0  0  0.190441  0.557769  0  4.23446  0
C  C45  1  0.90497859  0.18545689  0.06110809  1  0  0.623709  0  3.94922  0  0  0.580605  0  4.231788  0  0  0.614873  0  4.225251  0  0  0.190039  0.557385  0  4.235474  0
C  C46  1  0.33886710  0.53195806  0.71718595  1  0  0.285599  0  3.806877  0  0  0.273846  0  4.070217  0  0  0.28712  0  4.086055  0  0  0.087034  0.26503  0  4.059289  0
C  C47  1  0.80671514  0.46814950  0.28282778  1  0  0.286023  0  3.806119  0  0  0.274561  0  4.069247  0  0  0.287869  0  4.085127  0  0  0.087108  0.265593  0  4.058346  0
C  C48  1  0.83886700  0.53195800  0.78281422  1  0  0.285599  0  3.806946  0  0  0.273896  0  4.070263  0  0  0.287169  0  4.0861  0  0  0.087045  0.265073  0  4.059343  0
C  C49  1  0.30671406  0.46814956  0.21717296  1  0  0.286071  0  3.80617  0  0  0.274595  0  4.069336  0  0  0.287901  0  4.085216  0  0  0.087148  0.265626  0  4.058431  0
C  C50  1  0.40701718  0.34849689  0.71797515  1  0  0.041222  0  3.64615  0  0  -0.020397  0  3.905435  0  0  -0.012662  0  3.909391  0  0  -0.057266  -0.025605  0  3.902576  0
C  C51  1  0.05863238  0.65151856  0.28198082  1  0  0.041377  0  3.645157  0  0  -0.020725  0  3.90567  0  0  -0.013134  0  3.909953  0  0  -0.057264  -0.025936  0  3.902697  0
C  C52  1  0.90701990  0.34849776  0.78202511  1  0  0.041112  0  3.646209  0  0  -0.020467  0  3.905504  0  0  -0.012738  0  3.909469  0  0  -0.057283  -0.02567  0  3.902638  0
C  C53  1  0.55863380  0.65151942  0.21802045  1  0  0.041338  0  3.645112  0  0  -0.020739  0  3.905644  0  0  -0.013154  0  3.90993  0  0  -0.057268  -0.025952  0  3.902671  0
C  C54  1  0.25776856  0.71326790  0.72128435  1  0  -0.035574  0  3.746093  0  0  -0.061581  0  3.999782  0  0  -0.05775  0  4.018556  0  0  -0.08099  -0.063671  0  3.986719  0
C  C55  1  0.54422711  0.28676466  0.27869977  1  0  -0.035642  0  3.747926  0  0  -0.061873  0  4.001449  0  0  -0.05803  0  4.020251  0  0  -0.081424  -0.064077  0  3.988622  0
C  C56  1  0.75776845  0.71326784  0.77871500  1  0  -0.035467  0  3.745992  0  0  -0.061465  0  3.999667  0  0  -0.057634  0  4.018443  0  0  -0.080953  -0.063556  0  3.986606  0
C  C57  1  0.04422651  0.28676566  0.22129935  1  0  -0.035713  0  3.747899  0  0  -0.061938  0  4.001426  0  0  -0.058095  0  4.020228  0  0  -0.081431  -0.064153  0  3.988597  0
C  C58  1  0.46188584  0.15272942  0.75206884  1  0  -0.161818  0  3.66251  0  0  -0.180151  0  3.906974  0  0  -0.188118  0  3.926982  0  0  -0.078828  -0.175136  0  3.893778  0
C  C59  1  0.30941123  0.84722450  0.24777144  1  0  -0.161423  0  3.662603  0  0  -0.179401  0  3.907136  0  0  -0.187433  0  3.927103  0  0  -0.079216  -0.174283  0  3.893908  0
C  C60  1  0.96188614  0.15273028  0.74793076  1  0  -0.161862  0  3.662529  0  0  -0.180184  0  3.907006  0  0  -0.188153  0  3.927013  0  0  -0.078827  -0.175161  0  3.893823  0
C  C61  1  0.80940777  0.84722255  0.25222850  1  0  -0.161409  0  3.662566  0  0  -0.179378  0  3.907118  0  0  -0.187411  0  3.927085  0  0  -0.07919  -0.174259  0  3.893889  0
C  C62  1  0.26252254  0.71887675  0.61776434  1  0  -0.092661  0  3.789133  0  0  -0.071328  0  4.020844  0  0  -0.082206  0  4.045206  0  0  -0.034384  -0.064204  0  4.004337  0
C  C63  1  0.54334756  0.28120121  0.38221093  1  0  -0.092333  0  3.789218  0  0  -0.070839  0  4.020858  0  0  -0.081757  0  4.045253  0  0  -0.034075  -0.063876  0  4.004433  0
C  C64  1  0.76252262  0.71887671  0.88223501  1  0  -0.092694  0  3.789124  0  0  -0.071346  0  4.020836  0  0  -0.08223  0  4.045202  0  0  -0.034385  -0.064228  0  4.004329  0
C  C65  1  0.04334795  0.28120219  0.11778746  1  0  -0.092294  0  3.789166  0  0  -0.070817  0  4.020837  0  0  -0.081734  0  4.045232  0  0  -0.034091  -0.063855  0  4.004416  0
C  C66  1  0.46015837  0.28442431  0.88993030  1  0  -0.162458  0  3.716182  0  0  -0.184264  0  3.968376  0  0  -0.191621  0  3.989063  0  0  -0.083926  -0.179547  0  3.954739  0
C  C67  1  0.17576868  0.71550504  0.10996378  1  0  -0.162127  0  3.71694  0  0  -0.183764  0  3.969201  0  0  -0.191159  0  3.989814  0  0  -0.084119  -0.179092  0  3.955482  0
C  C68  1  0.96015840  0.28442514  0.61007001  1  0  -0.162501  0  3.716106  0  0  -0.184282  0  3.968305  0  0  -0.191639  0  3.988991  0  0  -0.083912  -0.179582  0  3.954663  0
C  C69  1  0.67576831  0.71550406  0.39003831  1  0  -0.162136  0  3.717031  0  0  -0.183776  0  3.969266  0  0  -0.191171  0  3.989879  0  0  -0.084097  -0.179104  0  3.955548  0
C  C70  1  0.30829561  0.63089926  0.56554746  1  0  -0.048727  0  3.778624  0  0  -0.069783  0  4.023542  0  0  -0.066543  0  4.042503  0  0  -0.088421  -0.07178  0  4.010569  0
C  C71  1  0.67712589  0.36923704  0.43443894  1  0  -0.048383  0  3.776945  0  0  -0.069657  0  4.022039  0  0  -0.066401  0  4.041046  0  0  -0.088663  -0.071442  0  4.008945  0
C  C72  1  0.80829697  0.63089924  0.93445268  1  0  -0.048729  0  3.778602  0  0  -0.069803  0  4.023533  0  0  -0.066561  0  4.042492  0  0  -0.088443  -0.071798  0  4.010558  0
C  C73  1  0.17712688  0.36923706  0.06556100  1  0  -0.048333  0  3.776925  0  0  -0.069586  0  4.022036  0  0  -0.06633  0  4.041045  0  0  -0.08863  -0.071371  0  4.008941  0
C  C74  1  0.34609044  0.53731265  0.61381861  1  0  -0.224886  0  3.791041  0  0  -0.24254  0  4.043048  0  0  -0.250706  0  4.064336  0  0  -0.11662  -0.236974  0  4.028515  0
C  C75  1  0.80858879  0.46282384  0.38619660  1  0  -0.224938  0  3.790934  0  0  -0.242849  0  4.042787  0  0  -0.251089  0  4.064042  0  0  -0.116415  -0.237423  0  4.028346  0
C  C76  1  0.84609006  0.53731168  0.88618230  1  0  -0.224902  0  3.791035  0  0  -0.242559  0  4.043038  0  0  -0.250722  0  4.064323  0  0  -0.116631  -0.23699  0  4.028505  0
C  C77  1  0.30858988  0.46282387  0.11380341  1  0  -0.22503  0  3.790926  0  0  -0.242954  0  4.042781  0  0  -0.251194  0  4.064036  0  0  -0.11645  -0.237527  0  4.028339  0
C  C78  1  0.44163384  0.26065368  0.78862656  1  0  0.136977  0  3.698447  0  0  0.147668  0  3.940295  0  0  0.152853  0  3.96043  0  0  0.015608  0.144379  0  3.926693  0
C  C79  1  0.18109410  0.73929333  0.21126457  1  0  0.135327  0  3.699737  0  0  0.146534  0  3.941263  0  0  0.151767  0  3.96137  0  0  0.015456  0.143167  0  3.927687  0
C  C80  1  0.94163572  0.26065548  0.71137448  1  0  0.13703  0  3.698534  0  0  0.147694  0  3.940417  0  0  0.152882  0  3.960552  0  0  0.015588  0.144406  0  3.926809  0
C  C81  1  0.68109354  0.73929233  0.28873752  1  0  0.135297  0  3.699833  0  0  0.146499  0  3.941367  0  0  0.151732  0  3.961476  0  0  0.01543  0.143134  0  3.92779  0
C  C82  1  0.29680152  0.62130300  0.77069867  1  0  -0.185005  0  3.744541  0  0  -0.20943  0  4.010182  0  0  -0.216416  0  4.028987  0  0  -0.105046  -0.205081  0  3.997552  0
C  C83  1  0.67527033  0.37875518  0.22931427  1  0  -0.184581  0  3.744907  0  0  -0.209137  0  4.010432  0  0  -0.216127  0  4.029253  0  0  -0.104733  -0.204624  0  3.997773  0
C  C84  1  0.79680249  0.62130292  0.72930072  1  0  -0.185078  0  3.744541  0  0  -0.209508  0  4.010167  0  0  -0.216493  0  4.028973  0  0  -0.105063  -0.205156  0  3.997541  0
C  C85  1  0.17527266  0.37875713  0.27068493  1  0  -0.184607  0  3.745033  0  0  -0.209131  0  4.010544  0  0  -0.216116  0  4.029358  0  0  -0.104754  -0.204622  0  3.997896  0
C  C86  1  0.50561505  0.07616681  0.81691149  1  0  0.134165  0  3.690759  0  0  0.103191  0  3.940497  0  0  0.110217  0  3.958602  0  0  0.049419  0.098635  0  3.928334  0
C  C87  1  0.42975733  0.92369766  0.18289566  1  0  0.132903  0  3.690674  0  0  0.101719  0  3.940815  0  0  0.108716  0  3.958918  0  0  0.048802  0.097222  0  3.928562  0
C  C88  1  0.00561556  0.07616780  0.68308780  1  0  0.134157  0  3.690742  0  0  0.103181  0  3.940465  0  0  0.110207  0  3.958571  0  0  0.049421  0.098626  0  3.928288  0
C  C89  1  0.92975682  0.92369666  0.31710508  1  0  0.132833  0  3.690603  0  0  0.101645  0  3.940742  0  0  0.108641  0  3.958845  0  0  0.048747  0.097149  0  3.928487  0
C  C90  1  0.50225606  0.20215357  0.95002180  1  0  0.129018  0  3.726509  0  0  0.098471  0  3.977606  0  0  0.105422  0  3.996145  0  0  0.047527  0.093921  0  3.965011  0
C  C91  1  0.30013453  0.79770625  0.04980817  1  0  0.127963  0  3.724808  0  0  0.097609  0  3.975746  0  0  0.104532  0  3.994318  0  0  0.047635  0.093185  0  3.963088  0
C  C92  1  0.00225585  0.20215359  0.54997746  1  0  0.129013  0  3.726532  0  0  0.098462  0  3.977618  0  0  0.105414  0  3.996157  0  0  0.047511  0.093903  0  3.965028  0
C  C93  1  0.80013568  0.79770811  0.45019325  1  0  0.127917  0  3.724928  0  0  0.097603  0  3.975852  0  0  0.104531  0  3.99442  0  0  0.047627  0.093178  0  3.963196  0
N  N94  1  0.52755536  0.10104007  0.91432110  1  0  -0.337502  0  3.334897  0  0  -0.258275  0  3.612507  0  0  -0.277553  0  3.627903  0  0  -0.336579  -0.245307  0  3.602048  0
N  N95  1  0.42666903  0.89880157  0.08548385  1  0  -0.336167  0  3.333316  0  0  -0.256797  0  3.610813  0  0  -0.276047  0  3.626201  0  0  -0.336099  -0.243843  0  3.600158  0
N  N96  1  0.02755686  0.10104104  0.58567747  1  0  -0.337496  0  3.334985  0  0  -0.258242  0  3.612555  0  0  -0.277521  0  3.627951  0  0  -0.336566  -0.245254  0  3.602076  0
N  N97  1  0.92666847  0.89880248  0.41451690  1  0  -0.336125  0  3.333405  0  0  -0.25677  0  3.610899  0  0  -0.276016  0  3.626285  0  0  -0.336071  -0.243815  0  3.600245  0
O  O98  1  0.36856294  0.44199143  0.77163758  1  0  -0.285891  0  2.341862  0  0  -0.213463  0  2.576236  0  0  -0.232549  0  2.580263  0  0  -0.174505  -0.199979  0  2.572923  0
O  O99  1  0.92648373  0.55807803  0.22837178  1  0  -0.285435  0  2.342553  0  0  -0.213531  0  2.577599  0  0  -0.232704  0  2.581743  0  0  -0.174325  -0.199897  0  2.574244  0
O  O100  1  0.86856226  0.44199041  0.72836263  1  0  -0.285831  0  2.341915  0  0  -0.213478  0  2.576326  0  0  -0.232565  0  2.580355  0  0  -0.1745  -0.2  0  2.573022  0
O  O101  1  0.42648465  0.55807717  0.27162977  1  0  -0.285366  0  2.342422  0  0  -0.213487  0  2.577489  0  0  -0.232651  0  2.581627  0  0  -0.174309  -0.199848  0  2.574131  0
O  O102  1  0.16901429  0.89202215  0.60942876  1  0  -0.646194  0  2.007863  0  0  -0.578438  0  2.267682  0  0  -0.60716  0  2.254305  0  0  -0.33674  -0.55826  0  2.276128  0
O  O103  1  0.27670624  0.10797847  0.39067914  1  0  -0.645763  0  2.00863  0  0  -0.578518  0  2.268882  0  0  -0.607279  0  2.25552  0  0  -0.336435  -0.558365  0  2.277251  0
O  O104  1  0.66901439  0.89202211  0.89057049  1  0  -0.646191  0  2.007854  0  0  -0.578427  0  2.267672  0  0  -0.607151  0  2.254295  0  0  -0.336744  -0.558254  0  2.276119  0
O  O105  1  0.77670698  0.10797837  0.10931945  1  0  -0.645785  0  2.008562  0  0  -0.57853  0  2.268821  0  0  -0.60729  0  2.255461  0  0  -0.336449  -0.558378  0  2.277193  0
O  O106  1  0.23210281  0.81779824  0.46842176  1  0  -0.634119  0  1.962433  0  0  -0.584484  0  2.1925  0  0  -0.608557  0  2.183194  0  0  -0.327465  -0.567597  0  2.198294  0
O  O107  1  0.41430265  0.18218833  0.53159328  1  0  -0.633775  0  1.962898  0  0  -0.584029  0  2.192969  0  0  -0.608114  0  2.183672  0  0  -0.327157  -0.567212  0  2.198884  0
O  O108  1  0.73210505  0.81779905  0.03157813  1  0  -0.634101  0  1.962443  0  0  -0.584459  0  2.192511  0  0  -0.608532  0  2.183204  0  0  -0.327461  -0.567571  0  2.198304  0
O  O109  1  0.91430290  0.18218831  0.96840481  1  0  -0.633754  0  1.962845  0  0  -0.583998  0  2.192929  0  0  -0.608084  0  2.183632  0  0  -0.327136  -0.567178  0  2.19884  0
