# generated using pymatgen
data_NaH6C2N7O2
_symmetry_space_group_name_H-M   'P 1'
_cell_length_a   7.06937203
_cell_length_b   8.82859405
_cell_length_c   12.61460280
_cell_angle_alpha   68.70962252
_cell_angle_beta   80.22276893
_cell_angle_gamma   67.69429181
_symmetry_Int_Tables_number   1
_chemical_formula_structural   NaH6C2N7O2
_chemical_formula_sum   'Na4 H24 C8 N28 O8'
_cell_volume   678.21796782
_cell_formula_units_Z   4
loop_
 _symmetry_equiv_pos_site_id
 _symmetry_equiv_pos_as_xyz
  1  'x, y, z'
loop_
 _atom_site_type_symbol
 _atom_site_label
 _atom_site_symmetry_multiplicity
 _atom_site_fract_x
 _atom_site_fract_y
 _atom_site_fract_z
 _atom_site_occupancy
 _atom_site_hle17_bader_spin_density
 _atom_site_hle17_ddec_charge
 _atom_site_hle17_ddec_spin_density
 _atom_site_hle17_ddec_sum_bond_order
 _atom_site_hle17_magmom
 _atom_site_hse06_10hf_bader_spin_density
 _atom_site_hse06_10hf_ddec_charge
 _atom_site_hse06_10hf_ddec_spin_density
 _atom_site_hse06_10hf_ddec_sum_bond_order
 _atom_site_hse06_10hf_magmom
 _atom_site_hse06_bader_spin_density
 _atom_site_hse06_ddec_charge
 _atom_site_hse06_ddec_spin_density
 _atom_site_hse06_ddec_sum_bond_order
 _atom_site_hse06_magmom
 _atom_site_pbe_bader_spin_density
 _atom_site_pbe_cm5_charge
 _atom_site_pbe_ddec_charge
 _atom_site_pbe_ddec_spin_density
 _atom_site_pbe_ddec_sum_bond_order
 _atom_site_pbe_magmom
Na  Na0  1  0.27359819  0.30084239  0.42188465  1  0  0.849078  0  0.421778  0  0  0.76042  0  0.623937  0  0  0.774233  0  0.600474  0  0  0.681638  0.750481  0  0.640685  0
Na  Na1  1  0.72640339  0.69915466  0.57811744  1  0  0.84907  0  0.421775  0  0  0.760419  0  0.623914  0  0  0.774243  0  0.600436  0  0  0.681628  0.750482  0  0.640662  0
Na  Na2  1  0.01222849  0.26029004  0.02915941  1  0  0.816017  0  0.479185  0  0  0.725058  0  0.686164  0  0  0.739332  0  0.662533  0  0  0.695455  0.715334  0  0.702554  0
Na  Na3  1  0.98776712  0.73971481  0.97083731  1  0  0.816014  0  0.47919  0  0  0.725076  0  0.686137  0  0  0.73935  0  0.662504  0  0  0.695462  0.715355  0  0.702523  0
H  H4  1  0.43839346  0.59460046  0.40054815  1  0  0.283578  0  0.915241  0  0  0.272567  0  0.979433  0  0  0.278041  0  0.974666  0  0  0.305224  0.268556  0  0.983062  0
H  H5  1  0.56159866  0.40540565  0.59945252  1  0  0.283578  0  0.915235  0  0  0.272568  0  0.979422  0  0  0.278041  0  0.974654  0  0  0.305233  0.268557  0  0.983053  0
H  H6  1  0.19638496  0.63758372  0.45680072  1  0  0.291761  0  0.931854  0  0  0.28196  0  0.992636  0  0  0.288709  0  0.985927  0  0  0.302837  0.27723  0  0.997034  0
H  H7  1  0.80360295  0.36242242  0.54319634  1  0  0.291756  0  0.931941  0  0  0.281972  0  0.992677  0  0  0.288699  0  0.986  0  0  0.302874  0.277242  0  0.997072  0
H  H8  1  0.18759855  0.10737036  0.26627220  1  0  0.330348  0  0.927688  0  0  0.310125  0  0.999169  0  0  0.319115  0  0.990048  0  0  0.302809  0.304931  0  1.003083  0
H  H9  1  0.81239812  0.89263190  0.73372506  1  0  0.33034  0  0.927738  0  0  0.310112  0  0.999224  0  0  0.319101  0  0.990104  0  0  0.30279  0.30492  0  1.003138  0
H  H10  1  0.24874836  0.92365733  0.38955968  1  0  0.333428  0  0.94171  0  0  0.307628  0  1.018851  0  0  0.316768  0  1.010801  0  0  0.295198  0.301083  0  1.024628  0
H  H11  1  0.75125318  0.07634365  0.61043589  1  0  0.333414  0  0.941729  0  0  0.307607  0  1.018894  0  0  0.316748  0  1.010843  0  0  0.295178  0.301063  0  1.024671  0
H  H12  1  0.51973041  0.82576237  0.87338314  1  0  0.295474  0  0.932402  0  0  0.28056  0  0.996991  0  0  0.286918  0  0.991147  0  0  0.304449  0.276158  0  1.000931  0
H  H13  1  0.48026681  0.17423465  0.12662171  1  0  0.295495  0  0.93233  0  0  0.280577  0  0.996945  0  0  0.286936  0  0.991103  0  0  0.304447  0.276174  0  1.000883  0
H  H14  1  0.28264898  0.88978467  0.93694880  1  0  0.284221  0  0.923704  0  0  0.266956  0  0.998453  0  0  0.273183  0  0.992112  0  0  0.30541  0.262367  0  1.003166  0
H  H15  1  0.71734845  0.11021883  0.06305443  1  0  0.284205  0  0.92377  0  0  0.266946  0  0.998535  0  0  0.273177  0  0.992188  0  0  0.305422  0.262356  0  1.003248  0
H  H16  1  0.34229012  0.39346476  0.87641533  1  0  0.350049  0  0.887844  0  0  0.335489  0  0.944436  0  0  0.342383  0  0.938714  0  0  0.30852  0.330904  0  0.947934  0
H  H17  1  0.65771526  0.60653360  0.12358452  1  0  0.350093  0  0.887752  0  0  0.33552  0  0.944376  0  0  0.342415  0  0.938653  0  0  0.308515  0.330933  0  0.947877  0
H  H18  1  0.43421432  0.17268715  0.95531836  1  0  0.323119  0  0.932095  0  0  0.297252  0  1.015177  0  0  0.30531  0  1.008253  0  0  0.300279  0.291405  0  1.020508  0
H  H19  1  0.56578386  0.82731119  0.04468371  1  0  0.323154  0  0.932045  0  0  0.297285  0  1.015126  0  0  0.305341  0  1.008202  0  0  0.30029  0.291438  0  1.02046  0
H  H20  1  0.85266644  0.44461909  0.35859877  1  0  0.380006  0  0.950795  0  0  0.33998  0  1.031268  0  0  0.350875  0  1.015774  0  0  0.27801  0.331595  0  1.043217  0
H  H21  1  0.14734095  0.55537799  0.64139963  1  0  0.380045  0  0.950744  0  0  0.340007  0  1.031226  0  0  0.350903  0  1.015732  0  0  0.278043  0.331623  0  1.043174  0
H  H22  1  0.85510156  0.25038964  0.41479095  1  0  0.404364  0  0.909291  0  0  0.37405  0  0.973601  0  0  0.384064  0  0.958815  0  0  0.284786  0.366297  0  0.985027  0
H  H23  1  0.14490721  0.74960743  0.58520971  1  0  0.404374  0  0.909276  0  0  0.374056  0  0.973588  0  0  0.38407  0  0.958804  0  0  0.284781  0.366304  0  0.985012  0
H  H24  1  0.86904984  0.33770958  0.22270497  1  0  0.40305  0  0.877827  0  0  0.375761  0  0.953356  0  0  0.384969  0  0.942516  0  0  0.298778  0.369764  0  0.959872  0
H  H25  1  0.13095564  0.66228487  0.77729901  1  0  0.403068  0  0.877864  0  0  0.375785  0  0.953378  0  0  0.384994  0  0.942537  0  0  0.298798  0.369797  0  0.959892  0
H  H26  1  0.70266184  0.26150247  0.22748084  1  0  0.389351  0  0.927518  0  0  0.344047  0  1.018295  0  0  0.35601  0  1.000487  0  0  0.281359  0.336047  0  1.030278  0
H  H27  1  0.29733612  0.73849973  0.77252267  1  0  0.389339  0  0.927515  0  0  0.344045  0  1.018309  0  0  0.35601  0  1.000498  0  0  0.281349  0.336048  0  1.03029  0
C  C28  1  0.19542394  0.66964582  0.19849086  1  0  0.371862  0  3.86906  0  0  0.327446  0  4.163191  0  0  0.345333  0  4.175251  0  0  0.309527  0.316395  0  4.154133  0
C  C29  1  0.80457374  0.33035383  0.80150934  1  0  0.371663  0  3.869408  0  0  0.327322  0  4.163456  0  0  0.345211  0  4.175514  0  0  0.30951  0.316273  0  4.154393  0
C  C30  1  0.18190125  0.89082553  0.24632930  1  0  0.515523  0  3.864622  0  0  0.459772  0  4.157342  0  0  0.482591  0  4.16819  0  0  0.324428  0.445194  0  4.149271  0
C  C31  1  0.81810009  0.10917932  0.75366691  1  0  0.515504  0  3.864511  0  0  0.459726  0  4.157297  0  0  0.482552  0  4.168136  0  0  0.324389  0.445148  0  4.14923  0
C  C32  1  0.31162300  0.08851613  0.69401635  1  0  0.375279  0  3.869225  0  0  0.325179  0  4.175397  0  0  0.343499  0  4.187049  0  0  0.316068  0.313228  0  4.167317  0
C  C33  1  0.68838205  0.91147965  0.30598257  1  0  0.375199  0  3.869311  0  0  0.325122  0  4.175444  0  0  0.343432  0  4.187108  0  0  0.316062  0.313173  0  4.167363  0
C  C34  1  0.32827631  0.23383421  0.79968242  1  0  0.517631  0  3.833526  0  0  0.454946  0  4.133461  0  0  0.477555  0  4.144176  0  0  0.334903  0.440361  0  4.124964  0
C  C35  1  0.67172331  0.76616413  0.20031952  1  0  0.517616  0  3.833476  0  0  0.454921  0  4.133424  0  0  0.477529  0  4.144142  0  0  0.334899  0.440339  0  4.124925  0
N  N36  1  0.12670561  0.95145972  0.13833507  1  0  -0.430378  0  2.941072  0  0  -0.399272  0  3.248164  0  0  -0.414545  0  3.259562  0  0  -0.341112  -0.389938  0  3.24093  0
N  N37  1  0.87329499  0.04853995  0.86166249  1  0  -0.430379  0  2.94107  0  0  -0.399275  0  3.248188  0  0  -0.414548  0  3.259582  0  0  -0.341108  -0.389939  0  3.240956  0
N  N38  1  0.13702256  0.81046020  0.10851604  1  0  -0.386068  0  3.045555  0  0  -0.358712  0  3.343738  0  0  -0.370505  0  3.356968  0  0  -0.306434  -0.351004  0  3.334712  0
N  N39  1  0.86297613  0.18954079  0.89147898  1  0  -0.386064  0  3.045798  0  0  -0.358711  0  3.343953  0  0  -0.370505  0  3.357184  0  0  -0.30642  -0.351003  0  3.334926  0
N  N40  1  0.22985391  0.49791431  0.21469014  1  0  -0.360078  0  3.06779  0  0  -0.336935  0  3.375158  0  0  -0.348444  0  3.377935  0  0  -0.263485  -0.330588  0  3.374303  0
N  N41  1  0.77015096  0.50208535  0.78530863  1  0  -0.359874  0  3.067871  0  0  -0.336744  0  3.375213  0  0  -0.348253  0  3.377992  0  0  -0.263405  -0.330396  0  3.374353  0
N  N42  1  0.16871757  0.47773623  0.13163910  1  0  0.078718  0  3.202828  0  0  0.093916  0  3.513138  0  0  0.110386  0  3.514813  0  0  -0.129729  0.083193  0  3.512199  0
N  N43  1  0.83127637  0.52226213  0.86836016  1  0  0.078569  0  3.203033  0  0  0.09376  0  3.513367  0  0  0.110226  0  3.515045  0  0  -0.129855  0.083042  0  3.512423  0
N  N44  1  0.22508499  0.71399217  0.28735238  1  0  -0.099507  0  3.510486  0  0  -0.015709  0  3.73512  0  0  -0.031681  0  3.755478  0  0  -0.160172  -0.004872  0  3.720067  0
N  N45  1  0.77491154  0.28601398  0.71264314  1  0  -0.099274  0  3.510378  0  0  -0.015543  0  3.735062  0  0  -0.031516  0  3.755412  0  0  -0.160186  -0.004706  0  3.720009  0
N  N46  1  0.29423081  0.59700782  0.39393588  1  0  -0.527711  0  2.967786  0  0  -0.522721  0  3.207354  0  0  -0.529058  0  3.202231  0  0  -0.545421  -0.517916  0  3.210324  0
N  N47  1  0.70576347  0.40299312  0.60606430  1  0  -0.527768  0  2.967975  0  0  -0.52276  0  3.207532  0  0  -0.529078  0  3.202432  0  0  -0.545433  -0.517953  0  3.210502  0
N  N48  1  0.19250295  0.98268608  0.30840039  1  0  -0.693976  0  3.103992  0  0  -0.660627  0  3.354807  0  0  -0.682298  0  3.349056  0  0  -0.587555  -0.645797  0  3.356118  0
N  N49  1  0.80750100  0.01731227  0.69159958  1  0  -0.693974  0  3.104064  0  0  -0.660593  0  3.35489  0  0  -0.682265  0  3.349135  0  0  -0.587476  -0.645759  0  3.356201  0
N  N50  1  0.28084780  0.34420220  0.69486720  1  0  -0.37595  0  3.019516  0  0  -0.32665  0  3.297629  0  0  -0.343888  0  3.31091  0  0  -0.249061  -0.314688  0  3.288472  0
N  N51  1  0.71915378  0.65579485  0.30513489  1  0  -0.375838  0  3.019406  0  0  -0.326566  0  3.297551  0  0  -0.343803  0  3.310833  0  0  -0.249049  -0.314604  0  3.288394  0
N  N52  1  0.26842460  0.25189776  0.62857470  1  0  -0.379618  0  2.995363  0  0  -0.364879  0  3.299762  0  0  -0.376231  0  3.312845  0  0  -0.312171  -0.357859  0  3.290998  0
N  N53  1  0.73157598  0.74810191  0.37142366  1  0  -0.379646  0  2.99543  0  0  -0.3649  0  3.299827  0  0  -0.376249  0  3.312911  0  0  -0.312184  -0.357882  0  3.291064  0
N  N54  1  0.32948032  0.94463940  0.66789876  1  0  -0.351572  0  3.08558  0  0  -0.317342  0  3.3845  0  0  -0.331197  0  3.388092  0  0  -0.206938  -0.309653  0  3.38348  0
N  N55  1  0.67052266  0.05535763  0.33210480  1  0  -0.351447  0  3.08579  0  0  -0.317218  0  3.384662  0  0  -0.331063  0  3.388237  0  0  -0.206898  -0.309528  0  3.383636  0
N  N56  1  0.30918298  0.98067686  0.56044270  1  0  0.099657  0  3.163443  0  0  0.103709  0  3.475415  0  0  0.12123  0  3.478459  0  0  -0.103086  0.091389  0  3.474165  0
N  N57  1  0.69081902  0.01932280  0.43955632  1  0  0.099541  0  3.163778  0  0  0.103604  0  3.475767  0  0  0.121123  0  3.478812  0  0  -0.10314  0.091283  0  3.474518  0
N  N58  1  0.34941466  0.07143808  0.80289321  1  0  -0.088635  0  3.519948  0  0  -0.009205  0  3.747412  0  0  -0.025164  0  3.768436  0  0  -0.14851  0.001433  0  3.732506  0
N  N59  1  0.65058626  0.92856416  0.19710606  1  0  -0.088701  0  3.520165  0  0  -0.009221  0  3.747593  0  0  -0.025173  0  3.768619  0  0  -0.148545  0.00141  0  3.732693  0
N  N60  1  0.40747219  0.92380960  0.89804583  1  0  -0.501547  0  2.978527  0  0  -0.484062  0  3.206903  0  0  -0.492022  0  3.204609  0  0  -0.487414  -0.478099  0  3.208906  0
N  N61  1  0.59252593  0.07618872  0.10195862  1  0  -0.501476  0  2.978616  0  0  -0.484096  0  3.207102  0  0  -0.492061  0  3.204809  0  0  -0.487408  -0.478137  0  3.209118  0
N  N62  1  0.34014611  0.27119896  0.89298570  1  0  -0.721252  0  3.094498  0  0  -0.685677  0  3.348963  0  0  -0.705518  0  3.343635  0  0  -0.61777  -0.671384  0  3.351854  0
N  N63  1  0.65985258  0.72879808  0.10701744  1  0  -0.721296  0  3.094377  0  0  -0.685733  0  3.348874  0  0  -0.70557  0  3.343549  0  0  -0.617776  -0.671441  0  3.351768  0
O  O64  1  0.20321503  0.31706768  0.14360256  1  0  -0.53993  0  1.977084  0  0  -0.484034  0  2.229952  0  0  -0.502888  0  2.220889  0  0  -0.261883  -0.471371  0  2.234968  0
O  O65  1  0.79678802  0.68292938  0.85639781  1  0  -0.539909  0  1.977106  0  0  -0.484018  0  2.229978  0  0  -0.502871  0  2.220916  0  0  -0.261868  -0.471353  0  2.234993  0
O  O66  1  0.32635696  0.84723809  0.53382630  1  0  -0.509989  0  1.993412  0  0  -0.453817  0  2.239961  0  0  -0.474003  0  2.233819  0  0  -0.218432  -0.439771  0  2.244765  0
O  O67  1  0.67364554  0.15276026  0.46617459  1  0  -0.509893  0  1.993474  0  0  -0.453756  0  2.240049  0  0  -0.473942  0  2.233906  0  0  -0.218383  -0.439708  0  2.244849  0
O  O68  1  0.94311284  0.32156579  0.39791390  1  0  -0.88586  0  1.846949  0  0  -0.828796  0  2.034613  0  0  -0.848091  0  2.002535  0  0  -0.661347  -0.813402  0  2.057564  0
O  O69  1  0.05689453  0.67843128  0.60208530  1  0  -0.885902  0  1.846906  0  0  -0.828837  0  2.034619  0  0  -0.848136  0  2.002536  0  0  -0.661373  -0.813441  0  2.057575  0
O  O70  1  0.76455336  0.34797380  0.17593891  1  0  -0.840545  0  1.825406  0  0  -0.788422  0  2.012016  0  0  -0.805021  0  1.982483  0  0  -0.629154  -0.777049  0  2.03129  0
O  O71  1  0.23544313  0.65202839  0.82406631  1  0  -0.840495  0  1.825485  0  0  -0.78842  0  2.012023  0  0  -0.805019  0  1.982488  0  0  -0.629165  -0.777062  0  2.031258  0
