# generated using pymatgen
data_Zn2H4C12S2O7
_symmetry_space_group_name_H-M   'P 1'
_cell_length_a   19.66510873
_cell_length_b   19.67032232
_cell_length_c   33.37187509
_cell_angle_alpha   79.16287363
_cell_angle_beta   79.18080339
_cell_angle_gamma   63.94056858
_symmetry_Int_Tables_number   1
_chemical_formula_structural   Zn2H4C12S2O7
_chemical_formula_sum   'Zn16 H32 C96 S16 O56'
_cell_volume   11308.61305521
_cell_formula_units_Z   8
loop_
 _symmetry_equiv_pos_site_id
 _symmetry_equiv_pos_as_xyz
  1  'x, y, z'
loop_
 _atom_site_type_symbol
 _atom_site_label
 _atom_site_symmetry_multiplicity
 _atom_site_fract_x
 _atom_site_fract_y
 _atom_site_fract_z
 _atom_site_occupancy
 _atom_site_pbe_bader_charge
 _atom_site_pbe_bader_spin_density
 _atom_site_pbe_cm5_charge
 _atom_site_pbe_ddec_charge
 _atom_site_pbe_ddec_spin_density
 _atom_site_pbe_ddec_sum_bond_order
 _atom_site_pbe_magmom
Zn  Zn0  1  0.05594903  0.40019432  0.47841862  1  1.320966  0  0.676142  0.972352  0  2.364873  0
Zn  Zn1  1  0.98314423  0.48252469  0.56069551  1  1.312317  0  0.675588  0.966188  0  2.372427  0
Zn  Zn2  1  0.05981717  0.55935506  0.48228651  1  1.315088  0  0.671565  0.960055  0  2.381128  0
Zn  Zn3  1  0.90165617  0.55611268  0.47919205  1  1.311695  0  0.671708  0.960204  0  2.3816  0
Zn  Zn4  1  0.69442690  0.34983959  0.27209492  1  1.316989  0  0.673335  0.969107  0  2.364383  0
Zn  Zn5  1  0.68991605  0.18991493  0.26706581  1  1.320144  0  0.674073  0.967608  0  2.364927  0
Zn  Zn6  1  0.76766520  0.26786300  0.19083341  1  1.30215  0  0.670496  0.958942  0  2.376521  0
Zn  Zn7  1  0.84935680  0.19528206  0.27230210  1  1.313934  0  0.672712  0.964213  0  2.367875  0
Zn  Zn8  1  0.26678172  0.76627336  0.68918922  1  1.307788  0  0.67268  0.962796  0  2.375502  0
Zn  Zn9  1  0.34876756  0.69413545  0.77159202  1  1.318255  0  0.674357  0.968179  0  2.365937  0
Zn  Zn10  1  0.19386470  0.84728776  0.77087896  1  1.311592  0  0.67059  0.961601  0  2.375667  0
Zn  Zn11  1  0.18932143  0.68881637  0.76639007  1  1.315089  0  0.673137  0.967938  0  2.363476  0
Zn  Zn12  1  0.56039828  0.06044653  0.98338378  1  1.314616  0  0.671429  0.964553  0  2.368298  0
Zn  Zn13  1  0.40113554  0.05499806  0.97811067  1  1.313916  0  0.671259  0.961333  0  2.373099  0
Zn  Zn14  1  0.55449256  0.90142253  0.97792650  1  1.319694  0  0.671927  0.969209  0  2.359396  0
Zn  Zn15  1  0.48373087  0.98389766  0.06032276  1  1.316486  0  0.671169  0.965671  0  2.362984  0
H  H16  1  0.95390066  0.24863173  0.35129061  1  0.095867  0  0.10615  0.115831  0  1.0015  0
H  H17  1  0.74674464  0.45558532  0.35111557  1  0.14259  0  0.116977  0.141794  0  0.97923  0
H  H18  1  0.00096093  0.29768676  0.39940982  1  0.105426  0  0.109646  0.114837  0  0.988394  0
H  H19  1  0.09745738  0.59735095  0.70004834  1  0.108087  0  0.106904  0.117374  0  0.999897  0
H  H20  1  0.20109156  0.70108114  0.59665401  1  0.095349  0  0.116087  0.140535  0  0.980783  0
H  H21  1  0.04984841  0.54981865  0.65142122  1  0.10548  0  0.109066  0.113788  0  0.989171  0
H  H22  1  0.28621876  0.51069669  0.40923767  1  0.131403  0  0.121932  0.14833  0  0.967614  0
H  H23  1  0.46395815  0.23917741  0.34067109  1  0.128326  0  0.121755  0.148256  0  0.968562  0
H  H24  1  0.77156257  0.54701559  0.64853554  1  0.106327  0  0.121585  0.147927  0  0.968034  0
H  H25  1  0.47834176  0.70298454  0.60151993  1  0.108968  0  0.122184  0.148936  0  0.967882  0
H  H26  1  0.04716136  0.27130520  0.64858092  1  0.11228  0  0.121823  0.148099  0  0.968067  0
H  H27  1  0.20313597  0.97813824  0.60160942  1  0.107178  0  0.122081  0.148572  0  0.967932  0
H  H28  1  0.80069708  0.77926210  0.40220252  1  0.136261  0  0.122127  0.148128  0  0.967179  0
H  H29  1  0.94938044  0.97090627  0.34779118  1  0.134296  0  0.121536  0.147426  0  0.969247  0
H  H30  1  0.54989500  0.04990995  0.15262277  1  0.089917  0  0.106033  0.116187  0  1.000665  0
H  H31  1  0.65332679  0.15343246  0.04900950  1  0.092982  0  0.116296  0.141198  0  0.980128  0
H  H32  1  0.59852880  0.09839719  0.20021393  1  0.101175  0  0.108793  0.113829  0  0.990017  0
H  H33  1  0.70284276  0.47869403  0.10144776  1  0.113062  0  0.121922  0.148454  0  0.967743  0
H  H34  1  0.54696992  0.77196745  0.14832918  1  0.110625  0  0.12167  0.148221  0  0.968378  0
H  H35  1  0.08697468  0.10845968  0.21010102  1  0.126222  0  0.120747  0.14684  0  0.970206  0
H  H36  1  0.16344842  0.14117493  0.04000554  1  0.130483  0  0.122012  0.148608  0  0.96788  0
H  H37  1  0.50140096  0.79597005  0.89876671  1  0.096361  0  0.106948  0.117458  0  0.999938  0
H  H38  1  0.29453939  0.00318577  0.89877654  1  0.101594  0  0.115669  0.140306  0  0.980904  0
H  H39  1  0.45233583  0.74900016  0.85063820  1  0.106051  0  0.10914  0.11411  0  0.988951  0
H  H40  1  0.44895384  0.47096360  0.84774627  1  0.135061  0  0.121232  0.147028  0  0.968774  0
H  H41  1  0.30083734  0.27885494  0.90231857  1  0.134344  0  0.121624  0.147981  0  0.968894  0
H  H42  1  0.96378163  0.73901817  0.84074214  1  0.1253  0  0.121033  0.146801  0  0.969244  0
H  H43  1  0.78596600  0.01055455  0.90935805  1  0.13274  0  0.122173  0.149004  0  0.968109  0
H  H44  1  0.81007152  0.52755989  0.41886610  1  0.649398  0  0.307313  0.356733  0  0.963212  0
H  H45  1  0.13545187  0.63562829  0.52676181  1  0.650195  0  0.307644  0.356597  0  0.965082  0
H  H46  1  0.72330770  0.22314218  0.11457966  1  0.651625  0  0.307943  0.358215  0  0.963033  0
H  H47  1  0.22237917  0.93987898  0.83111367  1  0.648459  0  0.307587  0.357539  0  0.96167  0
C  C48  1  0.06140044  0.31555746  0.56179900  1  1.565466  0  0.218267  0.612143  0  4.218123  0
C  C49  1  0.06939217  0.56955594  0.56958617  1  1.510818  0  0.227171  0.618325  0  4.150378  0
C  C50  1  0.18439902  0.43886837  0.43850107  1  1.565884  0  0.217895  0.612605  0  4.214608  0
C  C51  1  0.93803893  0.68436607  0.43854370  1  1.536894  0  0.218072  0.611688  0  4.213453  0
C  C52  1  0.93062772  0.43028418  0.43048902  1  1.499311  0  0.227804  0.618894  0  4.149629  0
C  C53  1  0.81582586  0.56134711  0.56177011  1  1.562245  0  0.217592  0.611011  0  4.218492  0
C  C54  1  0.56571216  0.31115486  0.31138936  1  1.57001  0  0.218964  0.612633  0  4.215145  0
C  C55  1  0.68049941  0.18036035  0.18068126  1  1.491594  0  0.226884  0.617273  0  4.149375  0
C  C56  1  0.68864700  0.43440102  0.18836156  1  1.568606  0  0.216756  0.609256  0  4.219387  0
C  C57  1  0.93461496  0.18846578  0.18895882  1  1.512605  0  0.217247  0.611862  0  4.21427  0
C  C58  1  0.81889727  0.32063626  0.31975545  1  1.565823  0  0.231219  0.607538  0  4.153005  0
C  C59  1  0.81205264  0.06596799  0.31148812  1  1.546545  0  0.218447  0.610218  0  4.216936  0
C  C60  1  0.43396215  0.68892797  0.68831070  1  1.561804  0  0.218306  0.61076  0  4.219762  0
C  C61  1  0.31970990  0.81928417  0.81940781  1  1.508844  0  0.226839  0.616571  0  4.152355  0
C  C62  1  0.18896584  0.93369146  0.68834744  1  1.551571  0  0.217858  0.609846  0  4.218874  0
C  C63  1  0.06552101  0.81082408  0.81127194  1  1.555954  0  0.217521  0.611413  0  4.217521  0
C  C64  1  0.18069305  0.68070549  0.67978271  1  1.538833  0  0.232583  0.609531  0  4.149058  0
C  C65  1  0.31159479  0.56555289  0.81132994  1  1.534671  0  0.217921  0.611812  0  4.21439  0
C  C66  1  0.43822071  0.18406234  0.93862066  1  1.543192  0  0.217975  0.610518  0  4.215424  0
C  C67  1  0.42946456  0.93115809  0.93029353  1  1.567072  0  0.231085  0.607227  0  4.150893  0
C  C68  1  0.68388447  0.93891306  0.93855336  1  1.544277  0  0.218138  0.611249  0  4.214973  0
C  C69  1  0.56114005  0.81642965  0.06145944  1  1.568615  0  0.217595  0.609008  0  4.217253  0
C  C70  1  0.57006756  0.07017207  0.06927526  1  1.549333  0  0.230511  0.605824  0  4.152411  0
C  C71  1  0.31591448  0.06168873  0.06128847  1  1.536353  0  0.218134  0.611172  0  4.217882  0
C  C72  1  0.90097144  0.40342121  0.40220475  1  -0.002854  0  -0.036533  -0.193856  0  3.980706  0
C  C73  1  0.84758013  0.34935582  0.34845415  1  -0.036203  0  -0.010506  -0.003464  0  3.990457  0
C  C74  1  0.82823945  0.44868909  0.38842785  1  0.505828  0  0.097336  0.321918  0  4.049571  0
C  C75  1  0.91968172  0.30417588  0.36195001  1  0.024718  0  -0.09843  -0.134751  0  4.006232  0
C  C76  1  0.80246272  0.42070495  0.36153880  1  -0.033736  0  -0.090844  -0.210621  0  3.906302  0
C  C77  1  0.94546572  0.33142928  0.38847134  1  -0.033143  0  -0.080641  -0.061109  0  4.005815  0
C  C78  1  0.09839693  0.59848514  0.59716138  1  0.037781  0  -0.036339  -0.193576  0  3.982323  0
C  C79  1  0.15198451  0.65200231  0.65108981  1  -0.070397  0  -0.011059  -0.004757  0  3.990513  0
C  C80  1  0.14168499  0.64170920  0.58140648  1  0.52681  0  0.097337  0.321021  0  4.051718  0
C  C81  1  0.10920361  0.60919359  0.66693979  1  -0.015774  0  -0.097334  -0.133465  0  4.003408  0
C  C82  1  0.16801172  0.66801814  0.60885663  1  0.035422  0  -0.09196  -0.210877  0  3.908128  0
C  C83  1  0.08304763  0.58307012  0.64003716  1  -0.065769  0  -0.081582  -0.062097  0  4.005205  0
C  C84  1  0.30363812  0.45384817  0.40119169  1  0.037465  0  -0.087239  -0.133255  0  3.967478  0
C  C85  1  0.44643040  0.29600722  0.34876951  1  0.035354  0  -0.088522  -0.136977  0  3.970399  0
C  C86  1  0.25911928  0.41353042  0.41364741  1  -0.182212  0  -0.026103  -0.122449  0  3.994596  0
C  C87  1  0.49089494  0.33636092  0.33633975  1  -0.183782  0  -0.023921  -0.118042  0  3.987934  0
C  C88  1  0.37820379  0.33869746  0.37238466  1  -0.144782  0  -0.020522  -0.005653  0  4.067209  0
C  C89  1  0.37183225  0.41115855  0.37758148  1  -0.131804  0  -0.020832  -0.00853  0  4.068482  0
C  C90  1  0.72630802  0.57607506  0.62884854  1  -0.002105  0  -0.087282  -0.133532  0  3.970242  0
C  C91  1  0.52358079  0.67397547  0.62121244  1  -0.001206  0  -0.088004  -0.136432  0  3.969208  0
C  C92  1  0.74091191  0.58634114  0.58643364  1  -0.085418  0  -0.026466  -0.122354  0  3.994468  0
C  C93  1  0.50901729  0.66376712  0.66361041  1  -0.083672  0  -0.024412  -0.117731  0  3.98831  0
C  C94  1  0.60267306  0.64209632  0.60848637  1  -0.171684  0  -0.020552  -0.005939  0  4.067366  0
C  C95  1  0.64724198  0.60795625  0.64156645  1  -0.165694  0  -0.021858  -0.009806  0  4.071333  0
C  C96  1  0.07623694  0.22605696  0.62890826  1  -0.003555  0  -0.087679  -0.134052  0  3.968987  0
C  C97  1  0.17414100  0.02334862  0.62130241  1  0.034061  0  -0.088164  -0.13589  0  3.969475  0
C  C98  1  0.08649291  0.24063762  0.58649323  1  -0.08764  0  -0.026083  -0.12137  0  3.992909  0
C  C99  1  0.16390220  0.00876660  0.66370045  1  -0.08254  0  -0.024337  -0.117755  0  3.987669  0
C  C100  1  0.14228373  0.10242673  0.60857887  1  -0.211277  0  -0.021036  -0.007788  0  4.069284  0
C  C101  1  0.10813400  0.14698541  0.64164476  1  -0.167151  0  -0.021232  -0.009062  0  4.069584  0
C  C102  1  0.84485134  0.80002162  0.39753050  1  0.09726  0  -0.086735  -0.131869  0  3.965717  0
C  C103  1  0.90531933  0.95003296  0.35244747  1  0.087827  0  -0.088132  -0.135359  0  3.970013  0
C  C104  1  0.91359773  0.75904072  0.41363020  1  -0.20484  0  -0.02604  -0.122159  0  3.992241  0
C  C105  1  0.83659781  0.99102444  0.33638169  1  -0.194215  0  -0.023463  -0.116483  0  3.985847  0
C  C106  1  0.90847398  0.88044640  0.37469137  1  -0.175813  0  -0.020496  -0.006429  0  4.066017  0
C  C107  1  0.84176778  0.86950960  0.37522576  1  -0.178046  0  -0.021269  -0.009197  0  4.068223  0
C  C108  1  0.65284667  0.15277706  0.15169048  1  0.010442  0  -0.03661  -0.193298  0  3.979491  0
C  C109  1  0.59882374  0.09887366  0.09801172  1  -0.014467  0  -0.010446  -0.003935  0  3.988853  0
C  C110  1  0.66853805  0.16855253  0.10843169  1  0.531293  0  0.097935  0.322647  0  4.04979  0
C  C111  1  0.58301841  0.08301961  0.14082870  1  -0.022941  0  -0.097982  -0.133652  0  4.005182  0
C  C112  1  0.64107782  0.14113610  0.08206981  1  0.061079  0  -0.091101  -0.210667  0  3.90651  0
C  C113  1  0.60994377  0.10987729  0.16699810  1  -0.061104  0  -0.081657  -0.063122  0  4.008189  0
C  C114  1  0.67376542  0.52388742  0.12115563  1  -0.002604  0  -0.087314  -0.133655  0  3.968529  0
C  C115  1  0.57601079  0.72672341  0.12865054  1  0.026666  0  -0.088791  -0.137287  0  3.969265  0
C  C116  1  0.66348383  0.50929984  0.16357569  1  -0.086547  0  -0.02586  -0.121082  0  3.991624  0
C  C117  1  0.58628202  0.74133072  0.08624715  1  -0.08089  0  -0.024023  -0.115776  0  3.98156  0
C  C118  1  0.60778598  0.64761004  0.14140898  1  -0.208216  0  -0.02125  -0.007777  0  4.067909  0
C  C119  1  0.64194138  0.60297994  0.10838078  1  -0.15899  0  -0.021632  -0.008694  0  4.069008  0
C  C120  1  0.08006111  0.12467665  0.17763843  1  0.017869  0  -0.08873  -0.135719  0  3.973671  0
C  C121  1  0.17028627  0.12491915  0.07248233  1  0.025446  0  -0.088241  -0.1358  0  3.967204  0
C  C122  1  0.00911522  0.16345852  0.16376103  1  -0.111037  0  -0.025997  -0.121683  0  3.990617  0
C  C123  1  0.24117172  0.08630380  0.08642254  1  -0.123961  0  -0.024048  -0.117489  0  3.984623  0
C  C124  1  0.11152562  0.13892984  0.10563830  1  -0.168099  0  -0.02071  -0.006483  0  4.06422  0
C  C125  1  0.13874683  0.11056279  0.14448169  1  -0.215415  0  -0.022182  -0.009093  0  4.071072  0
C  C126  1  0.34665062  0.84896403  0.84770418  1  -0.008572  0  -0.036627  -0.193621  0  3.97849  0
C  C127  1  0.40077458  0.90241445  0.90154458  1  -0.037827  0  -0.01042  -0.002732  0  3.986502  0
C  C128  1  0.30144509  0.92170706  0.86145867  1  0.510781  0  0.097077  0.321533  0  4.049318  0
C  C129  1  0.44588009  0.83028633  0.88807465  1  0.022655  0  -0.098328  -0.135586  0  4.004466  0
C  C130  1  0.32944507  0.94748424  0.88836507  1  0.011378  0  -0.091999  -0.212047  0  3.907233  0
C  C131  1  0.41862101  0.80452403  0.86151966  1  -0.032231  0  -0.08105  -0.061033  0  4.005779  0
C  C132  1  0.40491429  0.45004222  0.85244080  1  0.102104  0  -0.08803  -0.133398  0  3.967777  0
C  C133  1  0.34485980  0.29978088  0.89762450  1  0.079668  0  -0.088283  -0.136237  0  3.969938  0
C  C134  1  0.33615105  0.49088368  0.83635685  1  -0.214092  0  -0.026247  -0.121473  0  3.99143  0
C  C135  1  0.41361927  0.25892524  0.91366814  1  -0.191027  0  -0.024397  -0.117493  0  3.98645  0
C  C136  1  0.34160236  0.36935232  0.87532535  1  -0.178124  0  -0.021397  -0.006415  0  4.067211  0
C  C137  1  0.40821386  0.38045725  0.87474763  1  -0.179541  0  -0.021761  -0.009903  0  4.068237  0
C  C138  1  0.94631658  0.79584567  0.84882712  1  0.034654  0  -0.088166  -0.133897  0  3.971164  0
C  C139  1  0.80345638  0.95371640  0.90126931  1  0.035737  0  -0.088362  -0.136924  0  3.96851  0
C  C140  1  0.99091142  0.83608371  0.83635173  1  -0.161189  0  -0.026204  -0.121787  0  3.991648  0
C  C141  1  0.75886022  0.91348676  0.91365912  1  -0.17602  0  -0.023582  -0.116605  0  3.98472  0
C  C142  1  0.87174051  0.91098183  0.87767490  1  -0.148059  0  -0.020175  -0.00526  0  4.065263  0
C  C143  1  0.87809902  0.83855225  0.87244701  1  -0.132737  0  -0.022278  -0.010137  0  4.070698  0
S  S144  1  0.29969156  0.32389180  0.39683106  1  0.270135  0  0.083601  0.122159  0  2.729129  0
S  S145  1  0.45035517  0.42595486  0.35316581  1  0.277123  0  0.086912  0.126529  0  2.728467  0
S  S146  1  0.65900483  0.63451971  0.56185141  1  0.267818  0  0.084598  0.123936  0  2.728807  0
S  S147  1  0.59086173  0.61556706  0.68820265  1  0.264366  0  0.084672  0.123675  0  2.729403  0
S  S148  1  0.13471554  0.15875826  0.56193903  1  0.264861  0  0.084234  0.123361  0  2.729663  0
S  S149  1  0.11570688  0.09059244  0.68828417  1  0.27328  0  0.086149  0.125975  0  2.72746  0
S  S150  1  0.97462408  0.80452426  0.40178660  1  0.272015  0  0.083839  0.12292  0  2.728221  0
S  S151  1  0.77562375  0.94550984  0.34813789  1  0.265646  0  0.084701  0.123536  0  2.728192  0
S  S152  1  0.61526064  0.59129000  0.18807269  1  0.262945  0  0.0831  0.122027  0  2.728592  0
S  S153  1  0.63440386  0.65938514  0.06172513  1  0.261153  0  0.083462  0.12175  0  2.727687  0
S  S154  1  0.01335419  0.18289034  0.11048728  1  0.265261  0  0.083689  0.123014  0  2.725271  0
S  S155  1  0.23691603  0.06676538  0.13966771  1  0.292458  0  0.081932  0.120164  0  2.73122  0
S  S156  1  0.27533974  0.44516578  0.84823043  1  0.277067  0  0.081116  0.119143  0  2.731437  0
S  S157  1  0.47448474  0.30455204  0.90182284  1  0.267512  0  0.083738  0.122397  0  2.728863  0
S  S158  1  0.95035018  0.92568862  0.85325864  1  0.259495  0  0.083809  0.122671  0  2.726954  0
S  S159  1  0.79944388  0.82386984  0.89683170  1  0.268532  0  0.082987  0.121289  0  2.729923  0
O  O160  1  0.00030225  0.49905609  0.50035324  1  -1.224844  0  -0.571448  -1.027344  0  2.535237  0
O  O161  1  0.07762941  0.31553361  0.52278148  1  -1.176811  0  -0.320056  -0.548897  0  2.33862  0
O  O162  1  0.03104183  0.53120524  0.58535601  1  -1.160882  0  -0.309721  -0.534774  0  2.34125  0
O  O163  1  0.15700110  0.50544751  0.44980590  1  -1.17346  0  -0.319003  -0.541899  0  2.316672  0
O  O164  1  0.02577475  0.37382104  0.58135293  1  -1.171826  0  -0.318102  -0.54152  0  2.317354  0
O  O165  1  0.15329294  0.39192367  0.44661888  1  -1.18398  0  -0.320315  -0.549823  0  2.336283  0
O  O166  1  0.08517918  0.58543729  0.53035900  1  -1.185004  0  -0.311482  -0.559829  0  2.370832  0
O  O167  1  0.00462950  0.65674152  0.45006652  1  -1.17445  0  -0.322176  -0.551051  0  2.336982  0
O  O168  1  0.88725096  0.49700099  0.44220728  1  -1.174401  0  -0.312309  -0.56128  0  2.372972  0
O  O169  1  0.89106351  0.65343502  0.44657528  1  -1.156366  0  -0.318323  -0.540777  0  2.313802  0
O  O170  1  0.99602512  0.38750682  0.44179034  1  -1.170592  0  -0.309308  -0.533742  0  2.3391  0
O  O171  1  0.87419025  0.52580207  0.58124379  1  -1.172915  0  -0.316791  -0.540219  0  2.316723  0
O  O172  1  0.81575973  0.57766699  0.52271984  1  -1.177422  0  -0.32238  -0.550731  0  2.340724  0
O  O173  1  0.75011513  0.25032281  0.25074225  1  -1.222124  0  -0.570544  -1.027816  0  2.527378  0
O  O174  1  0.59637602  0.35842987  0.30331360  1  -1.181183  0  -0.319028  -0.54708  0  2.334481  0
O  O175  1  0.66476103  0.16462664  0.21904900  1  -1.176618  0  -0.309849  -0.534445  0  2.335339  0
O  O176  1  0.72438430  0.37597441  0.16888513  1  -1.173545  0  -0.318974  -0.540596  0  2.314689  0
O  O177  1  0.59315938  0.24465484  0.30010027  1  -1.172509  0  -0.316861  -0.539953  0  2.313156  0
O  O178  1  0.67254459  0.43438968  0.22736589  1  -1.180736  0  -0.319279  -0.547758  0  2.336938  0
O  O179  1  0.71976593  0.21957081  0.16488671  1  -1.15985  0  -0.311683  -0.560619  0  2.368008  0
O  O180  1  0.87601882  0.22410020  0.16944152  1  -1.165885  0  -0.322427  -0.550603  0  2.335295  0
O  O181  1  0.86262855  0.25482643  0.30877302  1  -1.173912  0  -0.31336  -0.545584  0  2.339678  0
O  O182  1  0.93470607  0.17269230  0.22789139  1  -1.138526  0  -0.316865  -0.541149  0  2.313731  0
O  O183  1  0.75321134  0.36407829  0.30859790  1  -1.172993  0  -0.312514  -0.542379  0  2.339508  0
O  O184  1  0.74552065  0.09330500  0.30000714  1  -1.171598  0  -0.320286  -0.548445  0  2.335599  0
O  O185  1  0.85903775  0.09677632  0.30363451  1  -1.16096  0  -0.316011  -0.538155  0  2.312649  0
O  O186  1  0.25018662  0.74887536  0.74951766  1  -1.219339  0  -0.570726  -1.028467  0  2.529493  0
O  O187  1  0.37586755  0.72461280  0.66867636  1  -1.165649  0  -0.316076  -0.538167  0  2.31614  0
O  O188  1  0.36247900  0.75394572  0.80804520  1  -1.173816  0  -0.309476  -0.534158  0  2.33795  0
O  O189  1  0.17271935  0.93364345  0.72737255  1  -1.179144  0  -0.321393  -0.548255  0  2.336244  0
O  O190  1  0.43400453  0.67264321  0.72730819  1  -1.17851  0  -0.319903  -0.548143  0  2.336498  0
O  O191  1  0.22449114  0.87556103  0.66876777  1  -1.160544  0  -0.31595  -0.53856  0  2.315526  0
O  O192  1  0.25289004  0.86254966  0.80775579  1  -1.177731  0  -0.311529  -0.55962  0  2.368213  0
O  O193  1  0.09654645  0.85793610  0.80327477  1  -1.183009  0  -0.322477  -0.550277  0  2.336775  0
O  O194  1  0.16432818  0.66443109  0.71818318  1  -1.153046  0  -0.312595  -0.544462  0  2.337805  0
O  O195  1  0.09285247  0.74461747  0.79963306  1  -1.169677  0  -0.31696  -0.540918  0  2.313813  0
O  O196  1  0.21915537  0.71909598  0.66354663  1  -1.165782  0  -0.314374  -0.545381  0  2.340798  0
O  O197  1  0.35864072  0.59638625  0.80336544  1  -1.151246  0  -0.317608  -0.540695  0  2.3131  0
O  O198  1  0.24511853  0.59287664  0.79974907  1  -1.176435  0  -0.320713  -0.549896  0  2.335945  0
O  O199  1  0.49992899  0.00016632  0.99995921  1  -1.226474  0  -0.570244  -1.02934  0  2.522361  0
O  O200  1  0.50487454  0.15658984  0.94992185  1  -1.174239  0  -0.3198  -0.547409  0  2.33367  0
O  O201  1  0.38600091  0.99685330  0.94145448  1  -1.17199  0  -0.313613  -0.545118  0  2.338815  0
O  O202  1  0.65286471  0.89191697  0.94649719  1  -1.157599  0  -0.319768  -0.548363  0  2.331228  0
O  O203  1  0.39104507  0.15347328  0.94668989  1  -1.155103  0  -0.316725  -0.538844  0  2.312533  0
O  O204  1  0.65670121  0.00529730  0.94990289  1  -1.173625  0  -0.316379  -0.538097  0  2.31245  0
O  O205  1  0.49525673  0.88754524  0.94133854  1  -1.175357  0  -0.312358  -0.543517  0  2.334551  0
O  O206  1  0.57691197  0.81627647  0.02245723  1  -1.18423  0  -0.319489  -0.546973  0  2.332195  0
O  O207  1  0.53162424  0.03176943  0.08559600  1  -1.16861  0  -0.312754  -0.543679  0  2.335763  0
O  O208  1  0.52603315  0.87465018  0.08102596  1  -1.17693  0  -0.3164  -0.538454  0  2.312154  0
O  O209  1  0.58622167  0.08629480  0.03083706  1  -1.175142  0  -0.312513  -0.543166  0  2.337389  0
O  O210  1  0.31560985  0.07786395  0.02240978  1  -1.14374  0  -0.315968  -0.537723  0  2.315004  0
O  O211  1  0.37436067  0.02630335  0.08085284  1  -1.177438  0  -0.320549  -0.5494  0  2.332828  0
O  O212  1  0.78203298  0.51811425  0.40001694  1  -1.145937  0  -0.35575  -0.442954  0  2.240608  0
O  O213  1  0.15902038  0.65899532  0.54087992  1  -1.148373  0  -0.356778  -0.443184  0  2.242526  0
O  O214  1  0.70905337  0.20910611  0.09113118  1  -1.157544  0  -0.35753  -0.44547  0  2.242013  0
O  O215  1  0.23200994  0.96796094  0.84985162  1  -1.15379  0  -0.355824  -0.443336  0  2.241632  0
