# generated using pymatgen
data_Mn3H26(C12O11)2
_symmetry_space_group_name_H-M   'P 1'
_cell_length_a   4.66860677
_cell_length_b   12.47773005
_cell_length_c   14.37673836
_cell_angle_alpha   63.52639999
_cell_angle_beta   83.25250812
_cell_angle_gamma   79.85253121
_symmetry_Int_Tables_number   1
_chemical_formula_structural   Mn3H26(C12O11)2
_chemical_formula_sum   'Mn3 H26 C24 O22'
_cell_volume   737.22864954
_cell_formula_units_Z   1
loop_
 _symmetry_equiv_pos_site_id
 _symmetry_equiv_pos_as_xyz
  1  'x, y, z'
loop_
 _atom_site_type_symbol
 _atom_site_label
 _atom_site_symmetry_multiplicity
 _atom_site_fract_x
 _atom_site_fract_y
 _atom_site_fract_z
 _atom_site_occupancy
 _atom_site_hle17_ddec_charge
 _atom_site_hle17_ddec_spin_density
 _atom_site_hle17_ddec_sum_bond_order
 _atom_site_hle17_magmom
 _atom_site_hse06_10hf_ddec_charge
 _atom_site_hse06_10hf_ddec_spin_density
 _atom_site_hse06_10hf_ddec_sum_bond_order
 _atom_site_hse06_10hf_magmom
 _atom_site_hse06_ddec_charge
 _atom_site_hse06_ddec_spin_density
 _atom_site_hse06_ddec_sum_bond_order
 _atom_site_hse06_magmom
 _atom_site_pbe_cm5_charge
 _atom_site_pbe_ddec_charge
 _atom_site_pbe_ddec_spin_density
 _atom_site_pbe_ddec_sum_bond_order
 _atom_site_pbe_magmom
Mn  Mn0  1  0.99999153  0.00000196  0.49999975  1  1.271299  4.801817  1.630481  4.693  1.115932  4.732242  2.111721  4.561  1.172391  4.769454  2.041243  4.617  0.593587  1.071565  4.695501  2.163266  4.508
Mn  Mn1  1  0.32344005  0.61903709  0.89745791  1  1.295971  4.800895  1.628561  4.693  1.14069  4.730478  2.116165  4.559  1.197674  4.770101  2.04362  4.617  0.621339  1.095306  4.689754  2.169718  4.502
Mn  Mn2  1  0.67656621  0.38096228  0.10254722  1  1.296018  4.800963  1.628655  4.693  1.140626  4.730549  2.116282  4.559  1.197607  4.770176  2.043735  4.617  0.621298  1.095254  4.689819  2.169819  4.502
H  H3  1  0.40814720  0.78465793  0.01678101  1  0.130983  4.9e-05  0.903111  0.001  0.141238  0.000553  0.959538  0.001  0.143849  0.000238  0.957258  0.001  0.128503  0.139193  0.000927  0.961442  0.002
H  H4  1  0.59186014  0.21534513  0.98321782  1  0.130954  7.3e-05  0.903044  0.001  0.14122  0.000553  0.959503  0.001  0.143831  0.000238  0.957227  0.001  0.128492  0.139178  0.000927  0.961403  0.002
H  H5  1  0.45816924  0.66326753  0.14111625  1  0.097347  -6.2e-05  0.957117  0.0  0.104013  0.000151  1.02741  0.001  0.104658  -2.6e-05  1.028906  0.0  0.110089  0.103458  0.000361  1.026552  0.001
H  H6  1  0.54182880  0.33673730  0.85888362  1  0.097323  -3.1e-05  0.957062  0.0  0.104047  0.000152  1.027314  0.001  0.104695  -2.6e-05  1.028809  0.0  0.110098  0.103496  0.000361  1.026452  0.001
H  H7  1  0.81303048  0.56595463  0.22568760  1  0.114325  -6e-05  1.001026  0.0  0.124479  8.5e-05  1.066445  0.0  0.12775  5e-06  1.064716  0.0  0.102722  0.122109  0.000178  1.06792  0.0
H  H8  1  0.18697132  0.43404570  0.77431245  1  0.114323  -5.9e-05  1.000966  0.0  0.124482  8.5e-05  1.06639  0.0  0.127752  6e-06  1.064661  0.0  0.102715  0.122115  0.000178  1.067858  0.0
H  H9  1  0.79863574  0.40252477  0.35795593  1  0.103542  -0.000111  0.923762  0.0  0.110351  3.7e-05  0.991973  0.0  0.112943  -5.7e-05  0.989421  0.0  0.113603  0.108433  0.00015  0.99392  0.0
H  H10  1  0.20136379  0.59747020  0.64204204  1  0.10357  -9.7e-05  0.92373  0.0  0.110391  3.7e-05  0.991938  0.0  0.112977  -5.7e-05  0.989403  0.0  0.113619  0.108474  0.000151  0.993881  0.0
H  H11  1  0.08407408  0.28719580  0.42504927  1  0.123407  -0.000403  0.94829  0.0  0.132504  -4.2e-05  1.009688  0.001  0.135237  -0.000246  1.008185  0.0  0.122259  0.130431  0.00019  1.010962  0.001
H  H12  1  0.91592880  0.71280188  0.57494826  1  0.123359  -0.000396  0.948362  0.0  0.132484  -4.2e-05  1.009724  0.001  0.135216  -0.000246  1.008228  0.0  0.122263  0.130412  0.00019  1.011  0.001
H  H13  1  0.38902573  0.61047098  0.41430219  1  0.134913  1.7e-05  0.951927  0.0  0.146099  3.9e-05  1.011416  0.0  0.15017  3.2e-05  1.009079  0.0  0.10777  0.14319  4.8e-05  1.013234  0.0
H  H14  1  0.61097266  0.38952661  0.58570039  1  0.134934  1.5e-05  0.951929  0.0  0.146116  3.9e-05  1.011415  0.0  0.150187  3.2e-05  1.009078  0.0  0.10779  0.143212  4.8e-05  1.013235  0.0
H  H15  1  0.99179703  0.92359086  0.15224782  1  0.145931  -3.8e-05  0.91448  0.0  0.158985  7e-06  0.967027  0.0  0.164211  -5e-06  0.963186  0.0  0.114331  0.15523  2.4e-05  0.97002  0.0
H  H16  1  0.00820754  0.07640766  0.84775351  1  0.145942  -2.4e-05  0.914517  0.0  0.159  7e-06  0.967056  0.0  0.164225  -5e-06  0.963217  0.0  0.114339  0.155237  2.4e-05  0.970052  0.0
H  H17  1  0.69702779  0.77652578  0.80633635  1  0.42151  -0.000909  0.876704  0.0  0.390876  -0.000375  0.944499  0.001  0.401565  -0.000583  0.928889  0.001  0.302763  0.383272  -0.000164  0.955579  0.001
H  H18  1  0.30297646  0.22347364  0.19366465  1  0.421557  -0.000908  0.876659  0.0  0.390918  -0.000376  0.944444  0.001  0.401607  -0.000583  0.928835  0.001  0.302774  0.383313  -0.000165  0.955526  0.001
H  H19  1  0.43726053  0.88207332  0.78469810  1  0.444098  0.00086  0.806258  0.002  0.425385  0.001967  0.858614  0.003  0.433998  0.001431  0.849043  0.003  0.327063  0.419005  0.002495  0.86579  0.003
H  H20  1  0.56273985  0.11792525  0.21529987  1  0.444108  0.000858  0.80629  0.002  0.425399  0.001967  0.858633  0.003  0.434012  0.001431  0.849063  0.003  0.327102  0.419023  0.002495  0.865809  0.003
H  H21  1  0.81850527  0.21445144  0.32700673  1  0.420008  -0.000154  0.887702  0.001  0.387669  0.000687  0.954523  0.002  0.398825  0.00034  0.938387  0.002  0.29486  0.379726  0.001018  0.965975  0.003
H  H22  1  0.18147256  0.78554978  0.67299241  1  0.419948  -0.000153  0.887784  0.001  0.387578  0.000687  0.954646  0.002  0.398732  0.000339  0.938514  0.002  0.294819  0.379635  0.001018  0.966097  0.003
H  H23  1  0.58653679  0.11656269  0.37820610  1  0.409058  -0.000446  0.906874  0.001  0.375069  0.000331  0.977445  0.001  0.386657  4.7e-05  0.96066  0.001  0.293246  0.366851  0.000601  0.989304  0.002
H  H24  1  0.41344613  0.88343679  0.62178934  1  0.409079  -0.000444  0.906823  0.001  0.375114  0.000331  0.977358  0.001  0.386699  4.6e-05  0.960578  0.001  0.293326  0.366898  0.000601  0.989212  0.002
H  H25  1  0.68997971  0.75072415  0.38554058  1  0.088395  -0.000107  0.963207  0.0  0.093564  2.1e-05  1.034861  0.0  0.093933  -2.8e-05  1.036411  0.0  0.106022  0.093266  7.8e-05  1.03389  0.0
H  H26  1  0.31002399  0.24927712  0.61445766  1  0.088375  -0.000112  0.963239  0.0  0.093551  2.1e-05  1.034909  0.0  0.093923  -2.8e-05  1.036449  0.0  0.10602  0.093249  7.8e-05  1.033938  0.0
H  H27  1  0.36592826  0.75572102  0.46441172  1  0.096908  1.6e-05  0.926675  0.0  0.105956  0.000343  0.995147  0.001  0.107598  0.000151  0.99346  0.0  0.114644  0.104697  0.00056  0.996547  0.001
H  H28  1  0.63407665  0.24427661  0.53558923  1  0.096863  2.3e-05  0.926707  0.0  0.105966  0.000343  0.995134  0.001  0.10761  0.000151  0.993444  0.0  0.11465  0.104701  0.00056  0.996536  0.001
C  C29  1  0.77484617  0.65590868  0.02143275  1  0.71635  0.017254  3.781418  0.017  0.658467  0.028072  4.085856  0.025  0.694897  0.020981  4.077049  0.019  0.238637  0.632004  0.035776  4.091593  0.031
C  C30  1  0.22516356  0.34409345  0.97856844  1  0.716619  0.017261  3.781098  0.017  0.658583  0.028072  4.085801  0.025  0.695017  0.020981  4.076989  0.019  0.238603  0.632124  0.035777  4.091516  0.031
C  C31  1  0.57408435  0.72601751  0.07271223  1  -0.094381  0.000636  3.644007  0.001  -0.150842  0.001236  3.905411  0.001  -0.149409  0.000511  3.90762  0.001  -0.06656  -0.151645  0.002009  3.904197  0.002
C  C32  1  0.42591649  0.27398553  0.92728752  1  -0.094395  0.000529  3.643865  0.001  -0.150946  0.001237  3.90554  0.001  -0.149538  0.000508  3.907743  0.001  -0.066615  -0.151745  0.002009  3.904314  0.002
C  C33  1  0.15955016  0.37030509  0.26075518  1  0.699038  0.007719  3.787439  0.008  0.640636  0.014142  4.094212  0.013  0.675258  0.010543  4.086781  0.011  0.231115  0.616233  0.017973  4.098814  0.016
C  C34  1  0.84045281  0.62969794  0.73924521  1  0.699  0.007721  3.787593  0.008  0.640548  0.014139  4.094462  0.013  0.675174  0.010541  4.087031  0.011  0.231136  0.61615  0.017969  4.09905  0.016
C  C35  1  0.92393465  0.62460550  0.24197782  1  -0.374945  -1.8e-05  3.787245  0.0  -0.40336  9.8e-05  4.043226  0.0  -0.414741  -2.9e-05  4.062563  0.0  -0.145553  -0.395838  0.000277  4.030419  0.0
C  C36  1  0.07606537  0.37539395  0.75802123  1  -0.374999  3.5e-05  3.787308  0.0  -0.403427  9.6e-05  4.043293  0.0  -0.414809  -3e-05  4.062633  0.0  -0.145535  -0.395911  0.000277  4.030487  0.0
C  C37  1  0.88437815  0.74987348  0.18008848  1  0.324794  6e-06  3.833295  0.0  0.315326  0.000178  4.099791  0.0  0.330829  0.0001  4.113154  0.0  0.083298  0.304945  0.000256  4.090547  0.0
C  C38  1  0.11562747  0.25012873  0.81990725  1  0.324944  -4.5e-05  3.833375  0.0  0.3155  0.000181  4.099833  0.0  0.330988  9.9e-05  4.113197  0.0  0.083368  0.305117  0.000256  4.090593  0.0
C  C39  1  0.10836082  0.57717320  0.32492173  1  0.317537  -5.1e-05  3.844022  0.0  0.309746  0.000102  4.105028  0.0  0.325038  2.9e-05  4.117892  0.0  0.075959  0.299368  0.000179  4.096224  0.0
C  C40  1  0.89163915  0.42282623  0.67507871  1  0.317614  -0.000147  3.84384  0.0  0.309859  0.000105  4.104822  0.0  0.325149  3e-05  4.117682  0.0  0.075985  0.299488  0.000179  4.096019  0.0
C  C41  1  0.03728857  0.37823633  0.36098847  1  -0.097176  0.00082  3.632519  0.001  -0.150623  0.001124  3.891967  0.001  -0.149117  0.000653  3.892822  0.001  -0.070323  -0.151603  0.00164  3.891677  0.001
C  C42  1  0.96270559  0.62176129  0.63901216  1  -0.097273  0.000772  3.632585  0.001  -0.150707  0.001126  3.892108  0.001  -0.149215  0.000653  3.892988  0.001  -0.070386  -0.151695  0.001641  3.891817  0.001
C  C43  1  0.24566290  0.65169183  0.34946271  1  -0.351556  8e-05  3.74458  0.0  -0.384828  8.9e-05  4.008857  0.0  -0.39487  5.3e-05  4.024494  0.0  -0.138723  -0.378255  0.000159  3.998546  0.0
C  C44  1  0.75433554  0.34830578  0.65053847  1  -0.351605  0.000134  3.744565  0.0  -0.384869  8.7e-05  4.008827  0.0  -0.394915  5.3e-05  4.02447  0.0  -0.138749  -0.378299  0.000159  3.998504  0.0
C  C45  1  0.19866432  0.77658302  0.28699092  1  0.321167  9.3e-05  3.83106  0.0  0.310013  0.000225  4.100742  0.0  0.325563  0.00015  4.11395  0.0  0.083125  0.299588  0.000305  4.091639  0.0
C  C46  1  0.80134032  0.22341554  0.71300831  1  0.321134  6e-05  3.831073  0.0  0.309964  0.00023  4.10074  0.0  0.325513  0.000148  4.113948  0.0  0.083081  0.299552  0.000305  4.091641  0.0
C  C47  1  0.02080075  0.82663652  0.20152819  1  -0.311204  0.000167  3.689478  0.0  -0.35261  0.000142  3.962163  0.0  -0.361026  8.5e-05  3.974164  0.0  -0.126434  -0.347205  0.00024  3.954303  0.0
C  C48  1  0.97920842  0.17336110  0.79847402  1  -0.311293  0.000187  3.689557  0.0  -0.352696  0.000138  3.962211  0.0  -0.361115  8.7e-05  3.974217  0.0  -0.126473  -0.347276  0.00024  3.954343  0.0
C  C49  1  0.57456110  0.91111501  0.40974468  1  0.708211  0.009269  3.799554  0.009  0.651339  0.016322  4.101939  0.014  0.686702  0.012269  4.092295  0.011  0.230868  0.626498  0.020578  4.108075  0.018
C  C50  1  0.42543122  0.08888805  0.59025257  1  0.708259  0.009242  3.799604  0.009  0.651274  0.016323  4.102186  0.014  0.686632  0.012268  4.092542  0.011  0.230815  0.626421  0.020578  4.108329  0.018
C  C51  1  0.49198466  0.80888972  0.39350572  1  -0.077504  0.000503  3.642434  0.001  -0.133994  0.000921  3.902604  0.001  -0.131194  0.000496  3.904114  0.001  -0.068333  -0.135926  0.001398  3.901827  0.001
C  C52  1  0.50801598  0.19110793  0.60649399  1  -0.077384  0.000515  3.642466  0.001  -0.133945  0.000922  3.902734  0.001  -0.131145  0.000497  3.904249  0.001  -0.068286  -0.135848  0.001399  3.901945  0.001
O  O53  1  0.39242466  0.41152539  0.21820951  1  -0.62273  0.030346  2.058126  0.02  -0.55951  0.036163  2.330481  0.022  -0.589754  0.032115  2.318356  0.018  -0.291925  -0.537259  0.040263  2.338328  0.026
O  O54  1  0.60758567  0.58847492  0.78179304  1  -0.622702  0.030349  2.058207  0.02  -0.559486  0.03616  2.330604  0.022  -0.58973  0.032111  2.318481  0.018  -0.291963  -0.537242  0.040261  2.338453  0.026
O  O55  1  0.01834512  0.31351172  0.22818264  1  -0.707219  0.023386  2.055229  0.01  -0.627878  0.032812  2.302888  0.016  -0.657479  0.029281  2.286683  0.014  -0.304181  -0.606219  0.036212  2.313758  0.018
O  O56  1  0.98166037  0.68649043  0.77181660  1  -0.707111  0.023386  2.055212  0.01  -0.627743  0.032808  2.302868  0.016  -0.657342  0.029278  2.286667  0.014  -0.304143  -0.606095  0.036209  2.313752  0.018
O  O57  1  0.02548689  0.68297105  0.98765130  1  -0.609751  0.038228  2.05882  0.027  -0.544961  0.045577  2.325265  0.031  -0.576106  0.039418  2.311951  0.025  -0.285404  -0.522066  0.051882  2.334124  0.037
O  O58  1  0.97451632  0.31703104  0.01235151  1  -0.610095  0.038245  2.058887  0.027  -0.545  0.045575  2.325174  0.031  -0.576137  0.039416  2.311848  0.025  -0.285356  -0.522104  0.051881  2.334031  0.037
O  O59  1  0.49779338  0.79776424  0.83177263  1  -0.831264  0.02514  1.874571  0.015  -0.772026  0.034569  2.074893  0.022  -0.79409  0.030704  2.0441  0.019  -0.558263  -0.755501  0.03823  2.096759  0.025
O  O60  1  0.50221118  0.20223429  0.16822870  1  -0.831299  0.02514  1.874566  0.015  -0.772048  0.034567  2.074878  0.022  -0.794111  0.030701  2.044086  0.019  -0.558298  -0.755516  0.038227  2.096746  0.025
O  O61  1  0.66747760  0.57268987  0.01129402  1  -0.737393  0.057648  2.114058  0.031  -0.661009  0.074521  2.422596  0.04  -0.694604  0.066383  2.400876  0.034  -0.316825  -0.634623  0.08247  2.436419  0.047
O  O62  1  0.33253331  0.42730861  0.98871059  1  -0.73721  0.05763  2.113625  0.031  -0.661006  0.074521  2.422494  0.04  -0.694604  0.066384  2.400767  0.034  -0.316798  -0.634692  0.082474  2.436473  0.047
O  O63  1  0.17008419  0.45500929  0.38664495  1  -0.251823  4.1e-05  2.304832  0.0  -0.185399  0.000308  2.535689  0.0  -0.201078  0.000175  2.535836  0.0  -0.183576  -0.174178  0.000473  2.535123  0.001
O  O64  1  0.82990245  0.54499099  0.61335771  1  -0.251781  4.7e-05  2.30475  0.0  -0.185421  0.000306  2.535668  0.0  -0.201091  0.000176  2.535812  0.0  -0.1836  -0.174207  0.000473  2.535109  0.001
O  O65  1  0.71313411  0.80337397  0.09561407  1  -0.243618  0.000163  2.302624  0.0  -0.17981  0.00047  2.529662  0.001  -0.195212  0.000256  2.529327  0.0  -0.178338  -0.168887  0.000757  2.529494  0.001
O  O66  1  0.28686889  0.19662907  0.90438561  1  -0.243614  0.000172  2.302523  0.0  -0.179832  0.000469  2.529652  0.001  -0.195196  0.000257  2.529294  0.0  -0.178328  -0.168913  0.000757  2.529489  0.001
O  O67  1  0.32084444  0.85748905  0.30438742  1  -0.259122  -0.000168  2.334539  0.0  -0.193988  2.5e-05  2.569516  0.001  -0.210409  -0.000158  2.569992  0.0  -0.180904  -0.182371  0.000259  2.568836  0.001
O  O68  1  0.67916018  0.14250949  0.69561251  1  -0.259168  -0.000173  2.334572  0.0  -0.193975  2.1e-05  2.56954  0.001  -0.210397  -0.000158  2.570017  0.0  -0.180892  -0.1824  0.000259  2.568876  0.001
O  O69  1  0.39933032  0.01073268  0.38256893  1  -0.684046  0.021024  2.016344  0.01  -0.617313  0.029838  2.265441  0.015  -0.644423  0.026275  2.248661  0.013  -0.308384  -0.597578  0.033266  2.276781  0.018
O  O70  1  0.60066479  0.98926859  0.61742890  1  -0.684051  0.02103  2.016269  0.01  -0.617296  0.029841  2.265424  0.015  -0.644382  0.026276  2.248615  0.013  -0.308372  -0.597547  0.033271  2.27675  0.018
O  O71  1  0.81208681  0.88922667  0.45367957  1  -0.639678  0.034531  2.060539  0.023  -0.568955  0.041424  2.322918  0.026  -0.600789  0.036708  2.311226  0.022  -0.298768  -0.54565  0.046089  2.330387  0.03
O  O72  1  0.18791440  0.11077549  0.54631912  1  -0.639746  0.034537  2.060643  0.023  -0.568949  0.041422  2.323037  0.026  -0.600797  0.036707  2.311376  0.022  -0.298776  -0.545643  0.046086  2.330509  0.03
O  O73  1  0.73312443  0.15598055  0.39318400  1  -0.855787  0.032737  1.935859  0.02  -0.79325  0.041203  2.156134  0.025  -0.819232  0.036838  2.12098  0.021  -0.576483  -0.773733  0.045302  2.180558  0.028
O  O74  1  0.26685282  0.84402250  0.60681308  1  -0.855795  0.032739  1.935923  0.02  -0.793257  0.04121  2.156294  0.025  -0.819239  0.036845  2.121143  0.021  -0.576549  -0.773745  0.045311  2.180711  0.028
