# generated using pymatgen
data_CuH14C20(NO)4
_symmetry_space_group_name_H-M   'P 1'
_cell_length_a   7.23736355
_cell_length_b   10.60499380
_cell_length_c   12.12791224
_cell_angle_alpha   90.00068913
_cell_angle_beta   97.47559758
_cell_angle_gamma   89.99986186
_symmetry_Int_Tables_number   1
_chemical_formula_structural   CuH14C20(NO)4
_chemical_formula_sum   'Cu2 H28 C40 N8 O8'
_cell_volume   922.93205670
_cell_formula_units_Z   2
loop_
 _symmetry_equiv_pos_site_id
 _symmetry_equiv_pos_as_xyz
  1  'x, y, z'
loop_
 _atom_site_type_symbol
 _atom_site_label
 _atom_site_symmetry_multiplicity
 _atom_site_fract_x
 _atom_site_fract_y
 _atom_site_fract_z
 _atom_site_occupancy
 _atom_site_hle17_ddec_charge
 _atom_site_hle17_ddec_spin_density
 _atom_site_hle17_ddec_sum_bond_order
 _atom_site_hle17_magmom
 _atom_site_hse06_10hf_ddec_charge
 _atom_site_hse06_10hf_ddec_spin_density
 _atom_site_hse06_10hf_ddec_sum_bond_order
 _atom_site_hse06_10hf_magmom
 _atom_site_hse06_ddec_charge
 _atom_site_hse06_ddec_spin_density
 _atom_site_hse06_ddec_sum_bond_order
 _atom_site_hse06_magmom
 _atom_site_pbe_cm5_charge
 _atom_site_pbe_ddec_charge
 _atom_site_pbe_ddec_spin_density
 _atom_site_pbe_ddec_sum_bond_order
 _atom_site_pbe_magmom
Cu  Cu0  1  0.49999789  0.49999853  0.49999730  1  0.808867  0.697439  1.830755  0.491  0.785223  0.795917  2.2228  0.614  0.880209  0.874989  2.149457  0.7  0.750187  0.725972  0.736049  2.275662  0.556
Cu  Cu1  1  0.49999868  0.00000068  0.99999642  1  0.808833  -0.697443  1.831025  -0.491  0.785287  -0.795917  2.222881  -0.614  0.880173  -0.875002  2.149766  -0.7  0.750173  0.725997  -0.73605  2.275797  -0.556
H  H2  1  0.16838245  0.82968555  0.99781195  1  0.310527  0.000334  0.850963  0.0  0.296077  9.8e-05  0.903016  0.0  0.303405  8.9e-05  0.897557  0.0  0.348486  0.290816  9.2e-05  0.907074  0.0
H  H3  1  0.83159930  0.32967001  0.50219544  1  0.310439  -0.000335  0.851077  0.0  0.295978  -9.8e-05  0.903092  0.0  0.303301  -8.9e-05  0.897649  0.0  0.348522  0.290715  -9.2e-05  0.907148  0.0
H  H4  1  0.83161906  0.17030962  0.00217988  1  0.310511  0.000334  0.851035  0.0  0.296063  9.8e-05  0.903082  0.0  0.303381  8.9e-05  0.897631  0.0  0.348493  0.290801  9.2e-05  0.907143  0.0
H  H5  1  0.16838489  0.67032328  0.49780714  1  0.310545  -0.000335  0.850843  0.0  0.296084  -9.8e-05  0.902885  0.0  0.303411  -8.9e-05  0.897431  0.0  0.348564  0.290817  -9.2e-05  0.906942  0.0
H  H6  1  0.62051712  0.86397325  0.23242419  1  0.111094  -9.6e-05  0.957147  0.0  0.121901  -0.00013  1.016249  0.0  0.12452  -9.8e-05  1.012746  0.0  0.128711  0.119904  -0.000153  1.018823  0.0
H  H7  1  0.37950363  0.36396586  0.26756071  1  0.111027  9.9e-05  0.957225  0.0  0.121861  0.00013  1.016313  0.0  0.124484  9.8e-05  1.012796  0.0  0.128688  0.119866  0.000153  1.018886  0.0
H  H8  1  0.37948435  0.13603512  0.76756846  1  0.111085  -9.6e-05  0.95717  0.0  0.121912  -0.00013  1.016264  0.0  0.124536  -9.8e-05  1.012747  0.0  0.128738  0.119913  -0.000153  1.018837  0.0
H  H9  1  0.62050062  0.63603403  0.73243221  1  0.111072  9.6e-05  0.957211  0.0  0.121888  0.00013  1.016313  0.0  0.12451  9.8e-05  1.012798  0.0  0.128711  0.119893  0.000153  1.018885  0.0
H  H10  1  0.86385215  0.78997100  0.07665056  1  0.097681  4.5e-05  0.94148  0.0  0.107082  8.1e-05  1.004006  0.0  0.109912  7.8e-05  1.002287  0.0  0.103134  0.104847  7.6e-05  1.005605  0.0
H  H11  1  0.13615487  0.28995200  0.42335865  1  0.097825  -4.5e-05  0.941438  0.0  0.107232  -8.1e-05  1.003924  0.0  0.110072  -7.8e-05  1.002209  0.0  0.103222  0.104999  -7.6e-05  1.005525  0.0
H  H12  1  0.13615732  0.21003172  0.92335028  1  0.097736  4.5e-05  0.94145  0.0  0.107178  8.1e-05  1.003913  0.0  0.110017  7.9e-05  1.002197  0.0  0.10317  0.104942  7.6e-05  1.005516  0.0
H  H13  1  0.86383164  0.71004506  0.57665404  1  0.09777  -4.4e-05  0.94144  0.0  0.107185  -8.2e-05  1.003938  0.0  0.110019  -7.8e-05  1.00222  0.0  0.103219  0.104954  -7.6e-05  1.00554  0.0
H  H14  1  0.59124499  0.65035003  0.04786367  1  0.085718  -1e-06  0.975511  0.0  0.094035  1.4e-05  1.040303  0.0  0.096151  1.2e-05  1.040688  0.0  0.09625  0.092521  1.6e-05  1.040134  0.0
H  H15  1  0.40875568  0.15033000  0.45213355  1  0.085721  -2e-06  0.975623  0.0  0.094004  -1.4e-05  1.040478  0.0  0.096117  -1.2e-05  1.040857  0.0  0.096216  0.09249  -1.6e-05  1.040307  0.0
H  H16  1  0.40875875  0.34965646  0.95213992  1  0.085688  -1e-06  0.975555  0.0  0.093982  1.4e-05  1.04039  0.0  0.096091  1.2e-05  1.040777  0.0  0.096214  0.092471  1.6e-05  1.040215  0.0
H  H17  1  0.59123373  0.84967272  0.54787694  1  0.085686  -2e-06  0.975631  0.0  0.094034  -1.4e-05  1.040406  0.0  0.096151  -1.2e-05  1.040796  0.0  0.096232  0.092523  -1.6e-05  1.040232  0.0
H  H18  1  0.62167471  0.42149775  0.09362224  1  0.084252  -1.2e-05  0.967046  0.0  0.095904  3e-06  1.029255  0.0  0.098304  1e-06  1.028399  0.0  0.096963  0.094179  7e-06  1.029938  0.0
H  H19  1  0.37832577  0.92147680  0.40637621  1  0.084263  1.4e-05  0.967213  0.0  0.09591  -3e-06  1.029424  0.0  0.098306  -1e-06  1.028576  0.0  0.096949  0.094186  -7e-06  1.030102  0.0
H  H20  1  0.37832473  0.57850968  0.90638342  1  0.084365  -1.2e-05  0.96711  0.0  0.095996  3e-06  1.029331  0.0  0.098397  1e-06  1.028476  0.0  0.096981  0.094273  7e-06  1.030014  0.0
H  H21  1  0.62167944  0.07852687  0.59362587  1  0.084237  1.5e-05  0.967276  0.0  0.095923  -3e-06  1.029445  0.0  0.098288  -1e-06  1.028633  0.0  0.09695  0.094196  -7e-06  1.030125  0.0
H  H22  1  0.93667024  0.33160537  0.15950928  1  0.08615  -3.7e-05  0.951527  0.0  0.097333  -2.9e-05  1.011446  0.0  0.10016  -2e-05  1.010643  0.0  0.097441  0.0953  -4.2e-05  1.012155  0.0
H  H23  1  0.06331871  0.83158784  0.34049702  1  0.086289  3.4e-05  0.951716  0.0  0.097514  2.9e-05  1.011541  0.0  0.100338  2e-05  1.01075  0.0  0.097498  0.095484  4.2e-05  1.012247  0.0
H  H24  1  0.06332514  0.66839735  0.84049352  1  0.086107  -3.7e-05  0.951554  0.0  0.097273  -2.9e-05  1.011494  0.0  0.100099  -2e-05  1.010694  0.0  0.097399  0.095241  -4.2e-05  1.012198  0.0
H  H25  1  0.93668801  0.16841111  0.65950273  1  0.086302  3.3e-05  0.951726  0.0  0.097514  2.9e-05  1.011562  0.0  0.100338  2e-05  1.01077  0.0  0.097485  0.095481  4.2e-05  1.012269  0.0
H  H26  1  0.21255473  0.47136954  0.18141236  1  0.090411  6.1e-05  0.974773  0.0  0.102522  9.2e-05  1.033795  0.0  0.105249  6.2e-05  1.031848  0.0  0.100384  0.100526  0.000119  1.035318  0.0
H  H27  1  0.78744073  0.97135424  0.31860265  1  0.090468  -5.8e-05  0.974551  0.0  0.102537  -9.2e-05  1.033644  0.0  0.10526  -6.2e-05  1.031706  0.0  0.100432  0.100541  -0.000118  1.035165  0.0
H  H28  1  0.78744495  0.52862846  0.81858837  1  0.090354  6.1e-05  0.974623  0.0  0.102458  9.2e-05  1.033669  0.0  0.105187  6.2e-05  1.031717  0.0  0.100367  0.100461  0.000119  1.035187  0.0
H  H29  1  0.21255748  0.02863811  0.68139960  1  0.090389  -5.9e-05  0.974772  0.0  0.102474  -9.2e-05  1.033831  0.0  0.105196  -6.2e-05  1.031891  0.0  0.100389  0.100477  -0.000119  1.035348  0.0
C  C30  1  0.44330745  0.65947421  0.33359484  1  0.639179  -0.004732  3.945584  -0.008  0.59825  -0.001203  4.245562  -0.004  0.635236  -0.001428  4.241519  -0.004  0.188109  0.573432  -0.000832  4.247351  -0.004
C  C31  1  0.55672267  0.15946797  0.16640114  1  0.639142  0.004732  3.945424  0.008  0.598237  0.001203  4.245412  0.004  0.635211  0.001427  4.241359  0.004  0.188014  0.573417  0.000832  4.247196  0.004
C  C32  1  0.55670357  0.34052568  0.66640284  1  0.639027  -0.004735  3.945606  -0.008  0.598107  -0.001202  4.245615  -0.004  0.635068  -0.001428  4.241574  -0.004  0.187985  0.573292  -0.000832  4.247399  -0.004
C  C33  1  0.44327442  0.84052909  0.83359523  1  0.639288  0.004734  3.945391  0.008  0.598338  0.001202  4.245402  0.004  0.635333  0.001427  4.241352  0.004  0.188106  0.573519  0.000832  4.247177  0.004
C  C34  1  0.38057117  0.72938590  0.22946679  1  -0.219327  0.003903  3.733262  0.004  -0.197489  0.003123  3.977987  0.004  -0.213111  0.00184  3.996319  0.002  -0.03073  -0.187382  0.003998  3.965356  0.004
C  C35  1  0.61944769  0.22937908  0.27052969  1  -0.219346  -0.003885  3.733547  -0.004  -0.197574  -0.003122  3.978337  -0.004  -0.213151  -0.001839  3.996621  -0.002  -0.030728  -0.18747  -0.003997  3.965711  -0.004
C  C36  1  0.61943849  0.27061493  0.77052994  1  -0.21916  0.003913  3.733473  0.004  -0.197405  0.00312  3.978349  0.004  -0.212948  0.001839  3.996592  0.002  -0.030719  -0.187304  0.003997  3.965716  0.004
C  C37  1  0.38055075  0.77061987  0.72946763  1  -0.219418  -0.003893  3.733665  -0.004  -0.197538  -0.00312  3.978343  -0.004  -0.213184  -0.001838  3.996707  -0.002  -0.030711  -0.187431  -0.003996  3.965715  -0.004
C  C38  1  0.22182694  0.72129402  0.14873049  1  0.193126  0.001037  3.697326  0.001  0.163289  -0.000163  3.956009  -0.001  0.177637  0.000422  3.970263  0.0  0.125733  0.154103  -0.000604  3.946045  -0.001
C  C39  1  0.77818461  0.22128708  0.35127264  1  0.193282  -0.001055  3.697304  -0.001  0.163451  0.000163  3.955939  0.001  0.177794  -0.000422  3.970181  0.0  0.125705  0.154263  0.000603  3.945967  0.001
C  C40  1  0.77817711  0.27870492  0.85126653  1  0.193082  0.001025  3.697281  0.001  0.163203  -0.000163  3.956094  -0.001  0.177519  0.000421  3.970334  0.0  0.125692  0.154026  -0.000604  3.946121  -0.001
C  C41  1  0.22181248  0.77871093  0.64872373  1  0.193212  -0.001045  3.697209  -0.001  0.163349  0.000162  3.95587  0.001  0.177716  -0.000422  3.970121  0.0  0.125636  0.154154  0.000603  3.945902  0.001
C  C42  1  0.48736947  0.82893867  0.19400368  1  0.079107  0.004519  3.685707  0.004  0.028959  0.001033  3.960914  0.001  0.043135  0.001793  3.973031  0.002  0.042556  0.020129  0.000496  3.952556  0.0
C  C43  1  0.51264248  0.32893346  0.30598992  1  0.079193  -0.004545  3.685737  -0.004  0.029056  -0.001033  3.960935  -0.001  0.043216  -0.001793  3.973064  -0.002  0.042614  0.020226  -0.000496  3.952577  0.0
C  C44  1  0.51263478  0.17106311  0.80598924  1  0.079058  0.00451  3.685709  0.004  0.028907  0.001034  3.960922  0.001  0.043058  0.001792  3.973029  0.002  0.042586  0.02008  0.000496  3.952555  0.0
C  C45  1  0.48735469  0.67106455  0.69400480  1  0.079229  -0.004518  3.685835  -0.004  0.029081  -0.001034  3.960997  -0.001  0.043258  -0.001792  3.97314  -0.002  0.042597  0.020249  -0.000497  3.952641  0.0
C  C46  1  0.05713454  0.64007667  0.13473388  1  0.003962  -0.000206  3.826429  -0.001  0.023948  -0.000171  4.063374  0.0  0.020698  -0.00026  4.085733  -0.001  -0.012229  0.025916  -7.4e-05  4.048251  0.0
C  C47  1  0.94286838  0.14006209  0.36527499  1  0.003948  0.000243  3.826956  0.001  0.023962  0.000171  4.06386  0.0  0.02071  0.00026  4.086218  0.001  -0.012266  0.025929  7.4e-05  4.048736  0.0
C  C48  1  0.94287504  0.35992605  0.86526449  1  0.003924  -0.000209  3.826426  -0.001  0.0239  -0.000172  4.063444  0.0  0.02064  -0.000259  4.085827  -0.001  -0.012257  0.025865  -7.5e-05  4.048323  0.0
C  C49  1  0.05712402  0.85993403  0.63473166  1  0.003994  0.000247  3.826526  0.001  0.02397  0.00017  4.063521  0.0  0.020708  0.000261  4.08589  0.001  -0.012192  0.025943  7.4e-05  4.048396  0.0
C  C50  1  0.88102638  0.68965045  0.09518011  1  -0.095207  0.000182  3.716623  0.0  -0.118253  0.000168  3.964029  0.0  -0.11929  0.000251  3.98472  0.0  -0.086777  -0.117371  8.8e-05  3.950097  0.0
C  C51  1  0.11897661  0.18963311  0.40482683  1  -0.095523  -0.000224  3.716645  0.0  -0.118579  -0.000167  3.964053  0.0  -0.119632  -0.000251  3.984757  0.0  -0.086909  -0.117697  -8.8e-05  3.950127  0.0
C  C52  1  0.11898169  0.31035133  0.90482060  1  -0.095276  0.00019  3.716439  0.0  -0.118329  0.000168  3.963806  0.0  -0.11938  0.000251  3.98451  0.0  -0.086779  -0.117447  8.8e-05  3.949879  0.0
C  C53  1  0.88100994  0.81036301  0.59518504  1  -0.095346  -0.000232  3.716545  0.0  -0.118393  -0.000167  3.963976  0.0  -0.119432  -0.000251  3.984677  0.0  -0.086927  -0.117517  -8.8e-05  3.950054  0.0
C  C54  1  0.72607445  0.61053964  0.07970083  1  -0.055804  0.000653  3.767778  0.001  -0.066766  0.000149  4.016527  0.0  -0.069989  2.2e-05  4.039756  0.0  -0.090946  -0.064569  0.000285  4.000713  0.0
C  C55  1  0.27393570  0.11052035  0.42030346  1  -0.055721  -0.000603  3.767341  0.0  -0.066674  -0.00015  4.016097  0.0  -0.069889  -2.2e-05  4.039316  0.0  -0.090959  -0.064482  -0.000285  4.000289  0.0
C  C56  1  0.27393211  0.38946591  0.92030221  1  -0.055788  0.000647  3.767574  0.001  -0.066736  0.000149  4.016318  0.0  -0.069951  2.2e-05  4.03954  0.0  -0.090996  -0.064541  0.000285  4.00051  0.0
C  C57  1  0.72606346  0.88947859  0.57970795  1  -0.055838  -0.000591  3.767484  0.0  -0.066845  -0.00015  4.016254  0.0  -0.070069  -2.2e-05  4.03947  0.0  -0.091004  -0.064652  -0.000285  4.000447  0.0
C  C58  1  0.74398973  0.48234452  0.10439270  1  -0.068171  0.000307  3.755258  0.0  -0.086795  0.000157  4.008423  0.0  -0.087833  0.000214  4.030476  0.0  -0.094171  -0.085951  0.000113  3.993346  0.0
C  C59  1  0.25600499  0.98232364  0.39560834  1  -0.068162  -0.00036  3.755021  0.0  -0.086779  -0.000156  4.008162  0.0  -0.087813  -0.000214  4.030206  0.0  -0.093987  -0.085928  -0.000113  3.993082  0.0
C  C60  1  0.25601126  0.51766103  0.89560981  1  -0.068326  0.000314  3.755304  0.0  -0.086955  0.000157  4.008467  0.0  -0.08799  0.000213  4.030505  0.0  -0.094086  -0.086115  0.000113  3.9934  0.0
C  C61  1  0.74399294  0.01767720  0.60439966  1  -0.068042  -0.000373  3.755208  0.0  -0.086698  -0.000156  4.00835  0.0  -0.087706  -0.000214  4.030404  0.0  -0.093978  -0.085844  -0.000113  3.993264  0.0
C  C62  1  0.91955647  0.43210131  0.14193569  1  -0.069013  4.4e-05  3.773686  0.0  -0.082592  3.2e-05  4.027077  0.0  -0.08593  -5.3e-05  4.049646  0.0  -0.093298  -0.080341  0.000136  4.011776  0.0
C  C63  1  0.08043946  0.93208305  0.35806987  1  -0.069035  1.2e-05  3.773857  0.0  -0.08262  -3.2e-05  4.027254  0.0  -0.085963  5.3e-05  4.04982  0.0  -0.093312  -0.08037  -0.000136  4.011949  0.0
C  C64  1  0.08044313  0.56790046  0.85806668  1  -0.068905  3.5e-05  3.773703  0.0  -0.082458  3.1e-05  4.027053  0.0  -0.085794  -5.3e-05  4.049624  0.0  -0.093246  -0.080205  0.000136  4.011749  0.0
C  C65  1  0.91955862  0.06791495  0.64193484  1  -0.069153  2.3e-05  3.774155  0.0  -0.082722  -3.3e-05  4.027561  0.0  -0.086062  5.3e-05  4.050116  0.0  -0.093324  -0.080471  -0.000136  4.012255  0.0
C  C66  1  0.07495311  0.51026909  0.15619383  1  -0.071171  0.000867  3.724683  0.001  -0.091957  0.000299  3.966314  0.0  -0.091479  0.000285  3.985286  0.0  -0.082067  -0.092067  0.000345  3.953496  0.0
C  C67  1  0.92504708  0.01025802  0.34381505  1  -0.071243  -0.00092  3.724814  -0.001  -0.092028  -0.0003  3.966522  0.0  -0.091543  -0.000285  3.985489  0.0  -0.082115  -0.092136  -0.000345  3.953702  0.0
C  C68  1  0.92505222  0.48972891  0.84380579  1  -0.07106  0.000871  3.724646  0.001  -0.091824  0.000301  3.966269  0.0  -0.091343  0.000285  3.985242  0.0  -0.082064  -0.091932  0.000345  3.953446  0.0
C  C69  1  0.07495372  0.98973999  0.65619157  1  -0.0711  -0.000925  3.724864  -0.001  -0.09189  -0.000299  3.96655  0.0  -0.0914  -0.000286  3.98552  0.0  -0.082049  -0.092001  -0.000345  3.953725  0.0
N  N70  1  0.24399871  0.81321622  0.07330692  1  -0.190912  -0.002696  3.424652  -0.003  -0.133447  -0.00209  3.663671  -0.002  -0.144744  -0.001752  3.680996  -0.002  -0.270475  -0.125882  -0.0023  3.652327  -0.002
N  N71  1  0.75599985  0.31320751  0.42670339  1  -0.190992  0.002712  3.424479  0.003  -0.133418  0.00209  3.663419  0.002  -0.144731  0.001753  3.680766  0.002  -0.270465  -0.125827  0.0023  3.652062  0.002
N  N72  1  0.75600673  0.18677989  0.92669024  1  -0.190854  -0.002698  3.424558  -0.003  -0.133379  -0.002091  3.663595  -0.002  -0.144649  -0.001752  3.680905  -0.002  -0.270416  -0.125815  -0.0023  3.652253  -0.002
N  N73  1  0.24399143  0.68679049  0.57329737  1  -0.19116  0.00271  3.424411  0.003  -0.133628  0.002091  3.663394  0.002  -0.14494  0.001752  3.680732  0.002  -0.270579  -0.12603  0.0023  3.652033  0.002
N  N74  1  0.40439475  0.87860527  0.09955480  1  -0.201634  -0.058116  3.282357  -0.071  -0.177182  -0.04456  3.604012  -0.058  -0.203651  -0.038595  3.623356  -0.052  -0.27835  -0.161526  -0.046978  3.5931  -0.059
N  N75  1  0.59560298  0.37859553  0.40044293  1  -0.201521  0.058132  3.282116  0.071  -0.177125  0.04456  3.603834  0.058  -0.203606  0.038598  3.623153  0.052  -0.27838  -0.161489  0.046979  3.592921  0.059
N  N76  1  0.59560811  0.12139651  0.90043798  1  -0.201575  -0.058103  3.282106  -0.071  -0.177082  -0.044558  3.603727  -0.058  -0.20356  -0.038592  3.623067  -0.052  -0.278369  -0.161429  -0.046977  3.592809  -0.059
N  N77  1  0.40439124  0.62140247  0.59955482  1  -0.201594  0.05811  3.282217  0.071  -0.177167  0.04456  3.603913  0.058  -0.203649  0.038596  3.623235  0.052  -0.278364  -0.161531  0.046978  3.592994  0.059
O  O78  1  0.60256283  0.68252015  0.38339801  1  -0.607086  0.000115  1.889646  0.002  -0.578103  0.000666  2.117656  0.002  -0.605249  -0.000357  2.109618  0.001  -0.328709  -0.5594  0.001567  2.122909  0.003
O  O79  1  0.39746452  0.18251446  0.11659713  1  -0.607054  -0.000115  1.88963  -0.002  -0.578088  -0.000671  2.117631  -0.002  -0.605231  0.000357  2.109611  -0.001  -0.328616  -0.559366  -0.00157  2.122852  -0.003
O  O80  1  0.39744537  0.31748162  0.61660023  1  -0.60705  0.000118  1.88974  0.002  -0.578053  0.000667  2.117728  0.002  -0.605202  -0.000356  2.109703  0.001  -0.32866  -0.55935  0.001568  2.122971  0.003
O  O81  1  0.60252823  0.81748166  0.88340213  1  -0.607149  -0.000118  1.889606  -0.002  -0.578171  -0.000669  2.117629  -0.002  -0.605311  0.000357  2.109596  -0.001  -0.328654  -0.559459  -0.001569  2.122864  -0.003
O  O82  1  0.33020705  0.57748110  0.36922376  1  -0.607288  0.110504  1.962882  0.143  -0.589336  0.071773  2.232554  0.102  -0.633215  0.055513  2.225739  0.083  -0.335116  -0.560182  0.080997  2.237332  0.11
O  O83  1  0.66982470  0.07747795  0.13076819  1  -0.607454  -0.110497  1.962539  -0.143  -0.589504  -0.071769  2.232174  -0.102  -0.633365  -0.055506  2.225382  -0.083  -0.335214  -0.560345  -0.080995  2.236954  -0.11
O  O84  1  0.66980409  0.42251973  0.63077146  1  -0.607376  0.110504  1.962702  0.143  -0.589383  0.071772  2.232334  0.102  -0.633261  0.055511  2.225528  0.083  -0.335122  -0.56023  0.080999  2.23711  0.11
O  O85  1  0.33017386  0.92252382  0.86922666  1  -0.60733  -0.110514  1.962486  -0.143  -0.589407  -0.071775  2.232155  -0.102  -0.63327  -0.055511  2.225359  -0.083  -0.335184  -0.560245  -0.081003  2.236927  -0.11
