# generated using pymatgen
data_ZrH22C18(NO2)4
_symmetry_space_group_name_H-M   'P 1'
_cell_length_a   8.01759925
_cell_length_b   9.59587819
_cell_length_c   15.29188048
_cell_angle_alpha   98.75341853
_cell_angle_beta   89.99081193
_cell_angle_gamma   114.67072239
_symmetry_Int_Tables_number   1
_chemical_formula_structural   ZrH22C18(NO2)4
_chemical_formula_sum   'Zr2 H44 C36 N8 O16'
_cell_volume   1054.02091384
_cell_formula_units_Z   2
loop_
 _symmetry_equiv_pos_site_id
 _symmetry_equiv_pos_as_xyz
  1  'x, y, z'
loop_
 _atom_site_type_symbol
 _atom_site_label
 _atom_site_symmetry_multiplicity
 _atom_site_fract_x
 _atom_site_fract_y
 _atom_site_fract_z
 _atom_site_occupancy
 _atom_site_hle17_bader_spin_density
 _atom_site_hle17_ddec_charge
 _atom_site_hle17_ddec_spin_density
 _atom_site_hle17_ddec_sum_bond_order
 _atom_site_hle17_magmom
 _atom_site_hse06_10hf_bader_spin_density
 _atom_site_hse06_10hf_ddec_charge
 _atom_site_hse06_10hf_ddec_spin_density
 _atom_site_hse06_10hf_ddec_sum_bond_order
 _atom_site_hse06_10hf_magmom
 _atom_site_hse06_bader_spin_density
 _atom_site_hse06_ddec_charge
 _atom_site_hse06_ddec_spin_density
 _atom_site_hse06_ddec_sum_bond_order
 _atom_site_hse06_magmom
 _atom_site_pbe_bader_spin_density
 _atom_site_pbe_cm5_charge
 _atom_site_pbe_ddec_charge
 _atom_site_pbe_ddec_spin_density
 _atom_site_pbe_ddec_sum_bond_order
 _atom_site_pbe_magmom
Zr  Zr0  1  0.71595110  0.00021126  0.75004692  1  0  2.367796  0  2.618821  0  0  2.264909  0  3.097569  0  0  2.36824  0  3.019101  0  0  1.639692  2.191266  0  3.151443  0
Zr  Zr1  1  0.28404297  0.99978172  0.24994968  1  0  2.36783  0  2.618628  0  0  2.264953  0  3.097345  0  0  2.368283  0  3.018883  0  0  1.639758  2.191312  0  3.151216  0
H  H2  1  0.08294994  0.77831574  0.49719226  1  0  0.111075  0  0.957614  0  0  0.119296  0  1.023222  0  0  0.123268  0  1.020626  0  0  0.103229  0.116434  0  1.025277  0
H  H3  1  0.30473500  0.22139421  0.00282094  1  0  0.111745  0  0.955963  0  0  0.119793  0  1.021886  0  0  0.123916  0  1.019053  0  0  0.103467  0.116783  0  1.024037  0
H  H4  1  0.91705883  0.22168419  0.50280699  1  0  0.1111  0  0.957643  0  0  0.119309  0  1.02326  0  0  0.123279  0  1.020669  0  0  0.103217  0.116445  0  1.025323  0
H  H5  1  0.69526687  0.77860690  0.99717713  1  0  0.111786  0  0.955846  0  0  0.119835  0  1.02178  0  0  0.123939  0  1.018966  0  0  0.103452  0.116824  0  1.023932  0
H  H6  1  0.91251341  0.56193226  0.75725154  1  0  0.075811  0  0.949736  0  0  0.085108  0  1.020377  0  0  0.08635  0  1.019545  0  0  0.105996  0.084022  0  1.021227  0
H  H7  1  0.35078672  0.43885126  0.74298924  1  0  0.074853  0  0.950536  0  0  0.085238  0  1.020668  0  0  0.086464  0  1.019863  0  0  0.106178  0.084297  0  1.021452  0
H  H8  1  0.08748952  0.43807345  0.24275091  1  0  0.075712  0  0.949783  0  0  0.085039  0  1.02042  0  0  0.086283  0  1.019586  0  0  0.105986  0.083955  0  1.02127  0
H  H9  1  0.64920917  0.56114286  0.25700879  1  0  0.074898  0  0.950515  0  0  0.085241  0  1.020678  0  0  0.086469  0  1.019869  0  0  0.106159  0.0843  0  1.021463  0
H  H10  1  0.00810379  0.44830753  0.80612604  1  0  0.082655  0  0.950303  0  0  0.091364  0  1.021263  0  0  0.092995  0  1.01988  0  0  0.106487  0.09013  0  1.022319  0
H  H11  1  0.55990130  0.55195765  0.69387026  1  0  0.081914  0  0.950179  0  0  0.091348  0  1.020863  0  0  0.092979  0  1.019474  0  0  0.10661  0.089966  0  1.022224  0
H  H12  1  0.99189424  0.55169588  0.19387487  1  0  0.082624  0  0.950188  0  0  0.091295  0  1.021239  0  0  0.092925  0  1.019855  0  0  0.106472  0.090064  0  1.022293  0
H  H13  1  0.44009333  0.44803646  0.30612907  1  0  0.081935  0  0.950277  0  0  0.091352  0  1.020977  0  0  0.092983  0  1.019584  0  0  0.106606  0.089967  0  1.022339  0
H  H14  1  0.94691007  0.43567396  0.61929021  1  0  0.091196  0  0.921119  0  0  0.106887  0  0.980693  0  0  0.107929  0  0.979933  0  0  0.113821  0.105873  0  0.981568  0
H  H15  1  0.51178655  0.56504482  0.88082870  1  0  0.090811  0  0.922053  0  0  0.106401  0  0.981364  0  0  0.107447  0  0.980633  0  0  0.113724  0.105418  0  0.982245  0
H  H16  1  0.05308728  0.56433057  0.38071343  1  0  0.091238  0  0.921102  0  0  0.106894  0  0.980676  0  0  0.107937  0  0.979914  0  0  0.113835  0.10588  0  0.98155  0
H  H17  1  0.48820552  0.43495164  0.11916890  1  0  0.090818  0  0.922058  0  0  0.106434  0  0.981349  0  0  0.107481  0  0.980614  0  0  0.113729  0.105445  0  0.982233  0
H  H18  1  0.09559246  0.36584116  0.66633680  1  0  0.075225  0  0.931951  0  0  0.086248  0  1.00112  0  0  0.087551  0  1.000037  0  0  0.104338  0.085171  0  1.00205  0
H  H19  1  0.73001579  0.63476806  0.83355822  1  0  0.075375  0  0.932521  0  0  0.086703  0  1.000974  0  0  0.087932  0  1.000002  0  0  0.104495  0.085579  0  1.002079  0
H  H20  1  0.90439892  0.63415642  0.33366419  1  0  0.075208  0  0.931935  0  0  0.08621  0  1.001091  0  0  0.087489  0  1.000037  0  0  0.10433  0.085138  0  1.00201  0
H  H21  1  0.26998251  0.36522839  0.16644004  1  0  0.075335  0  0.932562  0  0  0.086672  0  1.001021  0  0  0.087898  0  1.000054  0  0  0.10448  0.085545  0  1.002121  0
H  H22  1  0.17786591  0.71882980  0.92386170  1  0  0.096152  0  0.939555  0  0  0.120063  0  0.997618  0  0  0.120141  0  0.998656  0  0  0.106512  0.120043  0  0.996822  0
H  H23  1  0.45886133  0.28121497  0.57632095  1  0  0.095716  0  0.939959  0  0  0.120198  0  0.997327  0  0  0.120182  0  0.998477  0  0  0.106778  0.120194  0  0.996579  0
H  H24  1  0.82213327  0.28117590  0.07614140  1  0  0.096168  0  0.939535  0  0  0.120069  0  0.997593  0  0  0.120145  0  0.998633  0  0  0.106521  0.120049  0  0.996798  0
H  H25  1  0.54113946  0.71878147  0.42367796  1  0  0.095696  0  0.939922  0  0  0.120162  0  0.997305  0  0  0.120146  0  0.998453  0  0  0.106752  0.12014  0  0.996577  0
H  H26  1  0.12270554  0.83944139  0.86207294  1  0  0.097147  0  0.93675  0  0  0.113919  0  1.004024  0  0  0.114033  0  1.005405  0  0  0.100057  0.113872  0  1.002928  0
H  H27  1  0.28320652  0.16070231  0.63813249  1  0  0.097074  0  0.936791  0  0  0.114066  0  1.004024  0  0  0.114238  0  1.005326  0  0  0.099946  0.113902  0  1.00315  0
H  H28  1  0.87729559  0.16056321  0.13792548  1  0  0.097231  0  0.936716  0  0  0.113955  0  1.004024  0  0  0.114069  0  1.005406  0  0  0.100064  0.113909  0  1.002928  0
H  H29  1  0.71679486  0.83929532  0.36186458  1  0  0.097019  0  0.936791  0  0  0.114001  0  1.004038  0  0  0.114172  0  1.005339  0  0  0.099914  0.113838  0  1.003161  0
H  H30  1  0.35723457  0.86908416  0.87983344  1  0  0.111807  0  0.941025  0  0  0.127363  0  1.00911  0  0  0.129351  0  1.007215  0  0  0.112687  0.125821  0  1.01061  0
H  H31  1  0.48814083  0.13108722  0.62043032  1  0  0.111604  0  0.941039  0  0  0.127198  0  1.009328  0  0  0.129148  0  1.007472  0  0  0.112785  0.125589  0  1.011026  0
H  H32  1  0.64277095  0.13091924  0.12016747  1  0  0.11184  0  0.941043  0  0  0.127347  0  1.009166  0  0  0.129333  0  1.007273  0  0  0.112681  0.125806  0  1.010666  0
H  H33  1  0.51185996  0.86890922  0.37956859  1  0  0.111572  0  0.94094  0  0  0.127143  0  1.009253  0  0  0.129092  0  1.007398  0  0  0.112763  0.125535  0  1.010949  0
H  H34  1  0.21326749  0.51160848  0.51062600  1  0  0.122973  0  0.968455  0  0  0.141646  0  1.031845  0  0  0.143762  0  1.030392  0  0  0.109978  0.140042  0  1.03289  0
H  H35  1  0.70248867  0.48895080  0.98936621  1  0  0.122286  0  0.968383  0  0  0.140965  0  1.031958  0  0  0.143062  0  1.03055  0  0  0.109934  0.139477  0  1.032856  0
H  H36  1  0.78672389  0.48838909  0.48937564  1  0  0.122993  0  0.968439  0  0  0.14167  0  1.031836  0  0  0.143785  0  1.030383  0  0  0.11001  0.140066  0  1.032881  0
H  H37  1  0.29750455  0.51104797  0.01063293  1  0  0.122297  0  0.968325  0  0  0.141011  0  1.031866  0  0  0.14311  0  1.03045  0  0  0.109945  0.13952  0  1.032771  0
H  H38  1  0.43470302  0.58164169  0.56684965  1  0  0.085  0  0.940226  0  0  0.103276  0  1.010135  0  0  0.104045  0  1.009772  0  0  0.097553  0.102534  0  1.010678  0
H  H39  1  0.85393777  0.41905967  0.93298359  1  0  0.084162  0  0.941086  0  0  0.10279  0  1.010875  0  0  0.10363  0  1.01041  0  0  0.097453  0.10209  0  1.011221  0
H  H40  1  0.56529088  0.41835594  0.43314807  1  0  0.08498  0  0.940301  0  0  0.103291  0  1.010171  0  0  0.104061  0  1.009808  0  0  0.097569  0.102549  0  1.010715  0
H  H41  1  0.14605594  0.58094257  0.06701720  1  0  0.084111  0  0.941075  0  0  0.102772  0  1.010832  0  0  0.103608  0  1.01037  0  0  0.097465  0.102067  0  1.011182  0
H  H42  1  0.34999948  0.71673980  0.54141684  1  0  0.101794  0  0.930993  0  0  0.121458  0  0.994599  0  0  0.122647  0  0.993557  0  0  0.108142  0.12038  0  0.995673  0
H  H43  1  0.63436565  0.28385921  0.95848754  1  0  0.101428  0  0.930729  0  0  0.12151  0  0.99412  0  0  0.122669  0  0.993111  0  0  0.108232  0.120502  0  0.995061  0
H  H44  1  0.64998923  0.28326243  0.45858461  1  0  0.101778  0  0.931064  0  0  0.121494  0  0.994609  0  0  0.122684  0  0.993567  0  0  0.108158  0.120419  0  0.995678  0
H  H45  1  0.36563062  0.71614067  0.04151498  1  0  0.101393  0  0.930773  0  0  0.121496  0  0.994145  0  0  0.122652  0  0.99314  0  0  0.108214  0.12049  0  0.995084  0
C  C46  1  0.86888787  0.78784197  0.62716379  1  0  0.685997  0  3.868481  0  0  0.641351  0  4.164312  0  0  0.677686  0  4.151637  0  0  0.213332  0.616649  0  4.172226  0
C  C47  1  0.08142673  0.21222462  0.87282224  1  0  0.686371  0  3.867541  0  0  0.642143  0  4.162871  0  0  0.678524  0  4.150268  0  0  0.213557  0.61735  0  4.171087  0
C  C48  1  0.13112298  0.21215214  0.37283489  1  0  0.685938  0  3.86826  0  0  0.641223  0  4.16413  0  0  0.677561  0  4.151456  0  0  0.213334  0.616521  0  4.172038  0
C  C49  1  0.91857237  0.78778341  0.12718044  1  0  0.686468  0  3.867509  0  0  0.642217  0  4.16287  0  0  0.6786  0  4.150267  0  0  0.213644  0.617423  0  4.171083  0
C  C50  1  0.93525227  0.90044894  0.56356337  1  0  -0.190492  0  3.777023  0  0  -0.177742  0  4.021088  0  0  -0.187156  0  4.042295  0  0  -0.036307  -0.1713  0  4.006558  0
C  C51  1  0.03504929  0.09960206  0.93641504  1  0  -0.18987  0  3.775493  0  0  -0.177611  0  4.019607  0  0  -0.1871  0  4.041016  0  0  -0.035931  -0.171371  0  4.005338  0
C  C52  1  0.06476563  0.09955680  0.43643712  1  0  -0.190394  0  3.776886  0  0  -0.177438  0  4.020727  0  0  -0.186858  0  4.041936  0  0  -0.036287  -0.170996  0  4.006195  0
C  C53  1  0.96496324  0.90039791  0.06358161  1  0  -0.189982  0  3.775284  0  0  -0.177716  0  4.019428  0  0  -0.187206  0  4.040834  0  0  -0.035959  -0.171474  0  4.005158  0
C  C54  1  0.88691268  0.02794933  0.56623490  1  0  0.335929  0  3.88116  0  0  0.32283  0  4.149405  0  0  0.336418  0  4.165571  0  0  0.071208  0.313488  0  4.138127  0
C  C55  1  0.85913982  0.97230131  0.93378538  1  0  0.334845  0  3.880767  0  0  0.322514  0  4.147964  0  0  0.336081  0  4.164273  0  0  0.07075  0.312926  0  4.137184  0
C  C56  1  0.11310090  0.97205524  0.43376547  1  0  0.335922  0  3.881329  0  0  0.322738  0  4.149596  0  0  0.336328  0  4.165763  0  0  0.071196  0.313397  0  4.138317  0
C  C57  1  0.14087377  0.02770328  0.06621369  1  0  0.334917  0  3.880518  0  0  0.322563  0  4.147747  0  0  0.33613  0  4.164057  0  0  0.070711  0.312975  0  4.136967  0
C  C58  1  0.04645436  0.87584887  0.49796351  1  0  -0.178687  0  3.731017  0  0  -0.208726  0  3.987485  0  0  -0.21168  0  4.005747  0  0  -0.102964  -0.206667  0  3.975289  0
C  C59  1  0.17067937  0.12395560  0.00201328  1  0  -0.17855  0  3.730062  0  0  -0.208504  0  3.986328  0  0  -0.211534  0  4.004572  0  0  -0.1031  -0.206388  0  3.974148  0
C  C60  1  0.95356239  0.12415455  0.50203544  1  0  -0.178731  0  3.73087  0  0  -0.208831  0  3.987256  0  0  -0.21179  0  4.005532  0  0  -0.102996  -0.206775  0  3.975065  0
C  C61  1  0.82932873  0.87604550  0.99798545  1  0  -0.178543  0  3.729993  0  0  -0.208504  0  3.986259  0  0  -0.211518  0  4.004518  0  0  -0.103073  -0.206389  0  3.97408  0
C  C62  1  0.29629494  0.71132697  0.71643975  1  0  0.644455  0  3.863768  0  0  0.574573  0  4.156112  0  0  0.610891  0  4.150926  0  0  0.354635  0.549809  0  4.159062  0
C  C63  1  0.58510711  0.28911070  0.78366796  1  0  0.644912  0  3.864475  0  0  0.574257  0  4.158038  0  0  0.610554  0  4.152784  0  0  0.355033  0.549443  0  4.160934  0
C  C64  1  0.70370048  0.28866123  0.28356553  1  0  0.644486  0  3.863807  0  0  0.574527  0  4.156118  0  0  0.610847  0  4.150936  0  0  0.354698  0.549767  0  4.159062  0
C  C65  1  0.41488960  0.71089505  0.21633188  1  0  0.645032  0  3.86464  0  0  0.574499  0  4.158048  0  0  0.610804  0  4.152782  0  0  0.355082  0.549685  0  4.160949  0
C  C66  1  0.02914435  0.53056403  0.76021890  1  0  -0.013994  0  3.584283  0  0  -0.073903  0  3.847969  0  0  -0.069656  0  3.857086  0  0  -0.052178  -0.076634  0  3.841782  0
C  C67  1  0.49867433  0.46988620  0.73987276  1  0  -0.011403  0  3.582222  0  0  -0.074034  0  3.847843  0  0  -0.069805  0  3.857092  0  0  -0.052385  -0.076774  0  3.841574  0
C  C68  1  0.97084953  0.46943355  0.23978208  1  0  -0.013706  0  3.583988  0  0  -0.073699  0  3.847639  0  0  -0.069452  0  3.856757  0  0  -0.052101  -0.076449  0  3.84149  0
C  C69  1  0.50132387  0.53011255  0.26012769  1  0  -0.011474  0  3.582284  0  0  -0.07404  0  3.847866  0  0  -0.069817  0  3.857133  0  0  -0.052381  -0.076778  0  3.841584  0
C  C70  1  0.06430401  0.46722201  0.66669626  1  0  -0.002358  0  3.585145  0  0  -0.068558  0  3.852274  0  0  -0.063823  0  3.861279  0  0  -0.046483  -0.071646  0  3.846199  0
C  C71  1  0.59748710  0.53338471  0.83333875  1  0  -0.003601  0  3.584229  0  0  -0.068623  0  3.850786  0  0  -0.063889  0  3.859839  0  0  -0.046478  -0.071777  0  3.845006  0
C  C72  1  0.93568560  0.53277201  0.33330895  1  0  -0.002446  0  3.585167  0  0  -0.068571  0  3.852169  0  0  -0.06382  0  3.861173  0  0  -0.046528  -0.071661  0  3.846113  0
C  C73  1  0.40250672  0.46661525  0.16665855  1  0  -0.003533  0  3.584257  0  0  -0.068631  0  3.850902  0  0  -0.063893  0  3.85995  0  0  -0.046474  -0.071763  0  3.845093  0
C  C74  1  0.21455223  0.78135844  0.86738393  1  0  -0.141392  0  3.660293  0  0  -0.238624  0  3.909018  0  0  -0.234804  0  3.918591  0  0  -0.126164  -0.241088  0  3.902346  0
C  C75  1  0.43305851  0.21878605  0.63284027  1  0  -0.140742  0  3.661381  0  0  -0.238568  0  3.910044  0  0  -0.234679  0  3.919652  0  0  -0.126521  -0.241039  0  3.903494  0
C  C76  1  0.78544954  0.21864496  0.13261698  1  0  -0.141564  0  3.660424  0  0  -0.238752  0  3.909128  0  0  -0.234929  0  3.9187  0  0  -0.126214  -0.241215  0  3.902455  0
C  C77  1  0.56694228  0.78121040  0.36715799  1  0  -0.140628  0  3.661317  0  0  -0.238394  0  3.909975  0  0  -0.234503  0  3.919583  0  0  -0.12645  -0.24085  0  3.903431  0
C  C78  1  0.31014661  0.60273689  0.56165377  1  0  -0.155472  0  3.671553  0  0  -0.259129  0  3.927951  0  0  -0.255112  0  3.936014  0  0  -0.13112  -0.261453  0  3.922601  0
C  C79  1  0.70833078  0.39789666  0.93828468  1  0  -0.153901  0  3.669776  0  0  -0.257983  0  3.926424  0  0  -0.253962  0  3.934476  0  0  -0.13094  -0.260367  0  3.920842  0
C  C80  1  0.68984468  0.39726301  0.43834810  1  0  -0.155466  0  3.6716  0  0  -0.259255  0  3.927983  0  0  -0.255235  0  3.936039  0  0  -0.131218  -0.261578  0  3.922637  0
C  C81  1  0.29166118  0.60210209  0.06171577  1  0  -0.153845  0  3.669807  0  0  -0.257975  0  3.926436  0  0  -0.253951  0  3.934494  0  0  -0.130938  -0.260354  0  3.920859  0
N  N82  1  0.19846252  0.67214271  0.78769459  1  0  -0.207882  0  3.393577  0  0  -0.120396  0  3.639883  0  0  -0.14024  0  3.657946  0  0  -0.284684  -0.106763  0  3.627191  0
N  N83  1  0.52604768  0.32808139  0.71246896  1  0  -0.208506  0  3.394265  0  0  -0.120178  0  3.64137  0  0  -0.139967  0  3.659356  0  0  -0.285008  -0.106462  0  3.62857  0
N  N84  1  0.80153640  0.32785251  0.21230877  1  0  -0.207895  0  3.393723  0  0  -0.120251  0  3.639854  0  0  -0.140092  0  3.657917  0  0  -0.284715  -0.106615  0  3.627159  0
N  N85  1  0.47395435  0.67191505  0.28753060  1  0  -0.208582  0  3.394355  0  0  -0.12031  0  3.641439  0  0  -0.140102  0  3.659421  0  0  -0.285  -0.106591  0  3.628631  0
N  N86  1  0.22364729  0.60011496  0.64472790  1  0  -0.204652  0  3.443178  0  0  -0.112124  0  3.685545  0  0  -0.132985  0  3.706575  0  0  -0.282866  -0.098166  0  3.6709  0
N  N87  1  0.62421114  0.40056245  0.85529986  1  0  -0.203384  0  3.440867  0  0  -0.111754  0  3.684467  0  0  -0.132544  0  3.705408  0  0  -0.283233  -0.097531  0  3.669802  0
N  N88  1  0.77635154  0.39988256  0.35527700  1  0  -0.204736  0  3.443163  0  0  -0.112089  0  3.685368  0  0  -0.13295  0  3.706394  0  0  -0.282847  -0.098142  0  3.670742  0
N  N89  1  0.37577976  0.59943168  0.14469816  1  0  -0.203536  0  3.441074  0  0  -0.111962  0  3.684711  0  0  -0.132759  0  3.705652  0  0  -0.283302  -0.097743  0  3.670037  0
O  O90  1  0.80773783  0.83146802  0.70151848  1  0  -0.763023  0  2.062224  0  0  -0.717188  0  2.328007  0  0  -0.750571  0  2.31388  0  0  -0.420555  -0.693573  0  2.337024  0
O  O91  1  0.97642592  0.16884021  0.79857921  1  0  -0.762963  0  2.060768  0  0  -0.717072  0  2.326389  0  0  -0.750563  0  2.312305  0  0  -0.420544  -0.69355  0  2.335369  0
O  O92  1  0.19226895  0.16853541  0.29848048  1  0  -0.762948  0  2.062307  0  0  -0.717129  0  2.328137  0  0  -0.750508  0  2.314011  0  0  -0.420537  -0.693515  0  2.337152  0
O  O93  1  0.02357588  0.83116323  0.20141909  1  0  -0.762994  0  2.061135  0  0  -0.717113  0  2.32678  0  0  -0.750604  0  2.312692  0  0  -0.42061  -0.693593  0  2.335763  0
O  O94  1  0.77929582  0.05702640  0.62676806  1  0  -0.737663  0  2.074845  0  0  -0.695595  0  2.341125  0  0  -0.728632  0  2.334088  0  0  -0.450098  -0.672338  0  2.34537  0
O  O95  1  0.72254032  0.94336427  0.87327966  1  0  -0.737194  0  2.07558  0  0  -0.695281  0  2.341555  0  0  -0.72831  0  2.334556  0  0  -0.44974  -0.671927  0  2.346015  0
O  O96  1  0.22070731  0.94297472  0.37323001  1  0  -0.737641  0  2.074915  0  0  -0.695576  0  2.341239  0  0  -0.728615  0  2.334205  0  0  -0.450127  -0.672318  0  2.345481  0
O  O97  1  0.27746530  0.05663683  0.12671906  1  0  -0.737243  0  2.075637  0  0  -0.695323  0  2.341604  0  0  -0.728351  0  2.334605  0  0  -0.449726  -0.67197  0  2.346067  0
O  O98  1  0.44019196  0.83686657  0.71627378  1  0  -0.731095  0  2.112931  0  0  -0.684022  0  2.387204  0  0  -0.713562  0  2.370746  0  0  -0.391884  -0.663149  0  2.398191  0
O  O99  1  0.60341260  0.16352238  0.78388181  1  0  -0.732267  0  2.114776  0  0  -0.684873  0  2.389586  0  0  -0.71428  0  2.373093  0  0  -0.391813  -0.663529  0  2.400339  0
O  O100  1  0.55981014  0.16312751  0.28372751  1  0  -0.731083  0  2.112964  0  0  -0.684014  0  2.387227  0  0  -0.713552  0  2.370768  0  0  -0.391872  -0.663143  0  2.398214  0
O  O101  1  0.39659209  0.83646937  0.21611924  1  0  -0.732233  0  2.115113  0  0  -0.684864  0  2.38985  0  0  -0.714267  0  2.37335  0  0  -0.39183  -0.663523  0  2.400604  0
O  O102  1  0.87221048  0.65813910  0.61031744  1  0  -0.574381  0  1.918873  0  0  -0.532264  0  2.140625  0  0  -0.553379  0  2.131595  0  0  -0.30263  -0.517463  0  2.146383  0
O  O103  1  0.21468181  0.34172162  0.88958020  1  0  -0.574586  0  1.919044  0  0  -0.532625  0  2.140595  0  0  -0.553858  0  2.131629  0  0  -0.302917  -0.518058  0  2.146533  0
O  O104  1  0.12780410  0.34187246  0.38968363  1  0  -0.574508  0  1.918466  0  0  -0.532376  0  2.140234  0  0  -0.553493  0  2.131208  0  0  -0.302677  -0.51757  0  2.145989  0
O  O105  1  0.78531066  0.65828063  0.11041929  1  0  -0.574665  0  1.918783  0  0  -0.532636  0  2.140285  0  0  -0.553866  0  2.131316  0  0  -0.302951  -0.518067  0  2.14622  0
