# generated using pymatgen
data_Zr3H23C33N3O16
_symmetry_space_group_name_H-M   'P 1'
_cell_length_a   14.05812467
_cell_length_b   14.04689260
_cell_length_c   14.14669389
_cell_angle_alpha   85.92214300
_cell_angle_beta   88.05585241
_cell_angle_gamma   89.20965580
_symmetry_Int_Tables_number   1
_chemical_formula_structural   Zr3H23C33N3O16
_chemical_formula_sum   'Zr6 H46 C66 N6 O32'
_cell_volume   2784.73170584
_cell_formula_units_Z   2
loop_
 _symmetry_equiv_pos_site_id
 _symmetry_equiv_pos_as_xyz
  1  'x, y, z'
loop_
 _atom_site_type_symbol
 _atom_site_label
 _atom_site_symmetry_multiplicity
 _atom_site_fract_x
 _atom_site_fract_y
 _atom_site_fract_z
 _atom_site_occupancy
 _atom_site_pbe_bader_charge
 _atom_site_pbe_bader_spin_density
 _atom_site_pbe_cm5_charge
 _atom_site_pbe_ddec_charge
 _atom_site_pbe_ddec_spin_density
 _atom_site_pbe_ddec_sum_bond_order
 _atom_site_pbe_magmom
Zr  Zr0  1  0.80509081  0.18565229  0.04721194  1  2.630158  0  1.618938  2.378961  0  2.724727  0
Zr  Zr1  1  0.00844039  0.28511491  0.14473376  1  2.630294  0  1.621937  2.378684  0  2.739489  0
Zr  Zr2  1  0.92396331  0.96464945  0.04006947  1  2.630348  0  1.622059  2.377934  0  2.742865  0
Zr  Zr3  1  0.90267302  0.07512948  0.25816636  1  2.631552  0  1.61874  2.37807  0  2.720415  0
Zr  Zr4  1  0.03277545  0.17354046  0.93076707  1  2.631546  0  1.619841  2.379208  0  2.718765  0
Zr  Zr5  1  0.12629731  0.06001854  0.14226420  1  2.630335  0  1.619324  2.37969  0  2.717578  0
H  H6  1  0.55614187  0.83404590  0.79530051  1  0.092389  0  0.112101  0.12975  0  0.994597  0
H  H7  1  0.36931146  0.84574393  0.78252883  1  0.075962  0  0.099431  0.111397  0  1.07092  0
H  H8  1  0.37552269  0.40760546  0.38772031  1  0.08148  0  0.111474  0.130123  0  0.995324  0
H  H9  1  0.56341643  0.39225519  0.39691788  1  0.070346  0  0.099722  0.112937  0  1.056684  0
H  H10  1  0.25958229  0.78700895  0.51235645  1  0.089372  0  0.114543  0.131782  0  0.990663  0
H  H11  1  0.24823397  0.80870494  0.69687121  1  0.08812  0  0.104131  0.11991  0  1.041132  0
H  H12  1  0.68276541  0.45622764  0.67570440  1  0.088178  0  0.114328  0.132265  0  0.989642  0
H  H13  1  0.69869875  0.43437644  0.49051042  1  0.071505  0  0.105081  0.122333  0  1.027908  0
H  H14  1  0.27505765  0.57014410  0.80518384  1  0.093468  0  0.113286  0.131448  0  0.99557  0
H  H15  1  0.28060108  0.75410803  0.83120856  1  0.069817  0  0.104574  0.1159  0  1.049022  0
H  H16  1  0.65430221  0.68231046  0.37456491  1  0.050568  0  0.113322  0.132441  0  0.994717  0
H  H17  1  0.65049657  0.49735906  0.34841295  1  0.086968  0  0.10355  0.116209  0  1.037769  0
H  H18  1  0.82286393  0.26162261  0.22702414  1  0.58881  0  0.320669  0.399178  0  0.895011  0
H  H19  1  0.86683634  0.09154664  0.88249208  1  0.607426  0  0.328968  0.421103  0  0.864612  0
H  H20  1  0.00302955  0.90639562  0.20838397  1  0.621962  0  0.329793  0.421295  0  0.863827  0
H  H21  1  0.18193158  0.22836056  0.04905404  1  0.609374  0  0.328795  0.420455  0  0.864841  0
H  H22  1  0.66574117  0.79156763  0.11468599  1  0.097483  0  0.116215  0.125859  0  0.974162  0
H  H23  1  0.69146719  0.83315612  0.32357296  1  0.038469  0  0.107154  0.125421  0  0.988787  0
H  H24  1  0.60354351  0.42859472  0.10154101  1  0.110211  0  0.112535  0.122375  0  0.985533  0
H  H25  1  0.77072621  0.51271651  0.20419105  1  0.074853  0  0.107489  0.130168  0  0.989694  0
H  H26  1  0.32883686  0.81444520  0.08450354  1  0.104934  0  0.113584  0.12287  0  0.983936  0
H  H27  1  0.16538773  0.75360221  0.96152919  1  0.086009  0  0.105768  0.125067  0  1.003262  0
H  H28  1  0.22918998  0.42591307  0.85732902  1  0.035416  0  0.107973  0.128823  0  0.987357  0
H  H29  1  0.26508866  0.46155442  0.06611531  1  0.088333  0  0.116117  0.125284  0  0.975018  0
H  H30  1  0.51323144  0.72294824  0.05757527  1  0.099157  0  0.122918  0.110234  0  0.995534  0
H  H31  1  0.41955752  0.52861480  0.12105698  1  0.132296  0  0.122816  0.110547  0  0.995315  0
H  H32  1  0.95452312  0.44787941  0.73810199  1  0.099442  0  0.114556  0.122395  0  0.978434  0
H  H33  1  0.74861950  0.39883271  0.80540880  1  0.063908  0  0.104132  0.122298  0  0.995671  0
H  H34  1  0.94989399  0.47301282  0.37908299  1  0.113696  0  0.115321  0.127425  0  0.979971  0
H  H35  1  0.83512172  0.30686619  0.48015499  1  0.076688  0  0.106864  0.127809  0  0.992874  0
H  H36  1  0.12277118  0.93622684  0.72368346  1  0.088387  0  0.105159  0.123505  0  1.003781  0
H  H37  1  0.99044348  0.77498268  0.80665325  1  0.136251  0  0.115855  0.127715  0  0.977719  0
H  H38  1  0.98481276  0.79778634  0.45179940  1  0.08879  0  0.113077  0.120117  0  0.98221  0
H  H39  1  0.18893799  0.86858219  0.40271363  1  0.031123  0  0.105122  0.124342  0  0.998386  0
H  H40  1  0.92474507  0.67283335  0.68194033  1  0.11646  0  0.123981  0.111464  0  0.998493  0
H  H41  1  0.01781741  0.57521988  0.51074455  1  0.113745  0  0.123543  0.109967  0  0.999393  0
H  H42  1  0.24300087  0.34486554  0.33965987  1  0.05033  0  0.105547  0.122608  0  0.993741  0
H  H43  1  0.29946550  0.13702541  0.40015049  1  0.081896  0  0.117011  0.126289  0  0.971538  0
H  H44  1  0.65745376  0.13762687  0.45369971  1  0.123678  0  0.112507  0.121874  0  0.985279  0
H  H45  1  0.57283992  0.25341138  0.28149605  1  0.096591  0  0.105982  0.129469  0  0.993304  0
H  H46  1  0.34168994  0.96992991  0.90253757  1  0.100578  0  0.103283  0.123297  0  1.006565  0
H  H47  1  0.27969312  0.10907286  0.73603714  1  0.120135  0  0.11349  0.122971  0  0.98371  0
H  H48  1  0.63035806  0.10724799  0.79011972  1  0.09698  0  0.116185  0.124976  0  0.973398  0
H  H49  1  0.67139961  0.89946334  0.86498545  1  0.035942  0  0.106421  0.124947  0  0.994714  0
H  H50  1  0.55240927  0.16320720  0.64110187  1  0.091155  0  0.122084  0.108385  0  0.997403  0
H  H51  1  0.37670707  0.08066411  0.54893034  1  0.119868  0  0.122029  0.108063  0  1.000195  0
C  C52  1  0.55405923  0.98595947  0.74212531  1  0.304892  0  0.077572  0.12505  0  3.957712  0
C  C53  1  0.51747134  0.89454632  0.76279751  1  -0.000843  0  -0.099457  -0.175028  0  3.979392  0
C  C54  1  0.41828760  0.90037523  0.75499556  1  -0.077137  0  -0.106485  -0.188208  0  4.038459  0
C  C55  1  0.39268719  0.99397766  0.72659584  1  0.302106  0  0.064526  0.092633  0  3.945235  0
C  C56  1  0.37542686  0.25803261  0.44801534  1  0.265231  0  0.076975  0.119525  0  3.959754  0
C  C57  1  0.41380373  0.34792649  0.42225704  1  -0.028923  0  -0.100996  -0.178798  0  3.983982  0
C  C58  1  0.51314616  0.34017009  0.42771978  1  -0.015156  0  -0.107848  -0.192194  0  4.049249  0
C  C59  1  0.53709237  0.24703548  0.45973960  1  0.306891  0  0.062992  0.085385  0  3.945635  0
C  C60  1  0.10884182  0.74431097  0.52985657  1  0.305927  0  0.061886  0.085228  0  3.9455  0
C  C61  1  0.19985562  0.76546559  0.55924011  1  -0.054279  0  -0.096382  -0.165482  0  3.992788  0
C  C62  1  0.19354470  0.77787384  0.65673328  1  -0.067193  0  -0.104623  -0.191733  0  4.013153  0
C  C63  1  0.10045199  0.75976815  0.68970191  1  0.326403  0  0.082121  0.133373  0  3.943287  0
C  C64  1  0.83201453  0.50399427  0.66077361  1  0.289737  0  0.063166  0.085432  0  3.947985  0
C  C65  1  0.74244949  0.47970764  0.62962906  1  -0.036314  0  -0.09631  -0.164256  0  3.98548  0
C  C66  1  0.75120191  0.46669049  0.53231109  1  -0.003161  0  -0.10631  -0.197346  0  4.023978  0
C  C67  1  0.84450540  0.48652231  0.50140457  1  0.265128  0  0.080398  0.130074  0  3.947755  0
C  C68  1  0.32977607  0.55084458  0.94999241  1  0.271748  0  0.074935  0.11745  0  3.948065  0
C  C69  1  0.30820541  0.60078163  0.86399027  1  -0.030334  0  -0.097041  -0.168744  0  3.977701  0
C  C70  1  0.31250573  0.69833477  0.87693036  1  -0.050312  0  -0.104667  -0.190786  0  4.046277  0
C  C71  1  0.34050385  0.71051113  0.96890852  1  0.328629  0  0.068422  0.099009  0  3.938365  0
C  C72  1  0.60058574  0.70111087  0.22956442  1  0.283052  0  0.074691  0.115619  0  3.957882  0
C  C73  1  0.62224847  0.65115713  0.31541573  1  0.000587  0  -0.100091  -0.175204  0  3.986354  0
C  C74  1  0.61953603  0.55335469  0.30203817  1  0.038221  0  -0.10534  -0.19076  0  4.045809  0
C  C75  1  0.59253159  0.54126987  0.20972381  1  0.24606  0  0.065387  0.093564  0  3.940849  0
C  C76  1  0.72351229  0.01159042  0.94225432  1  1.514331  0  0.215001  0.663719  0  4.162183  0
C  C77  1  0.80049307  0.39658412  0.11377033  1  1.5432  0  0.219108  0.668791  0  4.141553  0
C  C78  1  0.69124412  0.15594337  0.25776896  1  1.560242  0  0.218003  0.668458  0  4.142361  0
C  C79  1  0.85892478  0.30312400  0.85110595  1  1.542819  0  0.220315  0.680498  0  4.126651  0
C  C80  1  0.19938391  0.23446042  0.25516531  1  1.530681  0  0.220786  0.677712  0  4.132823  0
C  C81  1  0.13372622  0.85645740  0.06449513  1  1.563096  0  0.223009  0.679153  0  4.129028  0
C  C82  1  0.92785886  0.28067628  0.35779472  1  1.543042  0  0.217133  0.665719  0  4.144123  0
C  C83  1  0.13055503  0.37235976  0.96651473  1  1.527804  0  0.213332  0.661494  0  4.164226  0
C  C84  1  0.01750432  0.96516783  0.83424311  1  1.537821  0  0.221198  0.674317  0  4.134797  0
C  C85  1  0.79449498  0.88392673  0.21698262  1  1.526799  0  0.221157  0.679202  0  4.130878  0
C  C86  1  0.07579043  0.95427063  0.34726933  1  1.482029  0  0.214268  0.665161  0  4.156884  0
C  C87  1  0.23665293  0.07997913  0.92932775  1  1.538131  0  0.221767  0.678489  0  4.12736  0
C  C88  1  0.65250864  0.78389783  0.19152191  1  -0.037414  0  -0.068066  -0.082429  0  3.981213  0
C  C89  1  0.70586821  0.83543729  0.24719798  1  0.01606  0  -0.102866  -0.240443  0  3.898893  0
C  C90  1  0.63967871  0.47051342  0.15135221  1  -0.009383  0  -0.067744  -0.083657  0  3.92952  0
C  C91  1  0.73556782  0.46488670  0.15934634  1  -0.038701  0  -0.091609  -0.222928  0  3.866276  0
C  C92  1  0.29425304  0.78094990  0.02761699  1  -0.008904  0  -0.066563  -0.083456  0  3.928918  0
C  C93  1  0.19983958  0.79410172  0.01337163  1  -0.059795  0  -0.089773  -0.217107  0  3.86354  0
C  C94  1  0.21764062  0.42217641  0.93413259  1  0.021097  0  -0.106376  -0.249354  0  3.914968  0
C  C95  1  0.27531929  0.47022390  0.98897444  1  -0.045919  0  -0.069831  -0.084948  0  3.987645  0
C  C96  1  0.50360672  0.65400169  0.09719828  1  0.411093  0  0.011303  -0.063248  0  3.986772  0
C  C97  1  0.42928754  0.59746243  0.08130681  1  0.2885  0  0.009943  -0.066096  0  3.987855  0
C  C98  1  0.87677816  0.45269540  0.74059650  1  -0.077769  0  -0.066079  -0.075562  0  3.973471  0
C  C99  1  0.82598580  0.39190071  0.80118385  1  0.023391  0  -0.107988  -0.247543  0  3.903929  0
C  C100  1  0.89670074  0.43829439  0.42753010  1  -0.00543  0  -0.070705  -0.093733  0  3.950548  0
C  C101  1  0.88227395  0.34292829  0.42671282  1  -0.04559  0  -0.091991  -0.223564  0  3.871974  0
C  C102  1  0.06911984  0.90127858  0.77104290  1  -0.048104  0  -0.090646  -0.218259  0  3.867097  0
C  C103  1  0.04946616  0.80763402  0.76433089  1  -0.025165  0  -0.069376  -0.093861  0  3.95064  0
C  C104  1  0.06245133  0.79965653  0.45322849  1  0.02163  0  -0.069749  -0.081382  0  3.976944  0
C  C105  1  0.11144505  0.86881885  0.40102282  1  -0.005279  0  -0.109123  -0.248635  0  3.914868  0
C  C106  1  0.97531866  0.66149291  0.62358278  1  0.342327  0  0.015046  -0.061628  0  3.977334  0
C  C107  1  0.96691539  0.58651934  0.56888181  1  0.36483  0  0.015142  -0.060309  0  3.979301  0
C  C108  1  0.24583693  0.26739957  0.33778013  1  0.064653  0  -0.103215  -0.238472  0  3.908897  0
C  C109  1  0.29958307  0.21487379  0.40045890  1  -0.044008  0  -0.067201  -0.083935  0  3.986314  0
C  C110  1  0.61422336  0.19184161  0.41540880  1  -0.017793  0  -0.067465  -0.07995  0  3.928693  0
C  C111  1  0.62167833  0.20458600  0.31941580  1  -0.085498  0  -0.094127  -0.227851  0  3.868671  0
C  C112  1  0.30013864  0.02646232  0.86603689  1  -0.094087  0  -0.092647  -0.219837  0  3.858856  0
C  C113  1  0.31501411  0.04733299  0.77153552  1  -0.004854  0  -0.066798  -0.082613  0  3.933001  0
C  C114  1  0.62671013  0.02936743  0.79388359  1  -0.06356  0  -0.070662  -0.088235  0  3.990643  0
C  C115  1  0.67333900  0.97718737  0.86258060  1  0.046394  0  -0.104039  -0.242282  0  3.920663  0
C  C116  1  0.49174003  0.11701838  0.63361902  1  0.365457  0  0.011513  -0.062221  0  3.990033  0
C  C117  1  0.43749326  0.12677310  0.55617002  1  0.369213  0  0.01104  -0.067088  0  3.987893  0
N  N118  1  0.47848577  0.04329516  0.70518342  1  -1.182939  0  -0.226953  -0.019173  0  3.686426  0
N  N119  1  0.45076391  0.20032072  0.48441639  1  -1.188832  0  -0.22764  -0.004606  0  3.685498  0
N  N120  1  0.05199433  0.72501646  0.61368125  1  -1.182817  0  -0.221642  -0.011247  0  3.685165  0
N  N121  1  0.89035748  0.52291681  0.57805839  1  -1.160744  0  -0.222353  -0.009429  0  3.691682  0
N  N122  1  0.36365216  0.61901171  0.00968312  1  -1.161582  0  -0.222707  -0.013494  0  3.688775  0
N  N123  1  0.56907070  0.63266747  0.16900908  1  -1.185516  0  -0.224891  -0.013722  0  3.692191  0
O  O124  1  0.78200508  0.95039820  0.97982308  1  -1.179266  0  -0.368828  -0.631353  0  2.295422  0
O  O125  1  0.88954025  0.40356654  0.12679165  1  -1.16554  0  -0.342936  -0.616115  0  2.165111  0
O  O126  1  0.68470693  0.17116281  0.16812742  1  -1.171719  0  -0.342069  -0.616156  0  2.159705  0
O  O127  1  0.79516978  0.26206042  0.90663630  1  -1.182333  0  -0.380949  -0.6447  0  2.284096  0
O  O128  1  0.94143236  0.26702357  0.83350447  1  -1.185753  0  -0.365825  -0.630737  0  2.196424  0
O  O129  1  0.75577617  0.10540488  0.29993771  1  -1.186646  0  -0.374511  -0.63047  0  2.304508  0
O  O130  1  0.76128246  0.33210866  0.06933142  1  -1.182628  0  -0.372409  -0.629898  0  2.305474  0
O  O131  1  0.70697893  0.09505976  0.97120742  1  -1.1776  0  -0.363634  -0.625128  0  2.189002  0
O  O132  1  0.94480420  0.23611363  0.02964016  1  -1.195578  0  -0.788978  -1.146019  0  2.133163  0
O  O133  1  0.85557674  0.06487722  0.11992570  1  -1.198431  0  -0.787136  -1.146755  0  2.127571  0
O  O134  1  0.86360494  0.22217225  0.18892682  1  -1.227242  0  -0.689914  -1.058285  0  2.376612  0
O  O135  1  0.89305557  0.09917395  0.94402531  1  -1.237498  0  -0.695057  -1.074537  0  2.372094  0
O  O136  1  0.14449257  0.29742823  0.21437552  1  -1.190714  0  -0.37917  -0.641824  0  2.296334  0
O  O137  1  0.04533450  0.84933929  0.04805349  1  -1.177771  0  -0.348539  -0.622321  0  2.185435  0
O  O138  1  0.91344942  0.19096713  0.36950091  1  -1.170678  0  -0.342247  -0.615549  0  2.163421  0
O  O139  1  0.09787409  0.31650678  0.90794171  1  -1.164917  0  -0.36852  -0.626412  0  2.284666  0
O  O140  1  0.03458289  0.05437852  0.82195526  1  -1.162705  0  -0.345705  -0.620484  0  2.180678  0
O  O141  1  0.82811501  0.93712114  0.27750139  1  -1.170624  0  -0.373504  -0.634142  0  2.279075  0
O  O142  1  0.13754748  0.99356061  0.28854816  1  -1.169331  0  -0.370432  -0.633679  0  2.284176  0
O  O143  1  0.24368330  0.06128802  0.01854250  1  -1.155698  0  -0.34647  -0.623103  0  2.173901  0
O  O144  1  0.99120072  0.98723305  0.36176434  1  -1.181203  0  -0.364392  -0.625292  0  2.183681  0
O  O145  1  0.17977982  0.14176393  0.89002339  1  -1.189065  0  -0.379916  -0.640121  0  2.295932  0
O  O146  1  0.97551518  0.32327219  0.28886002  1  -1.179922  0  -0.373688  -0.632542  0  2.310119  0
O  O147  1  0.83645609  0.86671763  0.13775042  1  -1.189924  0  -0.370517  -0.634006  0  2.212122  0
O  O148  1  0.95887605  0.92612681  0.89624358  1  -1.188503  0  -0.379339  -0.642422  0  2.294769  0
O  O149  1  0.09081934  0.38736245  0.04751299  1  -1.181108  0  -0.368973  -0.630137  0  2.199901  0
O  O150  1  0.21865583  0.15239748  0.22439940  1  -1.184726  0  -0.363579  -0.628517  0  2.194982  0
O  O151  1  0.16939499  0.91316095  0.12045525  1  -1.186229  0  -0.37793  -0.638776  0  2.28891  0
O  O152  1  0.04437043  0.05022672  0.02239248  1  -1.202685  0  -0.778624  -1.146992  0  2.080608  0
O  O153  1  0.02229415  0.14380929  0.20271870  1  -1.195175  0  -0.787666  -1.145734  0  2.128533  0
O  O154  1  0.99402767  0.97014988  0.17869084  1  -1.248738  0  -0.698437  -1.075051  0  2.389758  0
O  O155  1  0.11904456  0.20140553  0.06042220  1  -1.238751  0  -0.695191  -1.074604  0  2.374702  0
