# generated using pymatgen
data_NiH15C17O8
_symmetry_space_group_name_H-M   'P 1'
_cell_length_a   10.76335841
_cell_length_b   16.62807789
_cell_length_c   15.58886576
_cell_angle_alpha   68.89180421
_cell_angle_beta   87.36969933
_cell_angle_gamma   87.40090120
_symmetry_Int_Tables_number   1
_chemical_formula_structural   NiH15C17O8
_chemical_formula_sum   'Ni4 H60 C68 O32'
_cell_volume   2598.81179877
_cell_formula_units_Z   4
loop_
 _symmetry_equiv_pos_site_id
 _symmetry_equiv_pos_as_xyz
  1  'x, y, z'
loop_
 _atom_site_type_symbol
 _atom_site_label
 _atom_site_symmetry_multiplicity
 _atom_site_fract_x
 _atom_site_fract_y
 _atom_site_fract_z
 _atom_site_occupancy
 _atom_site_pbe_bader_charge
 _atom_site_pbe_bader_spin_density
 _atom_site_pbe_cm5_charge
 _atom_site_pbe_ddec_charge
 _atom_site_pbe_ddec_spin_density
 _atom_site_pbe_ddec_sum_bond_order
 _atom_site_pbe_magmom
Ni  Ni0  1  0.64067546  0.00527447  0.50874320  1  1.227109  1.604046  0.61634  0.984009  1.793776  2.376862  1.591
Ni  Ni1  1  0.35936743  0.99474146  0.49125800  1  1.226871  1.604066  0.616327  0.983897  1.793832  2.376775  1.591
Ni  Ni2  1  0.51902794  0.81902788  0.49533114  1  1.211309  1.581197  0.601742  0.946323  1.762638  2.364401  1.568
Ni  Ni3  1  0.48099009  0.18098378  0.50466703  1  1.211013  1.581202  0.60163  0.946226  1.762626  2.364436  1.568
H  H4  1  0.72023543  0.92254937  0.66395862  1  0.615557  -0.000137  0.325282  0.406282  -0.00022  0.868485  0.0
H  H5  1  0.27979765  0.07744659  0.33605732  1  0.615447  -0.000138  0.325178  0.406154  -0.000221  0.868873  0.0
H  H6  1  0.65513898  0.85791570  0.62793041  1  0.644375  -0.000344  0.298074  0.379011  -0.000474  0.96465  0.0
H  H7  1  0.34488267  0.14209720  0.37206979  1  0.644528  -0.000344  0.298047  0.378972  -0.000474  0.964649  0.0
H  H8  1  0.21028484  0.68815698  0.45604554  1  0.075499  0.000254  0.102418  0.106641  0.000111  1.00611  0.0
H  H9  1  0.78973903  0.31185474  0.54394158  1  0.075564  0.000254  0.1024  0.10662  0.000111  1.006256  0.0
H  H10  1  0.51141306  0.65840925  0.59832002  1  0.619299  -0.000523  0.330512  0.41806  -0.000535  0.858017  0.0
H  H11  1  0.48863609  0.34159126  0.40167720  1  0.619469  -0.000522  0.330622  0.418159  -0.000535  0.85783  0.0
H  H12  1  0.41961203  0.68654990  0.51785867  1  0.651784  -0.00064  0.310872  0.396324  -0.000727  0.915889  0.0
H  H13  1  0.58041300  0.31343972  0.48215402  1  0.651782  -0.00064  0.310834  0.396226  -0.000727  0.916065  0.0
H  H14  1  0.45322270  0.67540216  0.77229141  1  0.087543  0.000369  0.104258  0.103912  0.00023  1.018898  0.0
H  H15  1  0.54674332  0.32457899  0.22771475  1  0.087352  0.000369  0.104282  0.103912  0.00023  1.018976  0.0
H  H16  1  0.07588483  0.29796691  0.66569998  1  0.094863  1.9e-05  0.095871  0.106785  -2e-06  1.065194  0.0
H  H17  1  0.92413555  0.70203971  0.33428527  1  0.093921  1.9e-05  0.095844  0.107597  -2e-06  1.064396  0.0
H  H18  1  0.11016661  0.60312424  0.64153856  1  0.08277  -4e-06  0.097582  0.110396  -1.2e-05  1.056694  0.0
H  H19  1  0.88985193  0.39688697  0.35843859  1  0.082665  -4e-06  0.097559  0.110326  -1.2e-05  1.056638  0.0
H  H20  1  0.31237001  0.91872093  0.77836764  1  0.152398  0.000267  0.112356  0.126635  0.000152  0.99599  0.0
H  H21  1  0.68765864  0.08127776  0.22163452  1  0.152193  0.000267  0.112295  0.12648  0.000152  0.996197  0.0
H  H22  1  0.38879170  0.70864450  0.03242646  1  0.091501  -2.3e-05  0.111768  0.122185  -3.7e-05  0.986286  0.0
H  H23  1  0.61116594  0.29134062  0.96757389  1  0.091569  -2.3e-05  0.111795  0.12212  -3.7e-05  0.986135  0.0
H  H24  1  0.77667614  0.37681568  0.01190629  1  0.044087  -1.2e-05  0.098924  0.108274  -2.2e-05  1.066758  0.0
H  H25  1  0.22328560  0.62316434  0.98808626  1  0.042192  -1.2e-05  0.098875  0.108295  -2.2e-05  1.066837  0.0
H  H26  1  0.64915870  0.68307976  0.84580391  1  0.050354  6e-05  0.097516  0.110814  3.6e-05  1.061022  0.0
H  H27  1  0.35079893  0.31689687  0.15421052  1  0.050024  6.1e-05  0.097478  0.11092  3.6e-05  1.060791  0.0
H  H28  1  0.92992777  0.74791223  0.70950766  1  0.083835  1.1e-05  0.107928  0.116976  -1.5e-05  0.976023  0.0
H  H29  1  0.07004555  0.25208799  0.29051301  1  0.083287  1.1e-05  0.107966  0.117174  -1.5e-05  0.975919  0.0
H  H30  1  0.81710906  0.76234532  0.79188635  1  0.048408  0.000398  0.094844  0.090892  0.000206  0.991908  0.0
H  H31  1  0.18285075  0.23764475  0.20813198  1  0.048767  0.000398  0.094871  0.090918  0.000206  0.991857  0.0
H  H32  1  0.77221705  0.71789701  0.70864879  1  0.084127  0.000194  0.098224  0.107109  0.000118  1.008254  0.0
H  H33  1  0.22775652  0.28210592  0.29135676  1  0.084224  0.000194  0.098207  0.10713  0.000118  1.008402  0.0
H  H34  1  0.25395084  0.98326607  0.95982426  1  0.606514  4e-06  0.341166  0.375867  3e-06  0.864234  0.0
H  H35  1  0.74607861  0.01674039  0.04017113  1  0.607006  4e-06  0.341156  0.375845  3e-06  0.864307  0.0
H  H36  1  0.26102504  0.60905921  0.73228044  1  0.032862  0.0  0.089606  0.085206  -2e-05  1.004143  0.0
H  H37  1  0.73896889  0.39095332  0.26771340  1  0.032801  0.0  0.089665  0.08532  -2e-05  1.004254  0.0
H  H38  1  0.25140148  0.56328350  0.85575865  1  0.061449  -5e-06  0.099741  0.110786  -1.1e-05  1.0303  0.0
H  H39  1  0.74857960  0.43672332  0.14423759  1  0.061098  -5e-06  0.099799  0.110899  -1.1e-05  1.030126  0.0
H  H40  1  0.11139287  0.59601812  0.79220146  1  0.077916  0.0  0.098572  0.101841  -1e-06  1.032053  0.0
H  H41  1  0.88858843  0.40398748  0.20778753  1  0.077905  0.0  0.098534  0.101726  -1e-06  1.032257  0.0
H  H42  1  0.09560110  0.38965462  0.93986883  1  0.128766  0.0  0.107477  0.119244  -2e-06  1.011929  0.0
H  H43  1  0.90436522  0.61034648  0.06013177  1  0.129052  0.0  0.107502  0.119213  -2e-06  1.012029  0.0
H  H44  1  0.94649143  0.34519773  0.94129361  1  0.044659  1e-06  0.097261  0.098408  -3e-06  0.982765  0.0
H  H45  1  0.05348631  0.65479557  0.05870839  1  0.044601  1e-06  0.097203  0.098212  -3e-06  0.982584  0.0
H  H46  1  0.98512863  0.38030765  0.03338792  1  0.045177  -0.0  0.096691  0.098336  -1e-06  1.014135  0.0
H  H47  1  0.01483998  0.61968383  0.96660983  1  0.04521  -0.0  0.096682  0.098299  -1e-06  1.014057  0.0
H  H48  1  0.21053852  0.21325385  0.77278750  1  0.05022  0.000396  0.095022  0.092741  0.000266  1.005693  0.0
H  H49  1  0.78945416  0.78675725  0.22722230  1  0.050321  0.000396  0.095033  0.092729  0.000266  1.005363  0.0
H  H50  1  0.05755905  0.22297747  0.82004047  1  0.030772  2.5e-05  0.101365  0.101408  -2e-06  0.983235  0.0
H  H51  1  0.94243566  0.77703499  0.17995979  1  0.030716  2.5e-05  0.101403  0.101379  -2e-06  0.983174  0.0
H  H52  1  0.18978203  0.19683570  0.89273503  1  0.061497  9e-06  0.107234  0.110686  -6e-06  0.974162  0.0
H  H53  1  0.81020014  0.80318776  0.10726650  1  0.061488  9e-06  0.107182  0.110642  -6e-06  0.974086  0.0
H  H54  1  0.81661830  0.68835751  0.51775761  1  0.087126  4e-06  0.106013  0.115669  -7.4e-05  0.997426  0.0
H  H55  1  0.18340135  0.31164854  0.48222081  1  0.086805  4e-06  0.106036  0.115674  -7.4e-05  0.997283  0.0
H  H56  1  0.02059937  0.91914161  0.46410747  1  0.117004  0.000368  0.112774  0.129256  0.000194  0.994106  0.0
H  H57  1  0.97941683  0.08085963  0.53590618  1  0.117134  0.000368  0.112831  0.129368  0.000194  0.994026  0.0
H  H58  1  0.53242053  0.97279393  0.38911655  1  0.608178  0.001284  0.311857  0.403729  0.001959  0.884246  0.002
H  H59  1  0.46761129  0.02722017  0.61088428  1  0.60882  0.001284  0.31179  0.403661  0.001961  0.884321  0.002
H  H60  1  0.62417045  0.75594896  0.37934816  1  0.626018  0.000375  0.333214  0.414287  0.000108  0.861734  0.0
H  H61  1  0.37585761  0.24406124  0.62066062  1  0.62619  0.000374  0.333138  0.414252  0.000108  0.861916  0.0
H  H62  1  0.50705809  0.81230956  0.33893123  1  0.639825  -1e-06  0.331126  0.415366  -7.1e-05  0.862794  0.0
H  H63  1  0.49297762  0.18770327  0.66106422  1  0.639464  -2e-06  0.331024  0.415253  -7.1e-05  0.862881  0.0
C  C64  1  0.12474586  0.72177366  0.46612015  1  -0.018832  0.002513  -0.07909  -0.134275  0.00134  3.920902  0.001
C  C65  1  0.87527151  0.27823615  0.53386974  1  -0.018569  0.002514  -0.079065  -0.134347  0.001341  3.921242  0.001
C  C66  1  0.05296528  0.51983452  0.57181700  1  -0.01058  3.9e-05  -0.016889  0.046808  1.5e-05  4.039275  0.0
C  C67  1  0.94705048  0.48017084  0.42816946  1  -0.009484  3.9e-05  -0.016622  0.046903  1.5e-05  4.039035  0.0
C  C68  1  0.00796107  0.58673786  0.49350642  1  -0.033408  0.000406  -0.018375  -0.051571  0.000212  3.960448  0.0
C  C69  1  0.99206106  0.41327262  0.50647735  1  -0.033176  0.000406  -0.018643  -0.051645  0.000212  3.961122  0.0
C  C70  1  0.04439642  0.43165189  0.57838294  1  0.052739  0.00017  -0.017097  0.04763  9.4e-05  4.038425  0.0
C  C71  1  0.95562217  0.56835673  0.42159646  1  0.052308  0.00017  -0.017361  0.047449  9.4e-05  4.038032  0.0
C  C72  1  0.39124560  0.83685355  0.66234423  1  1.559078  -0.002767  0.21845  0.603859  -0.004347  4.156643  -0.004
C  C73  1  0.60879129  0.16314372  0.33766536  1  1.559499  -0.002765  0.218598  0.603972  -0.004349  4.156415  -0.004
C  C74  1  0.38370064  0.80048772  0.76544802  1  0.030837  0.01452  -0.018411  -0.031307  0.008662  3.983878  0.011
C  C75  1  0.61631257  0.19950275  0.23455240  1  0.03018  0.014528  -0.018436  -0.031332  0.008667  3.98363  0.011
C  C76  1  0.58575045  0.55917229  0.93987113  1  -0.028373  4.3e-05  -0.01468  0.048878  1.8e-05  4.020402  0.0
C  C77  1  0.41421231  0.44080254  0.06012591  1  -0.000907  4.3e-05  -0.014345  0.049068  1.8e-05  4.020781  0.0
C  C78  1  0.42300567  0.71511659  0.81213330  1  -0.162112  -7.8e-05  -0.072999  -0.124104  -0.000618  3.919949  0.0
C  C79  1  0.57697303  0.28487215  0.18787489  1  -0.161713  -7.7e-05  -0.073049  -0.124022  -0.000616  3.919839  0.0
C  C80  1  0.46432338  0.58832921  0.95544058  1  -0.070973  0.000191  -0.01605  -0.048202  0.000104  3.943581  0.0
C  C81  1  0.53562902  0.41164891  0.04455672  1  -0.070327  0.000191  -0.016169  -0.048365  0.000104  3.943973  0.0
C  C82  1  0.01296105  0.67794641  0.48643290  1  0.020065  0.000464  -0.004271  0.091061  0.000126  4.017432  0.0
C  C83  1  0.98705451  0.32206539  0.51355179  1  0.019301  0.000464  -0.004167  0.090877  0.000126  4.017699  0.0
C  C84  1  0.08667506  0.36453848  0.65956829  1  -0.023038  0.000105  -0.129207  -0.294343  5.1e-05  4.050964  0.0
C  C85  1  0.91334168  0.63547146  0.34040873  1  -0.021943  0.000105  -0.129019  -0.294841  5.1e-05  4.050806  0.0
C  C86  1  0.10567855  0.53659762  0.64584928  1  -0.055436  2.9e-05  -0.125927  -0.283965  4e-06  4.028577  0.0
C  C87  1  0.89433343  0.46341100  0.35413474  1  -0.054987  2.9e-05  -0.125972  -0.283935  4e-06  4.028235  0.0
C  C88  1  0.62194665  0.46980693  0.98580826  1  0.025679  0.000109  -0.01423  0.043984  6.6e-05  4.027902  0.0
C  C89  1  0.37800329  0.53016090  0.01419166  1  -0.004041  0.000109  -0.014322  0.043964  6.6e-05  4.028124  0.0
C  C90  1  0.42485391  0.67993219  0.90834959  1  0.149454  0.000896  -0.002231  0.087283  0.000442  4.001372  0.001
C  C91  1  0.57510409  0.32006052  0.09166267  1  0.149025  0.000896  -0.002164  0.08722  0.000442  4.001621  0.001
C  C92  1  0.34371827  0.85250865  0.81511915  1  -0.113765  -0.000422  -0.074429  -0.101328  -0.000946  3.91329  0.0
C  C93  1  0.65629112  0.14747921  0.18488939  1  -0.112697  -0.000422  -0.074446  -0.101285  -0.000945  3.913689  0.0
C  C94  1  0.14904309  0.47094033  0.72212384  1  0.495658  6.7e-05  0.075872  0.168179  3.9e-05  4.073453  0.0
C  C95  1  0.85096028  0.52907218  0.27786404  1  0.495497  6.7e-05  0.075885  0.168133  3.9e-05  4.073018  0.0
C  C96  1  0.38708258  0.73315142  0.95751703  1  -0.066344  -0.001744  -0.069565  -0.123873  -0.00209  3.89391  -0.001
C  C97  1  0.61288334  0.26682446  0.04250201  1  -0.065506  -0.001744  -0.069662  -0.1239  -0.002089  3.893798  -0.001
C  C98  1  0.13737199  0.38255762  0.72972705  1  0.422773  2.3e-05  0.072438  0.158745  1e-05  4.074124  0.0
C  C99  1  0.86263234  0.61745621  0.27025711  1  0.422623  2.3e-05  0.072264  0.158747  1e-05  4.074458  0.0
C  C100  1  0.74762487  0.44319380  0.97424778  1  -0.01073  3e-06  -0.123681  -0.2871  -6e-06  4.047477  0.0
C  C101  1  0.25232004  0.55678565  0.02574981  1  -0.007631  3e-06  -0.12376  -0.287475  -6e-06  4.047607  0.0
C  C102  1  0.67591487  0.61570521  0.88103687  1  0.072645  -9e-06  -0.125112  -0.285875  -3.5e-05  4.028153  0.0
C  C103  1  0.32405113  0.38427984  0.11896397  1  0.072445  -9e-06  -0.125451  -0.286419  -3.5e-05  4.027909  0.0
C  C104  1  0.30721882  0.87146712  0.96770946  1  1.434035  0.000153  0.223103  0.568195  8.1e-05  4.137566  0.0
C  C105  1  0.69278152  0.12851894  0.03229224  1  1.435062  0.000153  0.223101  0.568186  8.1e-05  4.138265  0.0
C  C106  1  0.79502249  0.58725450  0.86874734  1  0.416117  2.6e-05  0.075991  0.161742  2e-06  4.077739  0.0
C  C107  1  0.20493588  0.41273444  0.13125540  1  0.416973  2.6e-05  0.076107  0.161964  2e-06  4.077399  0.0
C  C108  1  0.83311958  0.49920842  0.91868558  1  0.515713  -0.0  0.079025  0.167784  -2e-06  4.077086  0.0
C  C109  1  0.16683238  0.50077801  0.08131696  1  0.514585  -0.0  0.078949  0.16786  -2e-06  4.077525  0.0
C  C110  1  0.84763968  0.72109982  0.75261391  1  0.342383  0.000361  -0.138309  -0.173498  0.000266  3.910474  0.0
C  C111  1  0.15233213  0.27889273  0.24740390  1  0.342156  0.000361  -0.138539  -0.174048  0.000266  3.910799  0.0
C  C112  1  0.20626400  0.56829565  0.79256112  1  0.388395  -1.2e-05  -0.143019  -0.173436  -2.3e-05  3.889196  0.0
C  C113  1  0.79372290  0.43170666  0.20743220  1  0.388897  -1.2e-05  -0.143164  -0.173664  -2.3e-05  3.888997  0.0
C  C114  1  0.99711143  0.39284272  0.95920150  1  0.349573  0.0  -0.139915  -0.17631  -3e-06  3.880269  0.0
C  C115  1  0.00286289  0.60713833  0.04080773  1  0.349825  0.0  -0.139936  -0.176152  -3e-06  3.880435  0.0
C  C116  1  0.34622491  0.81874569  0.91138340  1  0.047028  0.000856  -0.023223  -0.05089  0.000413  4.019025  0.001
C  C117  1  0.65376077  0.18122688  0.08863070  1  0.046063  0.000856  -0.023199  -0.050773  0.000413  4.019192  0.001
C  C118  1  0.15712801  0.23402955  0.82367687  1  0.42045  0.00017  -0.134063  -0.169588  0.000112  3.931374  0.0
C  C119  1  0.84285948  0.76597588  0.17632554  1  0.420883  0.00017  -0.134064  -0.169549  0.000112  3.931307  0.0
C  C120  1  0.90414201  0.72192090  0.49968160  1  -0.055851  0.002168  -0.076906  -0.132611  0.001216  3.910945  0.001
C  C121  1  0.09586741  0.27808196  0.50030207  1  -0.055213  0.002169  -0.076979  -0.132535  0.001216  3.910637  0.001
C  C122  1  0.90621519  0.80877681  0.49041596  1  -0.056404  0.008409  -0.02299  -0.040792  0.004892  4.012998  0.006
C  C123  1  0.09379031  0.19122471  0.50957792  1  -0.056445  0.00841  -0.023016  -0.040675  0.004892  4.013243  0.006
C  C124  1  0.01833608  0.85207723  0.46961322  1  -0.003913  0.003135  -0.072456  -0.097184  0.001636  3.911755  0.002
C  C125  1  0.98167945  0.14792543  0.53038708  1  -0.004444  0.003135  -0.072503  -0.097584  0.001636  3.912053  0.002
C  C126  1  0.12835372  0.80818726  0.45876947  1  -0.053002  0.01047  -0.023193  -0.041173  0.006082  3.993213  0.008
C  C127  1  0.87166919  0.19181988  0.54122644  1  -0.052388  0.010471  -0.023154  -0.040658  0.006083  3.992851  0.008
C  C128  1  0.78912577  0.85406483  0.50586922  1  1.499515  0.002229  0.212492  0.574243  0.001268  4.172593  0.001
C  C129  1  0.21089145  0.14594232  0.49413129  1  1.499292  0.002225  0.212505  0.574272  0.001265  4.172539  0.001
C  C130  1  0.24960817  0.85256577  0.44561465  1  1.568022  0.006299  0.217401  0.608629  0.004709  4.159575  0.004
C  C131  1  0.75041720  0.14744383  0.55439119  1  1.568401  0.006305  0.217314  0.608676  0.004712  4.159462  0.004
O  O132  1  0.34235615  0.91109303  0.62274113  1  -1.141218  0.071597  -0.301334  -0.535236  0.038852  2.343377  0.066
O  O133  1  0.65771590  0.08890977  0.37726696  1  -1.141399  0.071618  -0.301416  -0.535312  0.038862  2.343272  0.066
O  O134  1  0.63991020  0.90821982  0.64775464  1  -1.21062  0.058445  -0.558619  -0.732296  0.032442  2.092947  0.049
O  O135  1  0.36011977  0.09179169  0.35224976  1  -1.210774  0.058453  -0.558486  -0.732065  0.032446  2.093524  0.049
O  O136  1  0.50843853  0.67637957  0.53157090  1  -1.217105  0.043511  -0.56414  -0.739163  0.024152  2.005396  0.036
O  O137  1  0.49159105  0.32362238  0.46842618  1  -1.217298  0.043513  -0.564218  -0.739154  0.024151  2.005427  0.036
O  O138  1  0.88522876  0.63673390  0.81244849  1  -1.068202  0.000142  -0.182437  -0.149118  4.4e-05  2.609673  0.0
O  O139  1  0.11472480  0.36325371  0.18756319  1  -1.068644  0.000142  -0.182145  -0.148734  4.4e-05  2.609725  0.0
O  O140  1  0.20275557  0.48180852  0.79422901  1  -1.062445  3e-05  -0.18087  -0.139708  1.7e-05  2.594689  0.0
O  O141  1  0.79723950  0.51820212  0.20575910  1  -1.062451  3e-05  -0.180837  -0.139607  1.7e-05  2.594224  0.0
O  O142  1  0.95461459  0.47883539  0.90664434  1  -1.054993  0.0  -0.176256  -0.133769  -0.0  2.598208  0.0
O  O143  1  0.04535385  0.52116058  0.09335365  1  -1.055269  0.0  -0.176103  -0.133564  -0.0  2.598916  0.0
O  O144  1  0.34930882  0.80651402  0.44579110  1  -1.17488  0.069269  -0.331465  -0.621664  0.037403  2.357813  0.062
O  O145  1  0.65071753  0.19349364  0.55421545  1  -1.174802  0.06928  -0.331254  -0.62163  0.037405  2.357737  0.062
O  O146  1  0.17735490  0.32211115  0.81003791  1  -1.071899  5.8e-05  -0.18586  -0.148713  2.1e-05  2.590325  0.0
O  O147  1  0.82263507  0.67790457  0.18996123  1  -1.072694  5.8e-05  -0.185722  -0.14871  2.1e-05  2.590898  0.0
O  O148  1  0.27730881  0.95533970  0.91558849  1  -1.110693  5.2e-05  -0.344192  -0.490478  1.2e-05  2.213423  0.0
O  O149  1  0.72269122  0.04465929  0.08440516  1  -1.11106  5.2e-05  -0.34409  -0.490289  1.2e-05  2.214027  0.0
O  O150  1  0.30133808  0.84521527  0.05192580  1  -1.11162  0.000253  -0.312917  -0.507087  0.000136  2.047539  0.0
O  O151  1  0.69866187  0.15477977  0.94807767  1  -1.112728  0.000253  -0.312924  -0.507166  0.000136  2.047774  0.0
O  O152  1  0.44997020  0.78952368  0.62384973  1  -1.150212  0.078932  -0.323793  -0.585525  0.042419  2.387192  0.073
O  O153  1  0.55004660  0.21046867  0.37615312  1  -1.150517  0.078926  -0.32382  -0.585608  0.042418  2.38734  0.073
O  O154  1  0.51895183  0.94492824  0.45542836  1  -1.133605  0.226137  -0.558597  -0.869539  0.126635  2.447789  0.204
O  O155  1  0.48108354  0.05509033  0.54457200  1  -1.133895  0.226129  -0.558507  -0.86953  0.126638  2.448065  0.204
O  O156  1  0.24518372  0.93109552  0.43797146  1  -1.158606  0.05483  -0.312706  -0.563489  0.029255  2.350498  0.048
O  O157  1  0.75485098  0.06891142  0.56203647  1  -1.158789  0.05483  -0.312879  -0.563694  0.029263  2.350456  0.048
O  O158  1  0.78947629  0.93521664  0.48261926  1  -1.087553  0.068021  -0.297087  -0.517383  0.037358  2.314827  0.062
O  O159  1  0.21055273  0.06479030  0.51739329  1  -1.087225  0.068008  -0.29696  -0.517351  0.037352  2.314673  0.062
O  O160  1  0.69665275  0.80557686  0.54600042  1  -1.179144  0.046856  -0.333946  -0.616985  0.024659  2.368717  0.041
O  O161  1  0.30335421  0.19443231  0.45399826  1  -1.17912  0.046861  -0.333975  -0.616943  0.024662  2.36873  0.041
O  O162  1  0.58928416  0.81467332  0.36207573  1  -1.196997  0.045423  -0.547698  -0.718675  0.025208  2.01548  0.037
O  O163  1  0.41074568  0.18533944  0.63793205  1  -1.196767  0.045423  -0.547537  -0.718554  0.025207  2.015572  0.037
