# generated using pymatgen
data_ZnH20C30N2O5
_symmetry_space_group_name_H-M   'P 1'
_cell_length_a   8.70653410
_cell_length_b   10.95025596
_cell_length_c   14.73440000
_cell_angle_alpha   109.84786119
_cell_angle_beta   105.15004040
_cell_angle_gamma   95.52937033
_symmetry_Int_Tables_number   1
_chemical_formula_structural   ZnH20C30N2O5
_chemical_formula_sum   'Zn2 H40 C60 N4 O10'
_cell_volume   1248.60656381
_cell_formula_units_Z   2
loop_
 _symmetry_equiv_pos_site_id
 _symmetry_equiv_pos_as_xyz
  1  'x, y, z'
loop_
 _atom_site_type_symbol
 _atom_site_label
 _atom_site_symmetry_multiplicity
 _atom_site_fract_x
 _atom_site_fract_y
 _atom_site_fract_z
 _atom_site_occupancy
 _atom_site_hle17_bader_spin_density
 _atom_site_hle17_ddec_charge
 _atom_site_hle17_ddec_spin_density
 _atom_site_hle17_ddec_sum_bond_order
 _atom_site_hle17_magmom
 _atom_site_hse06_10hf_bader_spin_density
 _atom_site_hse06_10hf_ddec_charge
 _atom_site_hse06_10hf_ddec_spin_density
 _atom_site_hse06_10hf_ddec_sum_bond_order
 _atom_site_hse06_10hf_magmom
 _atom_site_hse06_bader_spin_density
 _atom_site_hse06_ddec_charge
 _atom_site_hse06_ddec_spin_density
 _atom_site_hse06_ddec_sum_bond_order
 _atom_site_hse06_magmom
 _atom_site_pbe_bader_charge
 _atom_site_pbe_bader_spin_density
 _atom_site_pbe_cm5_charge
 _atom_site_pbe_ddec_charge
 _atom_site_pbe_ddec_spin_density
 _atom_site_pbe_ddec_sum_bond_order
 _atom_site_pbe_magmom
Zn  Zn0  1  0.63287667  0.88177105  0.76388110  1  0  0.972405  0  1.785259  0  0  0.781323  0  2.228854  0  0  0.834127  0  2.17568  0  1.259994  0  0.679372  0.744531  0  2.265156  0
Zn  Zn1  1  0.36712253  0.11823003  0.23611932  1  0  0.972382  0  1.785244  0  0  0.781288  0  2.22884  0  0  0.834091  0  2.175666  0  1.260009  0  0.679361  0.744495  0  2.265143  0
H  H2  1  0.44935250  0.07856614  0.53328265  1  0  0.103276  0  0.965028  0  0  0.110161  0  1.031288  0  0  0.113795  0  1.027941  0  0.101759  0  0.1032  0.107484  0  1.033803  0
H  H3  1  0.58350937  0.45505524  0.53349801  1  0  0.102483  0  0.964682  0  0  0.10976  0  1.030642  0  0  0.113388  0  1.027297  0  0.113152  0  0.103304  0.107097  0  1.033136  0
H  H4  1  0.55064645  0.92143394  0.46671544  1  0  0.103279  0  0.9651  0  0  0.110165  0  1.03136  0  0  0.113794  0  1.028014  0  0.101886  0  0.103213  0.107489  0  1.033875  0
H  H5  1  0.41649102  0.54494584  0.46650395  1  0  0.102493  0  0.964679  0  0  0.109769  0  1.030636  0  0  0.113398  0  1.02729  0  0.112988  0  0.103317  0.107106  0  1.033129  0
H  H6  1  0.26013118  0.18516228  0.44258202  1  0  0.126721  0  0.955263  0  0  0.136051  0  1.015192  0  0  0.139685  0  1.013471  0  0.116655  0  0.107471  0.133425  0  1.016577  0
H  H7  1  0.68206933  0.25873808  0.44303585  1  0  0.127855  0  0.952595  0  0  0.136451  0  1.01317  0  0  0.140107  0  1.011441  0  0.130028  0  0.107859  0.13382  0  1.014574  0
H  H8  1  0.73986897  0.81483780  0.55741558  1  0  0.126729  0  0.955212  0  0  0.136072  0  1.015122  0  0  0.139695  0  1.013414  0  0.116569  0  0.107467  0.133444  0  1.016505  0
H  H9  1  0.31792963  0.74126201  0.55696428  1  0  0.127839  0  0.95261  0  0  0.136457  0  1.013162  0  0  0.140113  0  1.011434  0  0.130028  0  0.107863  0.133829  0  1.014561  0
H  H10  1  0.95467898  0.17689728  0.62879103  1  0  0.103931  0  0.956599  0  0  0.115538  0  1.015968  0  0  0.118362  0  1.015674  0  0.062878  0  0.102528  0.113578  0  1.01623  0
H  H11  1  0.17445984  0.45238056  0.62907105  1  0  0.103423  0  0.956853  0  0  0.115803  0  1.015416  0  0  0.118656  0  1.01504  0  0.086514  0  0.102172  0.113833  0  1.015685  0
H  H12  1  0.04532211  0.82310181  0.37120579  1  0  0.10392  0  0.956552  0  0  0.115504  0  1.015962  0  0  0.118346  0  1.015615  0  0.062926  0  0.102534  0.113548  0  1.016218  0
H  H13  1  0.82554005  0.54761853  0.37092829  1  0  0.10342  0  0.956851  0  0  0.1158  0  1.015413  0  0  0.118653  0  1.015038  0  0.086515  0  0.102172  0.113831  0  1.015679  0
H  H14  1  0.14863871  0.07122740  0.72224262  1  0  0.10088  0  0.944206  0  0  0.110186  0  1.004496  0  0  0.114069  0  1.001352  0  0.103792  0  0.102462  0.107334  0  1.006916  0
H  H15  1  0.07409773  0.65065737  0.72210373  1  0  0.101345  0  0.942428  0  0  0.110232  0  1.003606  0  0  0.114114  0  1.000445  0  0.118918  0  0.101923  0.107394  0  1.006021  0
H  H16  1  0.85135668  0.92877268  0.27775425  1  0  0.100936  0  0.944098  0  0  0.110222  0  1.004407  0  0  0.114101  0  1.001267  0  0.103682  0  0.102514  0.107369  0  1.006826  0
H  H17  1  0.92590361  0.34934272  0.27789677  1  0  0.101363  0  0.942426  0  0  0.110253  0  1.003597  0  0  0.114135  0  1.000437  0  0.118928  0  0.101928  0.107416  0  1.006012  0
H  H18  1  0.78411419  0.10180018  0.72516754  1  0  0.08962  0  0.940738  0  0  0.09947  0  0.999379  0  0  0.101999  0  0.997451  0  0.160148  0  0.121252  0.097482  0  1.000945  0
H  H19  1  0.44137989  0.62431428  0.72524097  1  0  0.089729  0  0.941339  0  0  0.100042  0  0.999766  0  0  0.102562  0  0.997846  0  0.132027  0  0.121398  0.098112  0  1.001248  0
H  H20  1  0.21588596  0.89819990  0.27483278  1  0  0.089602  0  0.940737  0  0  0.099451  0  0.999383  0  0  0.101978  0  0.997457  0  0.160179  0  0.121248  0.097464  0  1.000946  0
H  H21  1  0.55861956  0.37568779  0.27475974  1  0  0.089721  0  0.941397  0  0  0.10003  0  0.999828  0  0  0.102552  0  0.997906  0  0.131991  0  0.121393  0.0981  0  1.001311  0
H  H22  1  0.99071805  0.30990791  0.81433716  1  0  0.100189  0  0.961364  0  0  0.112859  0  1.018594  0  0  0.115726  0  1.018011  0  0.065946  0  0.106715  0.110742  0  1.019316  0
H  H23  1  0.32359012  0.50524922  0.81462491  1  0  0.100602  0  0.961585  0  0  0.113345  0  1.018717  0  0  0.116327  0  1.017974  0  0.094813  0  0.107357  0.111128  0  1.019557  0
H  H24  1  0.00928472  0.69009316  0.18566381  1  0  0.100211  0  0.961339  0  0  0.112888  0  1.018557  0  0  0.115754  0  1.017979  0  0.065962  0  0.106733  0.11077  0  1.01928  0
H  H25  1  0.67640908  0.49475185  0.18537483  1  0  0.100608  0  0.961621  0  0  0.113373  0  1.018721  0  0  0.116337  0  1.018001  0  0.094792  0  0.107349  0.111154  0  1.019562  0
H  H26  1  0.05209232  0.23332720  0.09119429  1  0  0.129501  0  0.999529  0  0  0.135705  0  1.064109  0  0  0.140126  0  1.061436  0  0.175889  0  0.107354  0.132556  0  1.066162  0
H  H27  1  0.53814421  0.85743223  0.09075930  1  0  0.129731  0  0.999116  0  0  0.136549  0  1.062929  0  0  0.140945  0  1.060284  0  0.145136  0  0.107934  0.133396  0  1.064968  0
H  H28  1  0.94790902  0.76667288  0.90880620  1  0  0.12952  0  0.99952  0  0  0.135727  0  1.064093  0  0  0.140148  0  1.061419  0  0.175896  0  0.107368  0.132577  0  1.066146  0
H  H29  1  0.46185832  0.14256786  0.90924206  1  0  0.129714  0  0.999148  0  0  0.136517  0  1.062976  0  0  0.140922  0  1.06032  0  0.145249  0  0.107916  0.133368  0  1.065018  0
H  H30  1  0.85201988  0.02842273  0.98909799  1  0  0.068988  0  0.959841  0  0  0.080465  0  1.020526  0  0  0.082386  0  1.019058  0  0.074668  0  0.115965  0.078996  0  1.021786  0
H  H31  1  0.63638551  0.96043636  0.98843396  1  0  0.068914  0  0.959707  0  0  0.079937  0  1.021104  0  0  0.081824  0  1.019649  0  0.090539  0  0.116305  0.078475  0  1.022355  0
H  H32  1  0.14798026  0.97157735  0.01090233  1  0  0.068994  0  0.959847  0  0  0.080473  0  1.02053  0  0  0.082394  0  1.019063  0  0.074672  0  0.115961  0.079004  0  1.02179  0
H  H33  1  0.36361607  0.03956472  0.01156750  1  0  0.068924  0  0.959726  0  0  0.079939  0  1.021128  0  0  0.081826  0  1.019675  0  0.090603  0  0.116304  0.078478  0  1.022376  0
H  H34  1  0.19312608  0.44346995  0.88646771  1  0  0.087823  0  0.978051  0  0  0.101116  0  1.038223  0  0  0.104097  0  1.036091  0  0.022159  0  0.102206  0.099028  0  1.039828  0
H  H35  1  0.80687525  0.55653013  0.11353347  1  0  0.087816  0  0.978016  0  0  0.101084  0  1.038223  0  0  0.104069  0  1.036081  0  0.022136  0  0.102198  0.099  0  1.039825  0
H  H36  1  0.16727230  0.42770456  0.17021715  1  0  0.096268  0  0.976476  0  0  0.105434  0  1.041509  0  0  0.107416  0  1.041464  0  0.086783  0  0.103649  0.103965  0  1.041558  0
H  H37  1  0.50205235  0.74188381  0.17007717  1  0  0.096429  0  0.975504  0  0  0.105632  0  1.040411  0  0  0.107622  0  1.040393  0  0.08002  0  0.103951  0.104153  0  1.04048  0
H  H38  1  0.83272784  0.57229552  0.82978384  1  0  0.096215  0  0.976505  0  0  0.105385  0  1.041536  0  0  0.107366  0  1.041499  0  0.086778  0  0.103628  0.103915  0  1.041586  0
H  H39  1  0.49794779  0.25811627  0.82992382  1  0  0.096418  0  0.975534  0  0  0.105622  0  1.040438  0  0  0.107611  0  1.040419  0  0.080021  0  0.103953  0.104143  0  1.040507  0
H  H40  1  0.38091590  0.63086955  0.26272400  1  0  0.096112  0  0.937356  0  0  0.108926  0  0.990659  0  0  0.110986  0  0.991218  0  0.076634  0  0.106018  0.107451  0  0.990339  0
H  H41  1  0.61908305  0.36913053  0.73727545  1  0  0.096115  0  0.937356  0  0  0.108925  0  0.990663  0  0  0.110985  0  0.991221  0  0.07664  0  0.106013  0.107449  0  0.990344  0
C  C42  1  0.34163880  0.10003095  0.55495155  1  0  -0.046784  0  3.736432  0  0  -0.069549  0  3.984275  0  0  -0.066782  0  4.002941  0  -0.05529  0  -0.082939  -0.071019  0  3.97145  0
C  C43  1  0.71306950  0.45538151  0.55520967  1  0  -0.045674  0  3.733232  0  0  -0.068886  0  3.980747  0  0  -0.066106  0  3.999372  0  -0.049421  0  -0.083404  -0.070365  0  3.967946  0
C  C44  1  0.65835728  0.89996715  0.44504764  1  0  -0.046781  0  3.736417  0  0  -0.069545  0  3.984264  0  0  -0.066768  0  4.002916  0  -0.05536  0  -0.082949  -0.071015  0  3.97144  0
C  C45  1  0.28693064  0.54461857  0.44479132  1  0  -0.045691  0  3.733146  0  0  -0.068886  0  3.980648  0  0  -0.066107  0  3.999272  0  -0.049472  0  -0.083398  -0.070364  0  3.967846  0
C  C46  1  0.23545171  0.15939042  0.50327652  1  0  -0.175972  0  3.722727  0  0  -0.196635  0  3.97243  0  0  -0.202916  0  3.991364  0  0.003159  0  -0.099474  -0.192457  0  3.959603  0
C  C47  1  0.76751361  0.34487104  0.50364599  1  0  -0.177454  0  3.717099  0  0  -0.197135  0  3.967832  0  0  -0.203406  0  3.986647  0  0.010617  0  -0.099698  -0.192989  0  3.955095  0
C  C48  1  0.76454437  0.84060768  0.49671995  1  0  -0.175982  0  3.722664  0  0  -0.196612  0  3.972391  0  0  -0.202882  0  3.991323  0  0.003348  0  -0.099445  -0.192428  0  3.959559  0
C  C49  1  0.23248559  0.65513003  0.49635375  1  0  -0.177426  0  3.717098  0  0  -0.197144  0  3.967827  0  0  -0.203417  0  3.986646  0  0.010622  0  -0.099696  -0.192999  0  3.955092  0
C  C50  1  0.09760812  0.18695135  0.53134718  1  0  0.279541  0  3.79987  0  0  0.270906  0  4.060144  0  0  0.282339  0  4.076143  0  0.368694  0  0.08619  0.263082  0  4.049088  0
C  C51  1  0.93367253  0.34548492  0.53159050  1  0  0.283562  0  3.792442  0  0  0.273347  0  4.054879  0  0  0.28478  0  4.070876  0  0.349576  0  0.087543  0.265524  0  4.043818  0
C  C52  1  0.90238915  0.81304675  0.46864880  1  0  0.279574  0  3.799616  0  0  0.270812  0  4.060065  0  0  0.282241  0  4.076064  0  0.368291  0  0.086161  0.262987  0  4.049009  0
C  C53  1  0.06632761  0.65451516  0.46840846  1  0  0.28357  0  3.792472  0  0  0.273386  0  4.054872  0  0  0.284817  0  4.070874  0  0.349611  0  0.087571  0.265563  0  4.043813  0
C  C54  1  0.06568614  0.15716202  0.61070642  1  0  -0.202806  0  3.790085  0  0  -0.223566  0  4.045882  0  0  -0.23111  0  4.068136  0  -0.001023  0  -0.107883  -0.218515  0  4.030653  0
C  C55  1  0.04521114  0.45401988  0.61091546  1  0  -0.205654  0  3.788859  0  0  -0.226546  0  4.045167  0  0  -0.234102  0  4.067418  0  -0.036812  0  -0.108219  -0.22147  0  4.029941  0
C  C56  1  0.93431163  0.84283806  0.38929014  1  0  -0.202827  0  3.789968  0  0  -0.223529  0  4.045799  0  0  -0.231066  0  4.068065  0  -0.000753  0  -0.107892  -0.21848  0  4.030571  0
C  C57  1  0.95478851  0.54597822  0.38908292  1  0  -0.205625  0  3.788808  0  0  -0.226524  0  4.045104  0  0  -0.234082  0  4.067359  0  -0.03692  0  -0.108219  -0.221449  0  4.029879  0
C  C58  1  0.17269145  0.09855329  0.66195747  1  0  -0.046887  0  3.757929  0  0  -0.071453  0  4.01017  0  0  -0.068288  0  4.028271  0  -0.039205  0  -0.08584  -0.073222  0  3.997662  0
C  C59  1  0.98950629  0.56341169  0.66202199  1  0  -0.045405  0  3.755039  0  0  -0.069976  0  4.007667  0  0  -0.066768  0  4.025737  0  -0.026448  0  -0.086052  -0.071787  0  3.995191  0
C  C60  1  0.82730582  0.90144481  0.33803986  1  0  -0.046913  0  3.757916  0  0  -0.071448  0  4.010148  0  0  -0.068282  0  4.028252  0  -0.038935  0  -0.08586  -0.073218  0  3.997645  0
C  C61  1  0.01049505  0.43658840  0.33797783  1  0  -0.045522  0  3.755007  0  0  -0.070097  0  4.00765  0  0  -0.066891  0  4.025722  0  -0.026363  0  -0.086097  -0.071907  0  3.995174  0
C  C62  1  0.31143259  0.06881256  0.63431493  1  0  -0.09029  0  3.786158  0  0  -0.070217  0  4.023947  0  0  -0.080222  0  4.047644  0  -0.037955  0  -0.032059  -0.063822  0  4.007897  0
C  C63  1  0.82290679  0.56551116  0.63439207  1  0  -0.090905  0  3.784858  0  0  -0.070362  0  4.022172  0  0  -0.08038  0  4.045876  0  -0.054653  0  -0.030271  -0.063963  0  4.006125  0
C  C64  1  0.68856636  0.93118752  0.36568316  1  0  -0.090313  0  3.78604  0  0  -0.070274  0  4.023869  0  0  -0.08028  0  4.047562  0  -0.038003  0  -0.03212  -0.063884  0  4.007826  0
C  C65  1  0.17709361  0.43448991  0.36560921  1  0  -0.090783  0  3.784738  0  0  -0.07025  0  4.02205  0  0  -0.080266  0  4.045753  0  -0.054664  0  -0.030259  -0.063852  0  4.006003  0
C  C66  1  0.42168072  0.00262310  0.68879412  1  0  0.61762  0  3.941554  0  0  0.569441  0  4.235617  0  0  0.603798  0  4.228871  0  1.528326  0  0.190389  0.546117  0  4.239475  0
C  C67  1  0.76684863  0.68564926  0.68835298  1  0  0.617142  0  3.939492  0  0  0.568893  0  4.233499  0  0  0.603211  0  4.226815  0  1.52294  0  0.190259  0.545593  0  4.237288  0
C  C68  1  0.57831824  0.99737698  0.31120465  1  0  0.617599  0  3.941642  0  0  0.569436  0  4.23568  0  0  0.603793  0  4.228934  0  1.528011  0  0.190398  0.546112  0  4.239537  0
C  C69  1  0.23315270  0.31435082  0.31164956  1  0  0.616869  0  3.939739  0  0  0.568616  0  4.233773  0  0  0.602934  0  4.227091  0  1.522954  0  0.19009  0.545317  0  4.237559  0
C  C70  1  0.84905350  0.13490681  0.80614547  1  0  0.132385  0  3.699261  0  0  0.102105  0  3.94576  0  0  0.109302  0  3.964258  0  0.436944  0  0.048627  0.097596  0  3.93301  0
C  C71  1  0.45718115  0.67183061  0.80611391  1  0  0.132528  0  3.697358  0  0  0.101319  0  3.944397  0  0  0.108548  0  3.962894  0  0.469109  0  0.048949  0.096755  0  3.931635  0
C  C72  1  0.15094689  0.86509426  0.19385514  1  0  0.132438  0  3.699211  0  0  0.102146  0  3.945716  0  0  0.109343  0  3.964218  0  0.436939  0  0.048629  0.097636  0  3.932968  0
C  C73  1  0.54281830  0.32817145  0.19388747  1  0  0.132541  0  3.697393  0  0  0.101325  0  3.944432  0  0  0.108554  0  3.962923  0  0.469019  0  0.048956  0.09676  0  3.93167  0
C  C74  1  0.96505646  0.25180198  0.85757668  1  0  -0.159359  0  3.719739  0  0  -0.176517  0  3.965434  0  0  -0.184749  0  3.987315  0  -0.003473  0  -0.080069  -0.171204  0  3.950701  0
C  C75  1  0.39227962  0.60635718  0.85761714  1  0  -0.158898  0  3.719817  0  0  -0.176038  0  3.965547  0  0  -0.184372  0  3.987422  0  0.02608  0  -0.080677  -0.170637  0  3.950861  0
C  C76  1  0.03494343  0.74819711  0.14242334  1  0  -0.159442  0  3.719752  0  0  -0.176606  0  3.965446  0  0  -0.184841  0  3.987331  0  -0.003296  0  -0.080107  -0.171293  0  3.950713  0
C  C77  1  0.60771983  0.39364488  0.14238425  1  0  -0.158883  0  3.719846  0  0  -0.176033  0  3.965543  0  0  -0.184355  0  3.987422  0  0.026092  0  -0.080648  -0.170631  0  3.950855  0
C  C78  1  0.04269379  0.29450351  0.96270450  1  0  0.110476  0  3.744049  0  0  0.119706  0  3.975504  0  0  0.125763  0  3.997381  0  -0.047052  0  0.015911  0.115868  0  3.960794  0
C  C79  1  0.41951279  0.66838141  0.96260719  1  0  0.109434  0  3.747451  0  0  0.118929  0  3.977983  0  0  0.124955  0  3.999916  0  -0.115084  0  0.016268  0.1151  0  3.96323  0
C  C80  1  0.95730873  0.70549657  0.03729686  1  0  0.110544  0  3.744012  0  0  0.119791  0  3.975438  0  0  0.125849  0  3.997316  0  -0.047323  0  0.01595  0.115954  0  3.960729  0
C  C81  1  0.58048973  0.33161867  0.03739485  1  0  0.109398  0  3.747513  0  0  0.118924  0  3.977999  0  0  0.124954  0  3.999928  0  -0.115041  0  0.016257  0.115096  0  3.963247  0
C  C82  1  0.99796168  0.21131794  0.01020245  1  0  -0.167476  0  3.673492  0  0  -0.18461  0  3.920375  0  0  -0.193074  0  3.940514  0  0.037813  0  -0.084974  -0.179629  0  3.907496  0
C  C83  1  0.51149554  0.79878084  0.00987473  1  0  -0.16773  0  3.676378  0  0  -0.185576  0  3.922957  0  0  -0.194016  0  3.943084  0  0.002513  0  -0.085369  -0.180576  0  3.910065  0
C  C84  1  0.00203847  0.78868215  0.98979786  1  0  -0.167464  0  3.673465  0  0  -0.184602  0  3.920336  0  0  -0.193064  0  3.940473  0  0.03782  0  -0.084972  -0.17962  0  3.907456  0
C  C85  1  0.48850604  0.20122023  0.99012673  1  0  -0.167742  0  3.676461  0  0  -0.185579  0  3.923021  0  0  -0.194026  0  3.94314  0  0.002401  0  -0.085377  -0.180587  0  3.910134  0
C  C86  1  0.88285131  0.09487102  0.95295678  1  0  0.132358  0  3.711707  0  0  0.099996  0  3.963673  0  0  0.107179  0  3.98239  0  0.405415  0  0.046674  0.095386  0  3.951231  0
C  C87  1  0.56959328  0.85808279  0.95256833  1  0  0.132517  0  3.70856  0  0  0.100407  0  3.960664  0  0  0.107656  0  3.979286  0  0.450196  0  0.046063  0.095767  0  3.948254  0
C  C88  1  0.11714884  0.90512906  0.04704285  1  0  0.132289  0  3.711733  0  0  0.099922  0  3.9637  0  0  0.107104  0  3.982416  0  0.405411  0  0.046656  0.095312  0  3.951258  0
C  C89  1  0.43040686  0.14191729  0.04743266  1  0  0.132477  0  3.708651  0  0  0.10037  0  3.960743  0  0  0.107619  0  3.979366  0  0.450225  0  0.046022  0.09573  0  3.948333  0
C  C90  1  0.16631483  0.41895758  0.02048395  1  0  0.038585  0  3.775859  0  0  0.055663  0  4.011025  0  0  0.053448  0  4.035079  0  -0.120191  0  -0.008247  0.057141  0  3.994755  0
C  C91  1  0.35351684  0.60151857  0.02042517  1  0  0.039492  0  3.775301  0  0  0.057182  0  4.009542  0  0  0.055028  0  4.03354  0  0.033062  0  -0.006796  0.058634  0  3.9933  0
C  C92  1  0.83368650  0.58104250  0.97951723  1  0  0.038482  0  3.775591  0  0  0.055566  0  4.010749  0  0  0.053351  0  4.034804  0  -0.120117  0  -0.008296  0.057038  0  3.994492  0
C  C93  1  0.64648355  0.39848250  0.97957611  1  0  0.039528  0  3.775264  0  0  0.057193  0  4.009516  0  0  0.055032  0  4.033524  0  0.033014  0  -0.006793  0.058645  0  3.993273  0
C  C94  1  0.23432693  0.48466010  0.96910897  1  0  -0.124562  0  3.686031  0  0  -0.155041  0  3.932024  0  0  -0.156903  0  3.952357  0  0.007595  0  -0.07945  -0.154256  0  3.918741  0
C  C95  1  0.76567416  0.51533899  0.03089192  1  0  -0.124511  0  3.685805  0  0  -0.15498  0  3.931829  0  0  -0.156838  0  3.952162  0  0.007546  0  -0.079416  -0.154197  0  3.918549  0
C  C96  1  0.21938547  0.47431744  0.12744789  1  0  -0.087968  0  3.692149  0  0  -0.112579  0  3.942647  0  0  -0.113716  0  3.963874  0  0.019441  0  -0.079534  -0.111191  0  3.927778  0
C  C97  1  0.40725155  0.65267353  0.12739303  1  0  -0.089279  0  3.696082  0  0  -0.114158  0  3.946515  0  0  -0.115333  0  3.967756  0  -0.048361  0  -0.081233  -0.112777  0  3.931658  0
C  C98  1  0.78061299  0.52568066  0.87255098  1  0  -0.087882  0  3.692089  0  0  -0.112491  0  3.942579  0  0  -0.113632  0  3.963808  0  0.019456  0  -0.079517  -0.111101  0  3.927709  0
C  C99  1  0.59274835  0.34732555  0.87260767  1  0  -0.089275  0  3.696093  0  0  -0.114151  0  3.946537  0  0  -0.115321  0  3.967778  0  -0.048353  0  -0.081223  -0.112769  0  3.931679  0
C  C100  1  0.33947064  0.58955841  0.17977964  1  0  -0.066185  0  3.784857  0  0  -0.076602  0  4.037078  0  0  -0.079944  0  4.059785  0  -0.036097  0  -0.086131  -0.074332  0  4.021264  0
C  C101  1  0.66053070  0.41044167  0.82022154  1  0  -0.066197  0  3.784919  0  0  -0.076614  0  4.037143  0  0  -0.079957  0  4.059849  0  -0.036131  0  -0.086129  -0.074343  0  4.021326  0
N  N102  1  0.80680653  0.05618299  0.85252841  1  0  -0.319107  0  3.29307  0  0  -0.235546  0  3.562976  0  0  -0.255258  0  3.578859  0  -1.245058  0  -0.323769  -0.222095  0  3.551866  0
N  N103  1  0.54587374  0.79651972  0.85232225  1  0  -0.318406  0  3.291853  0  0  -0.234461  0  3.561737  0  0  -0.254176  0  3.577519  0  -1.243931  0  -0.324941  -0.221019  0  3.550726  0
N  N104  1  0.19319362  0.94381709  0.14747259  1  0  -0.319059  0  3.293034  0  0  -0.235486  0  3.56293  0  0  -0.255198  0  3.578814  0  -1.245088  0  -0.323749  -0.222035  0  3.551819  0
N  N105  1  0.45412665  0.20348135  0.14767903  1  0  -0.318376  0  3.291932  0  0  -0.23443  0  3.561806  0  0  -0.254145  0  3.57759  0  -1.243886  0  -0.324908  -0.220988  0  3.550793  0
O  O106  1  0.53155613  0.95430256  0.65171738  1  0  -0.636581  0  1.994041  0  0  -0.567567  0  2.243311  0  0  -0.596751  0  2.232329  0  -1.169324  0  -0.326417  -0.547196  0  2.250042  0
O  O107  1  0.61957887  0.69668116  0.65131400  1  0  -0.63594  0  1.9923  0  0  -0.567664  0  2.241389  0  0  -0.596818  0  2.230669  0  -1.174085  0  -0.325574  -0.547342  0  2.248014  0
O  O108  1  0.46844258  0.04569653  0.34828110  1  0  -0.636577  0  1.994127  0  0  -0.567555  0  2.243391  0  0  -0.596739  0  2.232409  0  -1.169321  0  -0.326407  -0.547183  0  2.250122  0
O  O109  1  0.38042439  0.30332189  0.34868755  1  0  -0.635777  0  1.992355  0  0  -0.567493  0  2.241431  0  0  -0.596649  0  2.230717  0  -1.174122  0  -0.325448  -0.54717  0  2.248056  0
O  O110  1  0.40629705  0.99404083  0.76988597  1  0  -0.63453  0  1.943624  0  0  -0.582722  0  2.173321  0  0  -0.607198  0  2.162977  0  -1.181919  0  -0.332546  -0.565542  0  2.180043  0
O  O111  1  0.86364978  0.77539804  0.76914954  1  0  -0.63463  0  1.941494  0  0  -0.582056  0  2.171634  0  0  -0.606617  0  2.161137  0  -1.186421  0  -0.332651  -0.564785  0  2.178429  0
O  O112  1  0.59370071  0.00595925  0.23011330  1  0  -0.634514  0  1.943648  0  0  -0.582709  0  2.173332  0  0  -0.607182  0  2.162987  0  -1.181659  0  -0.33254  -0.565526  0  2.180051  0
O  O113  1  0.13635369  0.22460105  0.23085307  1  0  -0.634547  0  1.941547  0  0  -0.58197  0  2.171692  0  0  -0.606532  0  2.161196  0  -1.186375  0  -0.332612  -0.5647  0  2.178487  0
O  O114  1  0.98778456  0.23881737  0.47584014  1  0  -0.293382  0  2.315567  0  0  -0.227412  0  2.537588  0  0  -0.245325  0  2.539975  0  -1.098081  0  -0.15304  -0.214351  0  2.535278  0
O  O115  1  0.01221583  0.76118370  0.52415842  1  0  -0.293419  0  2.315609  0  0  -0.227425  0  2.537666  0  0  -0.245337  0  2.540054  0  -1.098075  0  -0.153056  -0.214366  0  2.535357  0
