# generated using pymatgen
data_InH8C12N4Cl3
_symmetry_space_group_name_H-M   'P 1'
_cell_length_a   19.26128496
_cell_length_b   19.26135385
_cell_length_c   19.26137699
_cell_angle_alpha   109.47180606
_cell_angle_beta   109.47084238
_cell_angle_gamma   109.47096443
_symmetry_Int_Tables_number   1
_chemical_formula_structural   InH8C12N4Cl3
_chemical_formula_sum   'In6 H48 C72 N24 Cl18'
_cell_volume   5500.95091245
_cell_formula_units_Z   6
loop_
 _symmetry_equiv_pos_site_id
 _symmetry_equiv_pos_as_xyz
  1  'x, y, z'
loop_
 _atom_site_type_symbol
 _atom_site_label
 _atom_site_symmetry_multiplicity
 _atom_site_fract_x
 _atom_site_fract_y
 _atom_site_fract_z
 _atom_site_occupancy
 _atom_site_pbe_bader_charge
 _atom_site_pbe_bader_spin_density
 _atom_site_pbe_cm5_charge
 _atom_site_pbe_ddec_charge
 _atom_site_pbe_ddec_spin_density
 _atom_site_pbe_ddec_sum_bond_order
 _atom_site_pbe_magmom
In  In0  1  0.78757076  0.49999955  0.28757115  1  1.600451  0  0.534776  1.051898  0  3.113992  0
In  In1  1  0.21242772  0.50000010  0.71242852  1  1.60103  0  0.534621  1.051803  0  3.114053  0
In  In2  1  0.28757262  0.78757258  0.50000048  1  1.600511  0  0.534754  1.051788  0  3.114075  0
In  In3  1  0.71242894  0.21242888  0.50000053  1  1.601046  0  0.534619  1.051801  0  3.114129  0
In  In4  1  0.50000096  0.28757170  0.78757121  1  1.600414  0  0.534743  1.051811  0  3.114041  0
In  In5  1  0.50000040  0.71242892  0.21242928  1  1.601038  0  0.534631  1.051852  0  3.114036  0
H  H6  1  0.69184687  0.35864870  0.08866922  1  0.144317  0  0.115837  0.088378  0  1.018143  0
H  H7  1  0.60179875  0.19982399  0.99252415  1  0.120733  0  0.110494  0.12253  0  1.024236  0
H  H8  1  0.65658937  0.17830092  0.21890476  1  0.160925  0  0.103118  0.124978  0  1.043744  0
H  H9  1  0.74473178  0.33724001  0.30495028  1  0.136139  0  0.117989  0.090209  0  1.009133  0
H  H10  1  0.73001762  0.64134875  0.33320201  1  0.143022  0  0.115857  0.088357  0  1.018113  0
H  H11  1  0.79270036  0.80017467  0.40198092  1  0.132628  0  0.110411  0.12248  0  1.024288  0
H  H12  1  0.04060632  0.82169708  0.47828992  1  0.127616  0  0.103167  0.125075  0  1.04348  0
H  H13  1  0.96771041  0.66275323  0.40749145  1  0.138336  0  0.117893  0.090181  0  1.008873  0
H  H14  1  0.30814779  0.39682090  0.66679843  1  0.126666  0  0.115883  0.088422  0  1.018151  0
H  H15  1  0.39819621  0.39072446  0.59802179  1  0.13059  0  0.110518  0.122589  0  1.024169  0
H  H16  1  0.34340316  0.56231600  0.52170634  1  0.13564  0  0.103155  0.125015  0  1.043448  0
H  H17  1  0.25525716  0.56021681  0.59250378  1  0.136715  0  0.117948  0.090193  0  1.008928  0
H  H18  1  0.26998310  0.60317746  0.91133320  1  0.137916  0  0.115832  0.088332  0  1.018188  0
H  H19  1  0.20730071  0.60927523  0.00747592  1  0.121408  0  0.110461  0.122546  0  1.024382  0
H  H20  1  0.95939744  0.43768653  0.78109308  1  0.165733  0  0.103087  0.124986  0  1.043797  0
H  H21  1  0.03229291  0.43978455  0.69505076  1  0.138939  0  0.117975  0.090269  0  1.00942  0
H  H22  1  0.08867595  0.69185738  0.35865306  1  0.144563  0  0.115833  0.08839  0  1.018146  0
H  H23  1  0.99253214  0.60180976  0.19983096  1  0.120477  0  0.11051  0.122579  0  1.024326  0
H  H24  1  0.21891290  0.65659506  0.17830074  1  0.160819  0  0.103136  0.125013  0  1.043419  0
H  H25  1  0.30496004  0.74474068  0.33724585  1  0.136051  0  0.117948  0.090162  0  1.008984  0
H  H26  1  0.33319960  0.73001913  0.64134863  1  0.142829  0  0.115903  0.088387  0  1.01816  0
H  H27  1  0.40197836  0.79269830  0.80017150  1  0.132574  0  0.110434  0.122501  0  1.024283  0
H  H28  1  0.47828926  0.04060463  0.82169770  1  0.127564  0  0.103141  0.125045  0  1.043616  0
H  H29  1  0.40749034  0.96770988  0.66275592  1  0.136566  0  0.117908  0.090191  0  1.009169  0
H  H30  1  0.66680099  0.30814894  0.39682102  1  0.130554  0  0.115859  0.088329  0  1.018177  0
H  H31  1  0.59802121  0.39819439  0.39071918  1  0.130502  0  0.110474  0.122512  0  1.024241  0
H  H32  1  0.52170843  0.34341050  0.56231392  1  0.135708  0  0.103161  0.125023  0  1.043639  0
H  H33  1  0.59250652  0.25526821  0.56022054  1  0.130746  0  0.11797  0.090232  0  1.008977  0
H  H34  1  0.91132960  0.26998239  0.60318383  1  0.138067  0  0.115804  0.088323  0  1.018158  0
H  H35  1  0.00747407  0.20729994  0.60927979  1  0.121337  0  0.110432  0.122535  0  1.024253  0
H  H36  1  0.78109176  0.95939450  0.43768244  1  0.165762  0  0.103128  0.125027  0  1.043612  0
H  H37  1  0.69504434  0.03228989  0.43978053  1  0.13893  0  0.117917  0.090203  0  1.009018  0
H  H38  1  0.35865334  0.08866859  0.69184830  1  0.144544  0  0.115826  0.088384  0  1.017981  0
H  H39  1  0.19982489  0.99252168  0.60179636  1  0.120616  0  0.110457  0.122473  0  1.023995  0
H  H40  1  0.17830239  0.21890623  0.65658996  1  0.160942  0  0.103122  0.124991  0  1.043796  0
H  H41  1  0.33724226  0.30495219  0.74473471  1  0.136106  0  0.118004  0.090221  0  1.009165  0
H  H42  1  0.64135338  0.33320014  0.73002131  1  0.143151  0  0.115893  0.088317  0  1.018222  0
H  H43  1  0.80017807  0.40197850  0.79270453  1  0.13235  0  0.110476  0.122588  0  1.024323  0
H  H44  1  0.82169742  0.47828927  0.04060483  1  0.127548  0  0.10314  0.125011  0  1.043736  0
H  H45  1  0.66275970  0.40749218  0.96771076  1  0.136012  0  0.117992  0.090296  0  1.009394  0
H  H46  1  0.39681980  0.66680446  0.30815425  1  0.125248  0  0.115876  0.08832  0  1.01809  0
H  H47  1  0.39072464  0.59802645  0.39820062  1  0.130381  0  0.110502  0.122556  0  1.024343  0
H  H48  1  0.56231525  0.52171453  0.34340737  1  0.13559  0  0.103154  0.125019  0  1.043814  0
H  H49  1  0.56021674  0.59251143  0.25526818  1  0.134384  0  0.118018  0.090255  0  1.009479  0
H  H50  1  0.60318255  0.91132867  0.26997950  1  0.138146  0  0.115822  0.088355  0  1.018123  0
H  H51  1  0.60927788  0.00747229  0.20729747  1  0.121395  0  0.110451  0.122542  0  1.024263  0
H  H52  1  0.43768321  0.78108675  0.95939215  1  0.165735  0  0.103108  0.124987  0  1.043565  0
H  H53  1  0.43978245  0.69504132  0.03228833  1  0.138639  0  0.117896  0.090184  0  1.009011  0
C  C54  1  0.57222965  0.08307416  0.04625820  1  1.061896  0  0.269377  0.384566  0  3.999601  0
C  C55  1  0.68158428  0.31570323  0.11407162  1  0.399802  0  0.060671  0.101283  0  3.924817  0
C  C56  1  0.63218926  0.22796135  0.06138342  1  0.063132  0  -0.064363  -0.127751  0  3.89156  0
C  C57  1  0.62258087  0.17693793  0.09888191  1  0.019357  0  0.018728  0.051405  0  3.93945  0
C  C58  1  0.66276118  0.21599578  0.18768128  1  -0.00239  0  -0.067982  -0.128654  0  3.889571  0
C  C59  1  0.71108355  0.30401744  0.23560516  1  0.431228  0  0.059971  0.100431  0  3.926368  0
C  C60  1  0.96318075  0.91692458  0.48915749  1  1.103362  0  0.269401  0.384651  0  3.999713  0
C  C61  1  0.79836737  0.68429603  0.36588398  1  0.400512  0  0.060814  0.101519  0  3.924768  0
C  C62  1  0.83341651  0.77203310  0.40422882  1  0.049477  0  -0.064427  -0.127883  0  3.89171  0
C  C63  1  0.92194609  0.82305984  0.44564888  1  -0.03389  0  0.018756  0.051375  0  3.939329  0
C  C64  1  0.97167796  0.78399220  0.44676201  1  0.038295  0  -0.068082  -0.128824  0  3.890144  0
C  C65  1  0.93158636  0.69598923  0.40707028  1  0.426348  0  0.059911  0.100452  0  3.926967  0
C  C66  1  0.42776527  0.47402665  0.51084215  1  1.1  0  0.269387  0.384655  0  3.99951  0
C  C67  1  0.31841066  0.43248349  0.63411421  1  0.430236  0  0.060691  0.101333  0  3.92481  0
C  C68  1  0.36780422  0.42919144  0.59577095  1  0.032623  0  -0.064408  -0.1279  0  3.891596  0
C  C69  1  0.37741207  0.47630060  0.55435135  1  -0.022452  0  0.018854  0.051362  0  3.939337  0
C  C70  1  0.33722821  0.52491686  0.55323690  1  0.010964  0  -0.067966  -0.128634  0  3.890023  0
C  C71  1  0.28891833  0.52451858  0.59292827  1  0.441075  0  0.059962  0.100386  0  3.927064  0
C  C72  1  0.03681985  0.52597311  0.95374531  1  1.098793  0  0.269371  0.384514  0  3.999677  0
C  C73  1  0.20163485  0.56751166  0.88592330  1  0.427297  0  0.060785  0.10144  0  3.924788  0
C  C74  1  0.16657992  0.57080826  0.93862214  1  -0.016842  0  -0.06441  -0.127872  0  3.891282  0
C  C75  1  0.07805678  0.52369661  0.90111334  1  0.036493  0  0.018768  0.051416  0  3.93974  0
C  C76  1  0.02831358  0.47508098  0.81232530  1  -0.017348  0  -0.067924  -0.128665  0  3.88934  0
C  C77  1  0.06841477  0.47547437  0.76438613  1  0.437385  0  0.059925  0.100307  0  3.926318  0
C  C78  1  0.04625972  0.57223497  0.08307897  1  1.061844  0  0.269327  0.384568  0  3.999687  0
C  C79  1  0.11407675  0.68159260  0.31570769  1  0.400512  0  0.060668  0.101358  0  3.924885  0
C  C80  1  0.06138593  0.63219764  0.22796921  1  0.062413  0  -0.064419  -0.127925  0  3.891488  0
C  C81  1  0.09889307  0.62259115  0.17694120  1  0.01959  0  0.018723  0.051304  0  3.939369  0
C  C82  1  0.18768761  0.66277185  0.21601011  1  -0.002179  0  -0.068052  -0.128672  0  3.890238  0
C  C83  1  0.23560124  0.71108269  0.30400906  1  0.431028  0  0.059999  0.100456  0  3.92706  0
C  C84  1  0.48915635  0.96317794  0.91692286  1  1.103372  0  0.269485  0.384812  0  3.999444  0
C  C85  1  0.36587998  0.79836494  0.68428930  1  0.4013  0  0.060733  0.101424  0  3.924801  0
C  C86  1  0.40423018  0.83341931  0.77203641  1  0.049121  0  -0.064378  -0.127775  0  3.891443  0
C  C87  1  0.44564647  0.92194330  0.82305586  1  -0.033938  0  0.018641  0.051232  0  3.939621  0
C  C88  1  0.44676540  0.97168155  0.78400104  1  0.03778  0  -0.067952  -0.128715  0  3.889602  0
C  C89  1  0.40706577  0.93158596  0.69597987  1  0.42897  0  0.059862  0.100393  0  3.926585  0
C  C90  1  0.51083942  0.42776695  0.47402417  1  1.100055  0  0.269398  0.384627  0  3.999639  0
C  C91  1  0.63411920  0.31841200  0.43248789  1  0.42733  0  0.060783  0.101485  0  3.924812  0
C  C92  1  0.59576999  0.36780801  0.42919051  1  0.031693  0  -0.064386  -0.127881  0  3.891545  0
C  C93  1  0.55435343  0.37741305  0.47629665  1  -0.022458  0  0.018782  0.051419  0  3.939443  0
C  C94  1  0.55323223  0.33723845  0.52491806  1  0.01094  0  -0.067897  -0.128681  0  3.889378  0
C  C95  1  0.59293261  0.28891571  0.52452012  1  0.447236  0  0.059906  0.100334  0  3.92628  0
C  C96  1  0.95374032  0.03681638  0.52597286  1  1.099172  0  0.269379  0.384638  0  3.999561  0
C  C97  1  0.88592747  0.20163175  0.56751535  1  0.425368  0  0.060778  0.101521  0  3.924912  0
C  C98  1  0.93861348  0.16658204  0.57081001  1  -0.015391  0  -0.064428  -0.127933  0  3.891783  0
C  C99  1  0.90111446  0.07805527  0.52370102  1  0.036791  0  0.018804  0.051344  0  3.939312  0
C  C100  1  0.81231425  0.02831825  0.47508172  1  -0.017449  0  -0.067985  -0.128749  0  3.889884  0
C  C101  1  0.76439638  0.06841207  0.47548010  1  0.437289  0  0.059984  0.100534  0  3.926567  0
C  C102  1  0.08307351  0.04625889  0.57222975  1  1.062047  0  0.269399  0.38469  0  3.999654  0
C  C103  1  0.31569766  0.11407016  0.68158246  1  0.399608  0  0.060689  0.101357  0  3.92522  0
C  C104  1  0.22797102  0.06139381  0.63219822  1  0.062974  0  -0.064377  -0.127762  0  3.892256  0
C  C105  1  0.17694068  0.09887998  0.62258115  1  0.019587  0  0.018768  0.051339  0  3.939481  0
C  C106  1  0.21599823  0.18768525  0.66276165  1  -0.00222  0  -0.067977  -0.128635  0  3.889499  0
C  C107  1  0.30401596  0.23560462  0.71108253  1  0.431193  0  0.059913  0.100423  0  3.926387  0
C  C108  1  0.91692588  0.48915781  0.96318633  1  1.103233  0  0.269399  0.384731  0  3.999439  0
C  C109  1  0.68429103  0.36587919  0.79836761  1  0.399819  0  0.060787  0.101515  0  3.924776  0
C  C110  1  0.77204252  0.40423155  0.83342369  1  0.050665  0  -0.064436  -0.127945  0  3.891366  0
C  C111  1  0.82305877  0.44564360  0.92194634  1  -0.034547  0  0.018695  0.05135  0  3.939729  0
C  C112  1  0.78401180  0.44676798  0.97168859  1  0.038497  0  -0.067984  -0.128674  0  3.889333  0
C  C113  1  0.69597443  0.40706210  0.93158862  1  0.429288  0  0.05989  0.100329  0  3.926155  0
C  C114  1  0.47402433  0.51084447  0.42776800  1  1.099915  0  0.269449  0.384682  0  3.999484  0
C  C115  1  0.43248857  0.63412300  0.31841152  1  0.439556  0  0.060778  0.101437  0  3.924698  0
C  C116  1  0.42919068  0.59577125  0.36781199  1  0.025305  0  -0.064381  -0.127905  0  3.891269  0
C  C117  1  0.47630158  0.55435930  0.37741342  1  -0.022438  0  0.018727  0.051396  0  3.939738  0
C  C118  1  0.52491959  0.55323443  0.33724558  1  0.011052  0  -0.067911  -0.128677  0  3.88932  0
C  C119  1  0.52452733  0.59294284  0.28891079  1  0.443367  0  0.059885  0.100246  0  3.926261  0
C  C120  1  0.52597209  0.95373759  0.03681384  1  1.099698  0  0.26943  0.384708  0  3.999468  0
C  C121  1  0.56751619  0.88592662  0.20162756  1  0.451394  0  0.060735  0.101476  0  3.924975  0
C  C122  1  0.57080912  0.93861080  0.16657988  1  -0.040905  0  -0.064428  -0.127935  0  3.89183  0
C  C123  1  0.52369948  0.90111171  0.07805178  1  0.035796  0  0.018869  0.051414  0  3.939194  0
C  C124  1  0.47508209  0.81231112  0.02831888  1  -0.017758  0  -0.067972  -0.128685  0  3.889946  0
C  C125  1  0.47548177  0.76439671  0.06840946  1  0.437691  0  0.059924  0.100442  0  3.926819  0
N  N126  1  0.57094365  0.03854503  0.08713969  1  -1.161796  0  -0.292791  -0.382782  0  3.185723  0
N  N127  1  0.72014609  0.35281000  0.19933672  1  -1.242503  0  -0.298453  -0.233005  0  3.545098  0
N  N128  1  0.04859518  0.96145308  0.53239808  1  -1.168632  0  -0.292763  -0.382778  0  3.185772  0
N  N129  1  0.84652593  0.64718537  0.36733929  1  -1.237349  0  -0.298404  -0.233036  0  3.545072  0
N  N130  1  0.42905352  0.51619833  0.46759967  1  -1.164312  0  -0.292806  -0.382801  0  3.185808  0
N  N131  1  0.27984531  0.47918925  0.63265937  1  -1.234814  0  -0.298386  -0.232977  0  3.545005  0
N  N132  1  0.95140842  0.48380474  0.91286088  1  -1.168046  0  -0.292762  -0.382781  0  3.185889  0
N  N133  1  0.15347872  0.52081186  0.80066923  1  -1.244267  0  -0.298462  -0.23295  0  3.545865  0
N  N134  1  0.08714557  0.57094656  0.03854919  1  -1.161516  0  -0.292774  -0.382682  0  3.185727  0
N  N135  1  0.19934458  0.72015735  0.35281541  1  -1.242689  0  -0.298396  -0.232962  0  3.545085  0
N  N136  1  0.53239782  0.04859330  0.96145244  1  -1.16857  0  -0.292802  -0.382853  0  3.185708  0
N  N137  1  0.36733868  0.84652521  0.64718754  1  -1.237852  0  -0.298391  -0.232985  0  3.545549  0
N  N138  1  0.46759842  0.42905289  0.51619231  1  -1.164699  0  -0.2928  -0.382826  0  3.185882  0
N  N139  1  0.63266170  0.27985189  0.47918945  1  -1.234941  0  -0.298448  -0.233001  0  3.545409  0
N  N140  1  0.91285772  0.95140404  0.48380377  1  -1.16853  0  -0.292801  -0.382777  0  3.185947  0
N  N141  1  0.80066046  0.15347521  0.52081303  1  -1.243953  0  -0.29842  -0.233069  0  3.544958  0
N  N142  1  0.03854658  0.08714171  0.57094492  1  -1.161954  0  -0.292808  -0.382833  0  3.185875  0
N  N143  1  0.35281302  0.19933725  0.72014722  1  -1.242742  0  -0.298419  -0.233036  0  3.544834  0
N  N144  1  0.96145549  0.53240021  0.04859728  1  -1.168757  0  -0.292784  -0.382824  0  3.185895  0
N  N145  1  0.64719154  0.36733531  0.84652531  1  -1.237682  0  -0.298496  -0.233034  0  3.545619  0
N  N146  1  0.51619490  0.46760086  0.42905221  1  -1.164678  0  -0.292794  -0.38282  0  3.18575  0
N  N147  1  0.47918743  0.63266864  0.27985838  1  -1.235019  0  -0.298459  -0.232902  0  3.545892  0
N  N148  1  0.48380280  0.91285488  0.95140219  1  -1.168618  0  -0.292884  -0.382889  0  3.18592  0
N  N149  1  0.52081360  0.80065845  0.15347345  1  -1.243904  0  -0.29841  -0.233083  0  3.545044  0
Cl  Cl150  1  0.81458667  0.52571120  0.18183928  1  -0.626408  0  -0.264994  -0.483923  0  1.054182  0
Cl  Cl151  1  0.65612658  0.47428799  0.28887646  1  -0.625757  0  -0.265078  -0.483939  0  1.054198  0
Cl  Cl152  1  0.18541433  0.36725197  0.71112503  1  -0.626275  0  -0.264965  -0.48391  0  1.054194  0
Cl  Cl153  1  0.34387181  0.63274993  0.81815901  1  -0.626157  0  -0.265115  -0.48394  0  1.05423  0
Cl  Cl154  1  0.18183918  0.81458816  0.52571150  1  -0.626396  0  -0.265  -0.483925  0  1.054252  0
Cl  Cl155  1  0.28887462  0.65612646  0.47428657  1  -0.625731  0  -0.265061  -0.483916  0  1.054213  0
Cl  Cl156  1  0.71112673  0.18541557  0.36725361  1  -0.626252  0  -0.264976  -0.483919  0  1.054202  0
Cl  Cl157  1  0.81816020  0.34387160  0.63275075  1  -0.626199  0  -0.265098  -0.48391  0  1.054235  0
Cl  Cl158  1  0.52571222  0.18183991  0.81458915  1  -0.626425  0  -0.265005  -0.483929  0  1.054237  0
Cl  Cl159  1  0.47429022  0.28887460  0.65612691  1  -0.625746  0  -0.265061  -0.483901  0  1.054192  0
Cl  Cl160  1  0.36725196  0.71112637  0.18541273  1  -0.626277  0  -0.264972  -0.483924  0  1.054206  0
Cl  Cl161  1  0.63275052  0.81816067  0.34387123  1  -0.626176  0  -0.265101  -0.483939  0  1.054249  0
Cl  Cl162  1  0.89479556  0.49999885  0.39479325  1  -0.593886  0  -0.269892  -0.467192  0  0.997618  0
Cl  Cl163  1  0.10520043  0.49999767  0.60520580  1  -0.593659  0  -0.269887  -0.467166  0  0.997631  0
Cl  Cl164  1  0.39480204  0.89479726  0.50000589  1  -0.594374  0  -0.269917  -0.46718  0  0.997634  0
Cl  Cl165  1  0.60520031  0.10520244  0.49999297  1  -0.593155  0  -0.269873  -0.467149  0  0.997639  0
Cl  Cl166  1  0.50000020  0.39479817  0.89479329  1  -0.59383  0  -0.269896  -0.467178  0  0.997644  0
Cl  Cl167  1  0.49999645  0.60520093  0.10520408  1  -0.593679  0  -0.269895  -0.467165  0  0.997614  0
