# generated using pymatgen
data_MgH10C14(SO5)2
_symmetry_space_group_name_H-M   'P 1'
_cell_length_a   4.85760407
_cell_length_b   5.59564176
_cell_length_c   13.52174559
_cell_angle_alpha   91.51840749
_cell_angle_beta   90.07317970
_cell_angle_gamma   98.15880604
_symmetry_Int_Tables_number   1
_chemical_formula_structural   MgH10C14(SO5)2
_chemical_formula_sum   'Mg1 H10 C14 S2 O10'
_cell_volume   363.68762687
_cell_formula_units_Z   1
loop_
 _symmetry_equiv_pos_site_id
 _symmetry_equiv_pos_as_xyz
  1  'x, y, z'
loop_
 _atom_site_type_symbol
 _atom_site_label
 _atom_site_symmetry_multiplicity
 _atom_site_fract_x
 _atom_site_fract_y
 _atom_site_fract_z
 _atom_site_occupancy
 _atom_site_hle17_bader_spin_density
 _atom_site_hle17_ddec_charge
 _atom_site_hle17_ddec_spin_density
 _atom_site_hle17_ddec_sum_bond_order
 _atom_site_hle17_magmom
 _atom_site_hse06_10hf_bader_spin_density
 _atom_site_hse06_10hf_ddec_charge
 _atom_site_hse06_10hf_ddec_spin_density
 _atom_site_hse06_10hf_ddec_sum_bond_order
 _atom_site_hse06_10hf_magmom
 _atom_site_hse06_bader_spin_density
 _atom_site_hse06_ddec_charge
 _atom_site_hse06_ddec_spin_density
 _atom_site_hse06_ddec_sum_bond_order
 _atom_site_hse06_magmom
 _atom_site_pbe_bader_spin_density
 _atom_site_pbe_cm5_charge
 _atom_site_pbe_ddec_charge
 _atom_site_pbe_ddec_spin_density
 _atom_site_pbe_ddec_sum_bond_order
 _atom_site_pbe_magmom
Mg  Mg0  1  0.99999593  0.50000096  0.00000091  1  0  1.575847  0  1.025139  0  0  1.46958  0  1.277554  0  0  1.490546  0  1.243489  0  0  0.829141  1.454723  0  1.301437  0
H  H1  1  0.62232500  0.26774803  0.74419682  1  0  0.128097  0  0.948807  0  0  0.13516  0  1.008755  0  0  0.138904  0  1.006606  0  0  0.113579  0.132444  0  1.010343  0
H  H2  1  0.37766428  0.73224984  0.25580519  1  0  0.128071  0  0.948756  0  0  0.135143  0  1.008708  0  0  0.138884  0  1.006565  0  0  0.113577  0.132424  0  1.010297  0
H  H3  1  0.46153467  0.11101011  0.57785241  1  0  0.116348  0  0.973975  0  0  0.118603  0  1.046326  0  0  0.123309  0  1.042461  0  0  0.1085  0.115152  0  1.049306  0
H  H4  1  0.53846780  0.88897885  0.42215238  1  0  0.116283  0  0.974018  0  0  0.1186  0  1.046323  0  0  0.12328  0  1.04249  0  0  0.108529  0.11517  0  1.049283  0
H  H5  1  0.10625669  0.83521969  0.72288392  1  0  0.121402  0  0.942031  0  0  0.125796  0  1.011271  0  0  0.130207  0  1.007628  0  0  0.114279  0.122516  0  1.01405  0
H  H6  1  0.89374972  0.16478260  0.27711231  1  0  0.121335  0  0.942106  0  0  0.125732  0  1.011339  0  0  0.130163  0  1.007648  0  0  0.114244  0.122454  0  1.014115  0
H  H7  1  0.23289134  0.10061108  0.93136452  1  0  0.452519  0  0.817054  0  0  0.422795  0  0.884623  0  0  0.432031  0  0.870837  0  0  0.316603  0.416248  0  0.894424  0
H  H8  1  0.76709850  0.89939067  0.06863389  1  0  0.452465  0  0.817193  0  0  0.422757  0  0.884687  0  0  0.431991  0  0.870906  0  0  0.316575  0.41621  0  0.894488  0
H  H9  1  0.93963682  0.10459867  0.88524353  1  0  0.449427  0  0.846727  0  0  0.417543  0  0.910585  0  0  0.427823  0  0.895484  0  0  0.305174  0.410366  0  0.921117  0
H  H10  1  0.06035165  0.89540834  0.11475647  1  0  0.449384  0  0.846757  0  0  0.417511  0  0.910598  0  0  0.427783  0  0.895508  0  0  0.305138  0.410341  0  0.921119  0
C  C11  1  0.37986394  0.56356281  0.74249809  1  0  -0.100001  0  3.70103  0  0  -0.07439  0  3.953143  0  0  -0.08158  0  3.974055  0  0  -0.001798  -0.069792  0  3.939231  0
C  C12  1  0.62014122  0.43643029  0.25750014  1  0  -0.100083  0  3.700997  0  0  -0.074479  0  3.953125  0  0  -0.081678  0  3.974058  0  0  -0.001836  -0.069898  0  3.939236  0
C  C13  1  0.47637662  0.35765091  0.70294054  1  0  -0.032518  0  3.673208  0  0  -0.061538  0  3.927858  0  0  -0.060182  0  3.946078  0  0  -0.067794  -0.062234  0  3.915416  0
C  C14  1  0.52362506  0.64234724  0.29706150  1  0  -0.032473  0  3.672906  0  0  -0.06148  0  3.927587  0  0  -0.060127  0  3.945813  0  0  -0.067772  -0.062167  0  3.915149  0
C  C15  1  0.38308724  0.26844853  0.60994935  1  0  -0.05258  0  3.665425  0  0  -0.078083  0  3.925818  0  0  -0.081001  0  3.944812  0  0  -0.070326  -0.076288  0  3.913117  0
C  C16  1  0.61692401  0.73154434  0.39005407  1  0  -0.052337  0  3.665236  0  0  -0.077929  0  3.925683  0  0  -0.080834  0  3.944708  0  0  -0.070276  -0.076145  0  3.912954  0
C  C17  1  0.19515487  0.38321148  0.55655852  1  0  -0.030127  0  3.727255  0  0  -0.02336  0  3.962543  0  0  -0.026193  0  3.985152  0  0  -0.003379  -0.021191  0  3.947021  0
C  C18  1  0.80486340  0.61678732  0.44343987  1  0  -0.030296  0  3.727564  0  0  -0.023505  0  3.962886  0  0  -0.026339  0  3.985493  0  0  -0.003436  -0.021334  0  3.94737  0
C  C19  1  0.09396636  0.58713629  0.59833883  1  0  -0.046527  0  3.723993  0  0  -0.033007  0  3.959479  0  0  -0.040094  0  3.983649  0  0  -0.006335  -0.028421  0  3.942927  0
C  C20  1  0.90604467  0.41286970  0.40165749  1  0  -0.046517  0  3.724305  0  0  -0.032979  0  3.959682  0  0  -0.040066  0  3.983854  0  0  -0.00636  -0.0284  0  3.943131  0
C  C21  1  0.18706025  0.67744824  0.69192777  1  0  -0.03615  0  3.649035  0  0  -0.076009  0  3.905894  0  0  -0.073612  0  3.923422  0  0  -0.060568  -0.077441  0  3.894043  0
C  C22  1  0.81294980  0.32255048  0.30806912  1  0  -0.036113  0  3.64911  0  0  -0.075981  0  3.905947  0  0  -0.073578  0  3.923479  0  0  -0.060541  -0.077407  0  3.894102  0
C  C23  1  0.10932383  0.28962116  0.45569249  1  0  0.380809  0  3.74978  0  0  0.358008  0  4.01468  0  0  0.379419  0  4.01836  0  0  0.161512  0.343622  0  4.011681  0
C  C24  1  0.89068577  0.71037406  0.54430284  1  0  0.380898  0  3.749602  0  0  0.357992  0  4.014694  0  0  0.379401  0  4.018379  0  0  0.161462  0.343603  0  4.011697  0
S  S25  1  0.52344711  0.69756559  0.85513522  1  0  1.376546  0  5.550108  0  0  1.26549  0  6.072933  0  0  1.313882  0  6.04723  0  0  0.554399  1.23217  0  6.089742  0
S  S26  1  0.47654108  0.30243946  0.14486696  1  0  1.376804  0  5.550277  0  0  1.265797  0  6.073044  0  0  1.314179  0  6.047347  0  0  0.554579  1.232491  0  6.08984  0
O  O27  1  0.09751514  0.20965603  0.91829805  1  0  -0.91363  0  1.83244  0  0  -0.863202  0  2.030602  0  0  -0.879721  0  2.000001  0  0  -0.614451  -0.851653  0  2.051903  0
O  O28  1  0.90247285  0.79034737  0.08170187  1  0  -0.913563  0  1.832608  0  0  -0.863124  0  2.0307  0  0  -0.879645  0  2.00011  0  0  -0.614395  -0.851575  0  2.051992  0
O  O29  1  0.28946020  0.73959392  0.92067953  1  0  -0.769309  0  2.035691  0  0  -0.707507  0  2.301084  0  0  -0.727618  0  2.283464  0  0  -0.357075  -0.693313  0  2.312716  0
O  O30  1  0.71052293  0.26040398  0.07932026  1  0  -0.769368  0  2.035659  0  0  -0.707667  0  2.301173  0  0  -0.72777  0  2.283535  0  0  -0.357196  -0.693503  0  2.31287  0
O  O31  1  0.68366606  0.92751934  0.82771590  1  0  -0.65299  0  1.992162  0  0  -0.590855  0  2.23442  0  0  -0.612825  0  2.219305  0  0  -0.313388  -0.575422  0  2.244325  0
O  O32  1  0.31631662  0.07249087  0.17228787  1  0  -0.653012  0  1.992125  0  0  -0.590921  0  2.234416  0  0  -0.612867  0  2.219281  0  0  -0.313379  -0.575505  0  2.244333  0
O  O33  1  0.69213701  0.52514173  0.89581731  1  0  -0.741922  0  2.042731  0  0  -0.678924  0  2.308561  0  0  -0.699143  0  2.293022  0  0  -0.353936  -0.664863  0  2.31889  0
O  O34  1  0.30785598  0.47486866  0.10418722  1  0  -0.741967  0  2.042796  0  0  -0.678946  0  2.308566  0  0  -0.69917  0  2.293032  0  0  -0.353959  -0.66488  0  2.318887  0
O  O35  1  0.20567754  0.11648984  0.41734479  1  0  -0.43736  0  1.96692  0  0  -0.391311  0  2.182876  0  0  -0.408888  0  2.182281  0  0  -0.239563  -0.379257  0  2.183041  0
O  O36  1  0.79432916  0.88349954  0.58265558  1  0  -0.437391  0  1.966813  0  0  -0.391309  0  2.182806  0  0  -0.408873  0  2.182217  0  0  -0.239526  -0.379247  0  2.182969  0
