# generated using pymatgen
data_CuH2C2BrN
_symmetry_space_group_name_H-M   'P 1'
_cell_length_a   3.84987337
_cell_length_b   7.30776329
_cell_length_c   13.43464273
_cell_angle_alpha   89.99729711
_cell_angle_beta   89.99981889
_cell_angle_gamma   91.50663373
_symmetry_Int_Tables_number   1
_chemical_formula_structural   CuH2C2BrN
_chemical_formula_sum   'Cu4 H8 C8 Br4 N4'
_cell_volume   377.83907556
_cell_formula_units_Z   4
loop_
 _symmetry_equiv_pos_site_id
 _symmetry_equiv_pos_as_xyz
  1  'x, y, z'
loop_
 _atom_site_type_symbol
 _atom_site_label
 _atom_site_symmetry_multiplicity
 _atom_site_fract_x
 _atom_site_fract_y
 _atom_site_fract_z
 _atom_site_occupancy
 _atom_site_hle17_bader_spin_density
 _atom_site_hle17_ddec_charge
 _atom_site_hle17_ddec_spin_density
 _atom_site_hle17_ddec_sum_bond_order
 _atom_site_hle17_magmom
 _atom_site_hse06_10hf_bader_spin_density
 _atom_site_hse06_10hf_ddec_charge
 _atom_site_hse06_10hf_ddec_spin_density
 _atom_site_hse06_10hf_ddec_sum_bond_order
 _atom_site_hse06_10hf_magmom
 _atom_site_hse06_bader_spin_density
 _atom_site_hse06_ddec_charge
 _atom_site_hse06_ddec_spin_density
 _atom_site_hse06_ddec_sum_bond_order
 _atom_site_hse06_magmom
 _atom_site_pbe_bader_spin_density
 _atom_site_pbe_cm5_charge
 _atom_site_pbe_ddec_charge
 _atom_site_pbe_ddec_spin_density
 _atom_site_pbe_ddec_sum_bond_order
 _atom_site_pbe_magmom
Cu  Cu0  1  0.69620749  0.87092076  0.96591358  1  0  0.33087  0  2.043864  0  0  0.234754  0  2.542343  0  0  0.246118  0  2.484977  0  0  0.293921  0.22975  0  2.580167  0
Cu  Cu1  1  0.69635253  0.87090465  0.53407329  1  0  0.330846  0  2.043632  0  0  0.234587  0  2.542232  0  0  0.245985  0  2.484786  0  0  0.293801  0.229614  0  2.579972  0
Cu  Cu2  1  0.30372859  0.12908437  0.03409516  1  0  0.33079  0  2.043785  0  0  0.234629  0  2.542303  0  0  0.245992  0  2.484936  0  0  0.29389  0.229617  0  2.580147  0
Cu  Cu3  1  0.30374967  0.12907983  0.46592354  1  0  0.33076  0  2.043859  0  0  0.234639  0  2.542353  0  0  0.245955  0  2.484969  0  0  0.293852  0.229628  0  2.580174  0
H  H4  1  0.81030824  0.95060579  0.75000556  1  0  0.074236  0  0.939606  0  0  0.077821  0  1.011728  0  0  0.081315  0  1.007726  0  0  0.11422  0.074841  0  1.015048  0
H  H5  1  0.18968782  0.04940057  0.25001360  1  0  0.074188  0  0.939686  0  0  0.077773  0  1.011808  0  0  0.081267  0  1.007801  0  0  0.114263  0.074808  0  1.015118  0
H  H6  1  0.31816406  0.53126704  0.91073658  1  0  0.082092  0  0.954647  0  0  0.085945  0  1.029924  0  0  0.090061  0  1.023942  0  0  0.100802  0.08239  0  1.034988  0
H  H7  1  0.31827182  0.53125767  0.58926171  1  0  0.081837  0  0.95444  0  0  0.085759  0  1.029685  0  0  0.089878  0  1.023696  0  0  0.10072  0.082203  0  1.034765  0
H  H8  1  0.68178286  0.46872273  0.08925578  1  0  0.082054  0  0.954429  0  0  0.085794  0  1.029824  0  0  0.08991  0  1.023844  0  0  0.100753  0.082251  0  1.034887  0
H  H9  1  0.68176848  0.46874895  0.41072990  1  0  0.082015  0  0.954463  0  0  0.085837  0  1.029763  0  0  0.089953  0  1.023782  0  0  0.100817  0.082288  0  1.034834  0
H  H10  1  0.14509508  0.37439248  0.75000477  1  0  0.125924  0  0.959839  0  0  0.133015  0  1.021945  0  0  0.136856  0  1.021981  0  0  0.096387  0.129918  0  1.022674  0
H  H11  1  0.85490962  0.62560132  0.24999280  1  0  0.125941  0  0.960025  0  0  0.133021  0  1.022104  0  0  0.13686  0  1.022144  0  0  0.096372  0.129942  0  1.02281  0
C  C12  1  0.66299529  0.82087111  0.74998912  1  0  0.285221  0  3.638127  0  0  0.236127  0  3.892575  0  0  0.251179  0  3.903783  0  0  0.165575  0.226071  0  3.886155  0
C  C13  1  0.33696958  0.17911683  0.25000175  1  0  0.285276  0  3.637502  0  0  0.236142  0  3.892022  0  0  0.251208  0  3.903208  0  0  0.165417  0.226087  0  3.885623  0
C  C14  1  0.39069553  0.58811520  0.83851341  1  0  0.171893  0  3.641482  0  0  0.133368  0  3.896904  0  0  0.148741  0  3.906571  0  0  0.046227  0.122483  0  3.89185  0
C  C15  1  0.39075285  0.58810255  0.66149642  1  0  0.171897  0  3.641152  0  0  0.133428  0  3.896449  0  0  0.148777  0  3.906154  0  0  0.046151  0.122529  0  3.891418  0
C  C16  1  0.60925552  0.41188544  0.16149235  1  0  0.171749  0  3.641545  0  0  0.133361  0  3.896827  0  0  0.148724  0  3.906515  0  0  0.046162  0.122466  0  3.891796  0
C  C17  1  0.60925742  0.41189385  0.33850860  1  0  0.17186  0  3.641125  0  0  0.133413  0  3.896475  0  0  0.148776  0  3.906158  0  0  0.046151  0.12252  0  3.891442  0
C  C18  1  0.29410534  0.50314165  0.74999741  1  0  -0.148898  0  3.692752  0  0  -0.158095  0  3.938241  0  0  -0.170458  0  3.958122  0  0  -0.087712  -0.15094  0  3.926992  0
C  C19  1  0.70589111  0.49686745  0.24999198  1  0  -0.148926  0  3.692587  0  0  -0.158086  0  3.937962  0  0  -0.170445  0  3.957839  0  0  -0.087701  -0.150945  0  3.926703  0
Br  Br20  1  0.82214828  0.20533089  0.92416405  1  0  -0.438216  0  1.553192  0  0  -0.361095  0  1.978898  0  0  -0.38133  0  1.936869  0  0  -0.221437  -0.346095  0  2.007714  0
Br  Br21  1  0.82211054  0.20527775  0.57584440  1  0  -0.438167  0  1.553389  0  0  -0.361026  0  1.979162  0  0  -0.381249  0  1.937116  0  0  -0.221395  -0.346034  0  2.00797  0
Br  Br22  1  0.17786045  0.79469163  0.07582757  1  0  -0.438206  0  1.553494  0  0  -0.36108  0  1.979216  0  0  -0.381321  0  1.937189  0  0  -0.22144  -0.346086  0  2.008039  0
Br  Br23  1  0.17794530  0.79469143  0.42413679  1  0  -0.43821  0  1.553158  0  0  -0.361009  0  1.978803  0  0  -0.381242  0  1.936749  0  0  -0.221368  -0.346029  0  2.007615  0
N  N24  1  0.57695856  0.74804551  0.83875488  1  0  -0.314784  0  3.352304  0  0  -0.237287  0  3.649589  0  0  -0.252904  0  3.653428  0  0  -0.363666  -0.228357  0  3.647762  0
N  N25  1  0.57705842  0.74805787  0.66125109  1  0  -0.314691  0  3.352474  0  0  -0.237304  0  3.649885  0  0  -0.252936  0  3.653744  0  0  -0.363614  -0.228357  0  3.64805  0
N  N26  1  0.42297138  0.25195292  0.16125609  1  0  -0.314728  0  3.352556  0  0  -0.237227  0  3.649782  0  0  -0.252851  0  3.653628  0  0  -0.363589  -0.228292  0  3.647977  0
N  N27  1  0.42299120  0.25195949  0.33875988  1  0  -0.314624  0  3.352102  0  0  -0.237204  0  3.649438  0  0  -0.25282  0  3.653264  0  0  -0.363559  -0.228271  0  3.647623  0
