# generated using pymatgen
data_CdH12(C2N)10
_symmetry_space_group_name_H-M   'P 1'
_cell_length_a   11.43136322
_cell_length_b   11.43136496
_cell_length_c   17.52053928
_cell_angle_alpha   106.17075758
_cell_angle_beta   106.17073760
_cell_angle_gamma   98.38978397
_symmetry_Int_Tables_number   1
_chemical_formula_structural   CdH12(C2N)10
_chemical_formula_sum   'Cd4 H48 C80 N40'
_cell_volume   2049.02304625
_cell_formula_units_Z   4
loop_
 _symmetry_equiv_pos_site_id
 _symmetry_equiv_pos_as_xyz
  1  'x, y, z'
loop_
 _atom_site_type_symbol
 _atom_site_label
 _atom_site_symmetry_multiplicity
 _atom_site_fract_x
 _atom_site_fract_y
 _atom_site_fract_z
 _atom_site_occupancy
 _atom_site_pbe_bader_charge
 _atom_site_pbe_bader_spin_density
 _atom_site_pbe_cm5_charge
 _atom_site_pbe_ddec_charge
 _atom_site_pbe_ddec_spin_density
 _atom_site_pbe_ddec_sum_bond_order
 _atom_site_pbe_magmom
Cd  Cd0  1  0.23647488  0.76352374  0.25000023  1  1.188609  0  0.828577  0.684815  0  2.31564  0
Cd  Cd1  1  0.01356570  0.98643516  0.24999960  1  1.190217  0  0.828817  0.686144  0  2.315661  0
Cd  Cd2  1  0.76352518  0.23647652  0.75000010  1  1.188622  0  0.828597  0.684878  0  2.315589  0
Cd  Cd3  1  0.98643508  0.01356511  0.75000052  1  1.190269  0  0.828804  0.686109  0  2.315685  0
H  H4  1  0.14099898  0.55576745  0.07557037  1  0.15935  0  0.115005  0.079328  0  1.060344  0
H  H5  1  0.93457681  0.01971885  0.07549198  1  0.155117  0  0.115034  0.080476  0  1.061127  0
H  H6  1  0.44423348  0.85900140  0.42443071  1  0.159332  0  0.114994  0.079331  0  1.060341  0
H  H7  1  0.98028046  0.06542279  0.42450697  1  0.155118  0  0.115038  0.080492  0  1.061127  0
H  H8  1  0.85900067  0.44423149  0.92442957  1  0.159332  0  0.114994  0.079309  0  1.060351  0
H  H9  1  0.06542267  0.98028083  0.92450779  1  0.155123  0  0.115043  0.080483  0  1.061118  0
H  H10  1  0.55576713  0.14099961  0.57556925  1  0.159321  0  0.114993  0.079315  0  1.060343  0
H  H11  1  0.01971991  0.93457616  0.57549276  1  0.155131  0  0.115038  0.080515  0  1.061113  0
H  H12  1  0.22123447  0.20288497  0.08769512  1  0.133393  0  0.112399  0.119111  0  1.013399  0
H  H13  1  0.86634629  0.38471017  0.08765373  1  0.134416  0  0.111101  0.116788  0  1.012294  0
H  H14  1  0.79711412  0.77876592  0.41230374  1  0.133411  0  0.112402  0.119135  0  1.013384  0
H  H15  1  0.61528979  0.13365357  0.41234589  1  0.13442  0  0.111102  0.116806  0  1.012285  0
H  H16  1  0.77876662  0.79711417  0.91230344  1  0.133407  0  0.112415  0.119145  0  1.013446  0
H  H17  1  0.13365319  0.61528952  0.91234604  1  0.13441  0  0.1111  0.11678  0  1.012315  0
H  H18  1  0.20288538  0.22123359  0.58769698  1  0.133408  0  0.112404  0.119137  0  1.013405  0
H  H19  1  0.38471099  0.86634669  0.58765423  1  0.13441  0  0.111103  0.116788  0  1.012307  0
H  H20  1  0.29937437  0.62875675  0.36373484  1  0.076064  0  0.099826  0.099833  0  1.068479  0
H  H21  1  0.06439454  0.23472741  0.36365610  1  0.121008  0  0.09948  0.100684  0  1.069486  0
H  H22  1  0.37124150  0.70062659  0.13626594  1  0.07604  0  0.099825  0.099843  0  1.068466  0
H  H23  1  0.76527389  0.93560697  0.13634361  1  0.121  0  0.099475  0.100664  0  1.069534  0
H  H24  1  0.70062421  0.37124385  0.63626402  1  0.076076  0  0.09981  0.099821  0  1.068436  0
H  H25  1  0.93560624  0.76527286  0.63634402  1  0.121022  0  0.099486  0.100685  0  1.069511  0
H  H26  1  0.62875694  0.29937439  0.86373466  1  0.076062  0  0.099832  0.099854  0  1.068481  0
H  H27  1  0.23472658  0.06439461  0.86365713  1  0.121009  0  0.099473  0.100652  0  1.069539  0
H  H28  1  0.38629810  0.50709785  0.45172883  1  0.0525  0  0.104769  0.102144  0  0.98621  0
H  H29  1  0.06534814  0.44431238  0.45169344  1  0.041726  0  0.103639  0.10148  0  0.986882  0
H  H30  1  0.49289870  0.61370249  0.04827163  1  0.052697  0  0.104767  0.102159  0  0.986196  0
H  H31  1  0.55568865  0.93465374  0.04830626  1  0.041679  0  0.103652  0.101499  0  0.986858  0
H  H32  1  0.61370251  0.49290316  0.54827112  1  0.052502  0  0.104801  0.102214  0  0.98613  0
H  H33  1  0.93465207  0.55568731  0.54830611  1  0.041684  0  0.103667  0.101522  0  0.986809  0
H  H34  1  0.50709942  0.38629998  0.95172863  1  0.0525  0  0.104767  0.102151  0  0.986209  0
H  H35  1  0.44431238  0.06534858  0.95169409  1  0.041707  0  0.103651  0.101513  0  0.986823  0
H  H36  1  0.39460822  0.28615459  0.38580832  1  0.100545  0  0.100251  0.099373  0  1.024711  0
H  H37  1  0.99129095  0.59945499  0.38578982  1  0.059722  0  0.099976  0.10003  0  1.022889  0
H  H38  1  0.71384212  0.60538990  0.11419098  1  0.100467  0  0.100226  0.099315  0  1.02472  0
H  H39  1  0.40054500  0.00870904  0.11420976  1  0.059707  0  0.099983  0.100045  0  1.022906  0
H  H40  1  0.60539313  0.71384625  0.61419237  1  0.100544  0  0.100245  0.09936  0  1.024715  0
H  H41  1  0.00870795  0.40054412  0.61420938  1  0.059708  0  0.09998  0.100054  0  1.022888  0
H  H42  1  0.28615647  0.39461052  0.88580883  1  0.100443  0  0.100229  0.099316  0  1.024709  0
H  H43  1  0.59945619  0.99129255  0.88579076  1  0.059697  0  0.099964  0.100026  0  1.022873  0
H  H44  1  0.31063055  0.18559214  0.22973641  1  0.103924  0  0.102647  0.102318  0  1.048648  0
H  H45  1  0.91914651  0.54400627  0.22972460  1  0.093336  0  0.101976  0.101576  0  1.048784  0
H  H46  1  0.81440540  0.68936916  0.27026308  1  0.103953  0  0.102652  0.102328  0  1.048665  0
H  H47  1  0.45599394  0.08085342  0.27027494  1  0.093616  0  0.10198  0.101594  0  1.048787  0
H  H48  1  0.68937193  0.81441003  0.77026446  1  0.103912  0  0.102639  0.102323  0  1.048615  0
H  H49  1  0.08085167  0.45599283  0.77027481  1  0.09336  0  0.101994  0.10159  0  1.048771  0
H  H50  1  0.18559222  0.31062919  0.72973671  1  0.103933  0  0.102657  0.102321  0  1.048644  0
H  H51  1  0.54400725  0.91914816  0.72972559  1  0.093417  0  0.101976  0.101574  0  1.048799  0
C  C52  1  0.17651095  0.49763401  0.11221700  1  0.537043  0  0.062813  0.083866  0  3.901139  0
C  C53  1  0.93566485  0.11447455  0.11214458  1  0.527856  0  0.062876  0.082604  0  3.901682  0
C  C54  1  0.50236516  0.82348854  0.38778303  1  0.537039  0  0.062811  0.083835  0  3.901215  0
C  C55  1  0.88552498  0.06433564  0.38785495  1  0.527779  0  0.062885  0.082648  0  3.901662  0
C  C56  1  0.82348942  0.50236494  0.88778272  1  0.537051  0  0.062833  0.083899  0  3.901156  0
C  C57  1  0.06433535  0.88552515  0.88785497  1  0.527781  0  0.062882  0.082646  0  3.901635  0
C  C58  1  0.49763448  0.17651040  0.61221690  1  0.537055  0  0.062842  0.083899  0  3.901113  0
C  C59  1  0.11447508  0.93566462  0.61214539  1  0.527779  0  0.062888  0.08261  0  3.901667  0
C  C60  1  0.17800427  0.37301235  0.06983069  1  -0.045999  0  -0.005076  -0.014457  0  4.010149  0
C  C61  1  0.89178118  0.19673459  0.06976557  1  -0.032191  0  -0.001886  -0.015032  0  4.01142  0
C  C62  1  0.62698627  0.82199462  0.43016967  1  -0.046004  0  -0.005067  -0.014464  0  4.010142  0
C  C63  1  0.80326569  0.10821839  0.43023402  1  -0.032094  0  -0.001851  -0.014976  0  4.011427  0
C  C64  1  0.82199611  0.62698642  0.93016999  1  -0.046002  0  -0.005086  -0.014457  0  4.010112  0
C  C65  1  0.10821830  0.80326510  0.93023420  1  -0.032095  0  -0.001897  -0.015049  0  4.011445  0
C  C66  1  0.37301281  0.17800375  0.56982970  1  -0.046024  0  -0.005064  -0.014461  0  4.010138  0
C  C67  1  0.19673468  0.89178056  0.56976570  1  -0.032078  0  -0.001896  -0.01504  0  4.01143  0
C  C68  1  0.22230619  0.30067152  0.11784097  1  0.041243  0  -0.052953  -0.095914  0  3.862752  0
C  C69  1  0.89546449  0.31706009  0.11778668  1  -0.058689  0  -0.053069  -0.091992  0  3.859675  0
C  C70  1  0.69932730  0.77769404  0.38215893  1  0.041254  0  -0.052969  -0.096006  0  3.862706  0
C  C71  1  0.68293966  0.10453654  0.38221266  1  -0.058675  0  -0.0531  -0.092086  0  3.859636  0
C  C72  1  0.77769678  0.69932860  0.88215946  1  0.041262  0  -0.052955  -0.096008  0  3.86277  0
C  C73  1  0.10453516  0.68293885  0.88221326  1  -0.058678  0  -0.053075  -0.092009  0  3.859625  0
C  C74  1  0.30067193  0.22230359  0.61784061  1  0.041266  0  -0.052933  -0.095972  0  3.8627  0
C  C75  1  0.31706112  0.89546373  0.61778747  1  -0.05867  0  -0.053063  -0.091988  0  3.859602  0
C  C76  1  0.26617401  0.35296542  0.20676415  1  -0.110444  0  -0.002612  0.045966  0  3.989433  0
C  C77  1  0.94043621  0.35358301  0.20670296  1  0.014868  0  -0.004771  0.043288  0  3.987266  0
C  C78  1  0.64703362  0.73382526  0.29323597  1  -0.110501  0  -0.002599  0.046046  0  3.98945  0
C  C79  1  0.64641620  0.05956288  0.29329619  1  0.014777  0  -0.004782  0.043322  0  3.987175  0
C  C80  1  0.73383009  0.64703602  0.79323647  1  -0.110521  0  -0.002616  0.045956  0  3.989566  0
C  C81  1  0.05956269  0.64641610  0.79329624  1  0.01488  0  -0.004784  0.043292  0  3.987117  0
C  C82  1  0.35296506  0.26617162  0.70676395  1  -0.110535  0  -0.002624  0.045956  0  3.989553  0
C  C83  1  0.35358386  0.94043738  0.70670415  1  0.01488  0  -0.004784  0.043262  0  3.98712  0
C  C84  1  0.26249476  0.48020897  0.24491282  1  0.456386  0  0.107639  0.192652  0  3.972747  0
C  C85  1  0.98230566  0.26451348  0.24485624  1  0.450647  0  0.109124  0.193448  0  3.973528  0
C  C86  1  0.51978670  0.73750234  0.25508712  1  0.456434  0  0.107616  0.192592  0  3.9729  0
C  C87  1  0.73548699  0.01769424  0.25514320  1  0.450642  0  0.109109  0.193434  0  3.973634  0
C  C88  1  0.73750689  0.51979074  0.75508631  1  0.456355  0  0.107663  0.192712  0  3.972774  0
C  C89  1  0.01769455  0.73548621  0.75514331  1  0.450626  0  0.109117  0.193516  0  3.973492  0
C  C90  1  0.48021052  0.26249452  0.74491323  1  0.456455  0  0.107637  0.192635  0  3.972849  0
C  C91  1  0.26451363  0.98230677  0.74485676  1  0.450639  0  0.109141  0.193566  0  3.973532  0
C  C92  1  0.30571418  0.53372129  0.33389287  1  -0.011986  0  -0.094601  -0.166429  0  3.968574  0
C  C93  1  0.02813260  0.29991397  0.33383263  1  -0.060699  0  -0.094954  -0.167827  0  3.969307  0
C  C94  1  0.46627707  0.69428538  0.16610737  1  -0.011922  0  -0.094576  -0.166379  0  3.968557  0
C  C95  1  0.70008717  0.97186584  0.16616713  1  -0.060694  0  -0.094936  -0.167815  0  3.969365  0
C  C96  1  0.69428553  0.46628063  0.66610618  1  -0.01196  0  -0.094595  -0.166458  0  3.968618  0
C  C97  1  0.97186615  0.70008570  0.66616735  1  -0.060717  0  -0.094954  -0.167878  0  3.969348  0
C  C98  1  0.53372081  0.30571485  0.83389361  1  -0.011954  0  -0.094609  -0.166457  0  3.968646  0
C  C99  1  0.29991402  0.02813575  0.83383340  1  -0.060716  0  -0.094952  -0.167828  0  3.969346  0
C  C100  1  0.35356194  0.46480037  0.38311927  1  -0.031126  0  -0.084211  -0.056033  0  3.996225  0
C  C101  1  0.02945583  0.41801537  0.38308139  1  -0.040537  0  -0.081265  -0.053141  0  3.99381  0
C  C102  1  0.53519703  0.64643769  0.11688032  1  -0.031361  0  -0.08419  -0.056066  0  3.996207  0
C  C103  1  0.58198488  0.97054502  0.11691794  1  -0.040562  0  -0.081281  -0.053151  0  3.993771  0
C  C104  1  0.64643940  0.53520065  0.61688047  1  -0.031124  0  -0.084231  -0.056079  0  3.996203  0
C  C105  1  0.97054365  0.58198431  0.61691838  1  -0.040535  0  -0.081281  -0.053133  0  3.993695  0
C  C106  1  0.46480026  0.35356215  0.88311914  1  -0.031125  0  -0.084195  -0.056049  0  3.996294  0
C  C107  1  0.41801484  0.02945672  0.88308206  1  -0.040438  0  -0.081262  -0.053177  0  3.993764  0
C  C108  1  0.35774607  0.33942630  0.34582581  1  -0.028413  0  -0.092057  -0.080979  0  4.00286  0
C  C109  1  0.98804077  0.50615291  0.34579033  1  0.051634  0  -0.092784  -0.084089  0  4.003089  0
C  C110  1  0.66057033  0.64225194  0.15417355  1  -0.028212  0  -0.092105  -0.08096  0  4.002814  0
C  C111  1  0.49384769  0.01195983  0.15420889  1  0.05164  0  -0.092787  -0.084078  0  4.003083  0
C  C112  1  0.64225382  0.66057470  0.65417436  1  -0.028374  0  -0.092049  -0.080953  0  4.002736  0
C  C113  1  0.01195871  0.49384678  0.65420944  1  0.051627  0  -0.092799  -0.084121  0  4.003095  0
C  C114  1  0.33942753  0.35774847  0.84582647  1  -0.028232  0  -0.092087  -0.080922  0  4.002807  0
C  C115  1  0.50615276  0.98804193  0.84579089  1  0.05153  0  -0.092807  -0.084093  0  4.003066  0
C  C116  1  0.31324442  0.28384113  0.25930625  1  -0.062977  0  -0.084508  -0.112041  0  3.943778  0
C  C117  1  0.94600925  0.47525637  0.25926422  1  -0.086898  0  -0.082964  -0.109608  0  3.942078  0
C  C118  1  0.71615777  0.68675569  0.24069365  1  -0.063065  0  -0.08448  -0.112051  0  3.943746  0
C  C119  1  0.52474362  0.05399196  0.24073500  1  -0.087065  0  -0.082955  -0.109645  0  3.942044  0
C  C120  1  0.68675897  0.71616013  0.74069553  1  -0.062923  0  -0.084509  -0.112054  0  3.943713  0
C  C121  1  0.05398966  0.52474275  0.74073498  1  -0.086925  0  -0.082958  -0.109626  0  3.942012  0
C  C122  1  0.28384131  0.31324268  0.75930572  1  -0.063036  0  -0.084471  -0.111995  0  3.943714  0
C  C123  1  0.47525740  0.94601037  0.75926536  1  -0.086976  0  -0.082933  -0.109595  0  3.942033  0
C  C124  1  0.12797049  0.32414387  0.97798449  1  0.964734  0  0.204645  0.226783  0  4.078042  0
C  C125  1  0.85004293  0.15377113  0.97791782  1  0.971235  0  0.203983  0.227156  0  4.078039  0
C  C126  1  0.67585689  0.87202964  0.52201561  1  0.964755  0  0.204668  0.22687  0  4.077939  0
C  C127  1  0.84622882  0.14995606  0.52208186  1  0.971153  0  0.203993  0.227125  0  4.078137  0
C  C128  1  0.87203029  0.67585640  0.02201564  1  0.964717  0  0.204647  0.226822  0  4.078025  0
C  C129  1  0.14995655  0.84622856  0.02208195  1  0.971246  0  0.204005  0.227191  0  4.078053  0
C  C130  1  0.32414317  0.12797062  0.47798472  1  0.964709  0  0.204631  0.226808  0  4.078047  0
C  C131  1  0.15377123  0.85004420  0.47791848  1  0.971153  0  0.204012  0.227177  0  4.078081  0
N  N132  1  0.21674809  0.54907549  0.19552019  1  -1.23683  0  -0.330238  -0.269976  0  3.501442  0
N  N133  1  0.97870992  0.14630814  0.19544608  1  -1.244585  0  -0.332148  -0.270717  0  3.504189  0
N  N134  1  0.45092484  0.78325169  0.30448032  1  -1.236868  0  -0.330233  -0.269944  0  3.501521  0
N  N135  1  0.85369126  0.02129005  0.30455273  1  -1.244597  0  -0.332162  -0.270763  0  3.504203  0
N  N136  1  0.78325300  0.45092347  0.80447932  1  -1.236842  0  -0.330287  -0.270014  0  3.501421  0
N  N137  1  0.02129101  0.85369156  0.80455326  1  -1.244587  0  -0.33216  -0.270767  0  3.504104  0
N  N138  1  0.54907642  0.21674652  0.69551936  1  -1.236841  0  -0.330271  -0.26997  0  3.501454  0
N  N139  1  0.14630952  0.97871021  0.69544740  1  -1.244603  0  -0.332175  -0.270819  0  3.504306  0
N  N140  1  0.07752338  0.38953704  0.92875140  1  -0.633831  0  -0.211551  -0.262963  0  3.21886  0
N  N141  1  0.85124429  0.03914829  0.92870741  1  -0.642897  0  -0.21141  -0.262426  0  3.218997  0
N  N142  1  0.61046420  0.92247756  0.57124924  1  -0.633828  0  -0.21154  -0.26295  0  3.218839  0
N  N143  1  0.96085044  0.14875474  0.57129170  1  -0.64293  0  -0.211439  -0.262418  0  3.219051  0
N  N144  1  0.92247666  0.61046339  0.07124799  1  -0.633846  0  -0.211545  -0.262938  0  3.21881  0
N  N145  1  0.14875591  0.96085140  0.07129214  1  -0.642909  0  -0.21143  -0.262449  0  3.219028  0
N  N146  1  0.38953627  0.07752402  0.42875150  1  -0.633808  0  -0.211566  -0.262972  0  3.218884  0
N  N147  1  0.03914921  0.85124421  0.42870824  1  -0.642932  0  -0.211434  -0.262453  0  3.219042  0
N  N148  1  0.11872693  0.20532840  0.93130362  1  -0.655817  0  -0.21814  -0.258415  0  3.200534  0
N  N149  1  0.81259397  0.22589057  0.93121757  1  -0.649159  0  -0.218165  -0.259358  0  3.199207  0
N  N150  1  0.79467148  0.88127282  0.56869684  1  -0.655958  0  -0.218132  -0.258412  0  3.200496  0
N  N151  1  0.77410886  0.18740595  0.56878200  1  -0.649076  0  -0.218174  -0.259371  0  3.199206  0
N  N152  1  0.88127328  0.79467130  0.06869593  1  -0.655817  0  -0.218145  -0.258426  0  3.200522  0
N  N153  1  0.18740495  0.77410836  0.06878258  1  -0.649167  0  -0.218194  -0.259419  0  3.199221  0
N  N154  1  0.20532802  0.11872669  0.43130388  1  -0.655835  0  -0.218148  -0.258433  0  3.200528  0
N  N155  1  0.22589176  0.81259506  0.43121796  1  -0.649069  0  -0.21818  -0.259378  0  3.199182  0
N  N156  1  0.06036770  0.19948366  0.85246218  1  -0.252101  0  -0.141545  -0.07619  0  3.592814  0
N  N157  1  0.79208015  0.15287720  0.85238083  1  -0.24752  0  -0.139981  -0.073072  0  3.590851  0
N  N158  1  0.80051655  0.93963160  0.64753832  1  -0.251969  0  -0.141562  -0.076228  0  3.592851  0
N  N159  1  0.84712213  0.20791926  0.64761892  1  -0.247509  0  -0.139962  -0.073004  0  3.590777  0
N  N160  1  0.93963236  0.80051660  0.14753816  1  -0.252096  0  -0.141556  -0.076199  0  3.592795  0
N  N161  1  0.20791933  0.84712248  0.14761894  1  -0.247513  0  -0.139944  -0.072968  0  3.590807  0
N  N162  1  0.19948351  0.06036866  0.35246202  1  -0.252104  0  -0.141568  -0.076228  0  3.592824  0
N  N163  1  0.15287736  0.79208042  0.35238085  1  -0.247509  0  -0.139952  -0.073004  0  3.590783  0
N  N164  1  0.03460994  0.30897446  0.85007031  1  -0.151979  0  -0.106941  -0.100838  0  3.327407  0
N  N165  1  0.81545030  0.04100518  0.85001063  1  -0.151467  0  -0.108059  -0.102917  0  3.326994  0
N  N166  1  0.69102588  0.96539040  0.64992986  1  -0.152012  0  -0.106956  -0.100869  0  3.327444  0
N  N167  1  0.95899458  0.18454831  0.64998921  1  -0.151498  0  -0.108035  -0.10293  0  3.326915  0
N  N168  1  0.96539027  0.69102523  0.14992924  1  -0.151963  0  -0.106924  -0.100848  0  3.327364  0
N  N169  1  0.18454975  0.95899508  0.14998970  1  -0.151465  0  -0.108064  -0.102948  0  3.326957  0
N  N170  1  0.30897475  0.03461043  0.35007105  1  -0.151966  0  -0.106892  -0.100789  0  3.327411  0
N  N171  1  0.04100451  0.81544988  0.35001111  1  -0.151443  0  -0.108051  -0.10292  0  3.326938  0
