# generated using pymatgen
data_ZnH23C22(NO2)2
_symmetry_space_group_name_H-M   'P 1'
_cell_length_a   11.00651803
_cell_length_b   12.19317746
_cell_length_c   18.69929485
_cell_angle_alpha   101.22612857
_cell_angle_beta   90.01035316
_cell_angle_gamma   116.85068279
_symmetry_Int_Tables_number   1
_chemical_formula_structural   ZnH23C22(NO2)2
_chemical_formula_sum   'Zn4 H92 C88 N8 O16'
_cell_volume   2184.96795820
_cell_formula_units_Z   4
loop_
 _symmetry_equiv_pos_site_id
 _symmetry_equiv_pos_as_xyz
  1  'x, y, z'
loop_
 _atom_site_type_symbol
 _atom_site_label
 _atom_site_symmetry_multiplicity
 _atom_site_fract_x
 _atom_site_fract_y
 _atom_site_fract_z
 _atom_site_occupancy
 _atom_site_pbe_bader_charge
 _atom_site_pbe_bader_spin_density
 _atom_site_pbe_cm5_charge
 _atom_site_pbe_ddec_charge
 _atom_site_pbe_ddec_spin_density
 _atom_site_pbe_ddec_sum_bond_order
 _atom_site_pbe_magmom
Zn  Zn0  1  0.14818845  0.06958729  0.93315486  1  1.311204  0  0.707431  0.906382  0  2.333286  0
Zn  Zn1  1  0.07828907  0.93000794  0.56686390  1  1.307131  0  0.707114  0.905563  0  2.332537  0
Zn  Zn2  1  0.85181561  0.93041087  0.06684321  1  1.311077  0  0.707405  0.90629  0  2.333477  0
Zn  Zn3  1  0.92170645  0.06999493  0.43312996  1  1.307159  0  0.707174  0.905615  0  2.332382  0
H  H4  1  0.39700762  0.19590831  0.80332464  1  0.087916  0  0.111643  0.170648  0  0.960613  0
H  H5  1  0.20106734  0.80376396  0.69648355  1  0.091182  0  0.111595  0.170348  0  0.960436  0
H  H6  1  0.60299516  0.80409455  0.19667617  1  0.087878  0  0.111644  0.170622  0  0.960592  0
H  H7  1  0.79892145  0.19624360  0.30352000  1  0.090877  0  0.111585  0.170339  0  0.960486  0
H  H8  1  0.55663426  0.27584136  0.85881224  1  0.050441  0  0.10129  0.142575  0  1.029123  0
H  H9  1  0.28092328  0.72396700  0.64106503  1  0.065569  0  0.101434  0.142564  0  1.028952  0
H  H10  1  0.44336718  0.72416244  0.14118708  1  0.050504  0  0.101263  0.142471  0  1.029086  0
H  H11  1  0.71906496  0.27603585  0.35894166  1  0.06536  0  0.101362  0.142464  0  1.028969  0
H  H12  1  0.40404060  0.26835654  0.89541989  1  0.07267  0  0.109039  0.159872  0  0.98516  0
H  H13  1  0.13565576  0.73118405  0.60438126  1  0.09922  0  0.108812  0.159125  0  0.984258  0
H  H14  1  0.59596353  0.73164539  0.10457919  1  0.073097  0  0.109026  0.159841  0  0.985152  0
H  H15  1  0.86433292  0.26881787  0.39562317  1  0.099223  0  0.108809  0.159125  0  0.984228  0
H  H16  1  0.13427292  0.82198523  0.97567266  1  0.135212  0  0.109507  0.140597  0  1.015756  0
H  H17  1  0.31191949  0.17778724  0.52439691  1  0.146291  0  0.109463  0.140093  0  1.015366  0
H  H18  1  0.86573252  0.17801387  0.02432660  1  0.135056  0  0.109538  0.140673  0  1.015745  0
H  H19  1  0.68808336  0.82221939  0.47560544  1  0.146287  0  0.109477  0.14008  0  1.015409  0
H  H20  1  0.21390160  0.66821666  0.99626203  1  0.066596  0  0.099628  0.096562  0  0.995362  0
H  H21  1  0.54531439  0.33186812  0.50393292  1  0.045421  0  0.099627  0.096645  0  0.995922  0
H  H22  1  0.78610795  0.33178339  0.00373307  1  0.06652  0  0.099639  0.096542  0  0.995437  0
H  H23  1  0.45469162  0.66813757  0.49607253  1  0.045334  0  0.099606  0.096653  0  0.995907  0
H  H24  1  0.44210711  0.69246256  0.96417986  1  0.047845  0  0.099905  0.09923  0  1.001337  0
H  H25  1  0.74946757  0.30786994  0.53593591  1  0.042752  0  0.09979  0.098755  0  1.001818  0
H  H26  1  0.55790385  0.30754031  0.03581667  1  0.04772  0  0.099887  0.099274  0  1.001353  0
H  H27  1  0.25053744  0.69213010  0.46406828  1  0.042618  0  0.099757  0.09871  0  1.001822  0
H  H28  1  0.59601096  0.86662414  0.90755102  1  0.069531  0  0.10232  0.113006  0  1.044542  0
H  H29  1  0.72938363  0.13354880  0.59235153  1  0.087209  0  0.102562  0.11332  0  1.044351  0
H  H30  1  0.40399872  0.13338344  0.09245092  1  0.069686  0  0.102269  0.112949  0  1.044439  0
H  H31  1  0.27061037  0.86644558  0.40765248  1  0.087355  0  0.10256  0.113353  0  1.044389  0
H  H32  1  0.70036089  0.05658300  0.87332346  1  0.097272  0  0.117918  0.108122  0  0.971675  0
H  H33  1  0.64381424  0.94334810  0.62645678  1  0.092182  0  0.117711  0.107652  0  0.971653  0
H  H34  1  0.29964826  0.94341987  0.12667468  1  0.09724  0  0.117886  0.108044  0  0.971748  0
H  H35  1  0.35617430  0.05664629  0.37354562  1  0.092023  0  0.117715  0.107692  0  0.971542  0
H  H36  1  0.69787549  0.19907763  0.87399817  1  0.065741  0  0.108049  0.07907  0  1.016608  0
H  H37  1  0.49882616  0.80081539  0.62582981  1  0.069913  0  0.108303  0.079228  0  1.015689  0
H  H38  1  0.30213372  0.80092901  0.12600151  1  0.065867  0  0.108083  0.079098  0  1.016564  0
H  H39  1  0.50116152  0.19918087  0.37417443  1  0.069949  0  0.108291  0.079187  0  1.015738  0
H  H40  1  0.57739354  0.11652657  0.74728410  1  0.011077  0  0.089349  0.081697  0  1.009645  0
H  H41  1  0.46106321  0.88318022  0.75251444  1  0.015848  0  0.089729  0.081793  0  1.008749  0
H  H42  1  0.42261019  0.88347818  0.25271588  1  0.011314  0  0.089329  0.081652  0  1.009658  0
H  H43  1  0.53893604  0.11682829  0.24749136  1  0.015873  0  0.089735  0.081823  0  1.008736  0
H  H44  1  0.73654890  0.11499891  0.75122813  1  0.01859  0  0.094732  0.098867  0  1.008195  0
H  H45  1  0.62201345  0.88527423  0.74859000  1  0.0321  0  0.095183  0.099696  0  1.006882  0
H  H46  1  0.26345291  0.88500019  0.24877005  1  0.01864  0  0.094729  0.098838  0  1.00821  0
H  H47  1  0.37798203  0.11472675  0.25141378  1  0.032232  0  0.095179  0.099649  0  1.006982  0
H  H48  1  0.96269316  0.89345831  0.78470659  1  0.124849  0  0.106766  0.117153  0  1.022329  0
H  H49  1  0.06846425  0.10578695  0.71539377  1  0.122212  0  0.106808  0.116986  0  1.021832  0
H  H50  1  0.03730552  0.10654361  0.21528982  1  0.124849  0  0.106745  0.117126  0  1.022363  0
H  H51  1  0.93154662  0.89421028  0.28459562  1  0.122358  0  0.106805  0.116955  0  1.021834  0
H  H52  1  0.60027759  0.63637195  0.64137006  1  0.088927  0  0.103763  0.102682  0  1.016462  0
H  H53  1  0.96380162  0.36321904  0.85866199  1  0.088613  0  0.103744  0.102597  0  1.016081  0
H  H54  1  0.39971924  0.36362809  0.35862932  1  0.088842  0  0.103703  0.102595  0  1.016411  0
H  H55  1  0.03620638  0.63677063  0.14133982  1  0.088968  0  0.103739  0.102618  0  1.016224  0
H  H56  1  0.60267262  0.65583250  0.87451140  1  0.058091  0  0.103422  0.105662  0  1.03523  0
H  H57  1  0.94755368  0.34420492  0.62555589  1  0.062701  0  0.103125  0.105269  0  1.034957  0
H  H58  1  0.39732966  0.34416753  0.12548798  1  0.05802  0  0.103435  0.10574  0  1.035173  0
H  H59  1  0.05244406  0.65579512  0.37444616  1  0.062552  0  0.10313  0.105287  0  1.03494  0
H  H60  1  0.37088800  0.55614888  0.85202624  1  0.030593  0  0.081691  0.111575  0  1.046086  0
H  H61  1  0.81524647  0.44366458  0.64792207  1  0.02378  0  0.081728  0.111684  0  1.045647  0
H  H62  1  0.62910849  0.44385775  0.14797344  1  0.030427  0  0.081753  0.111617  0  1.046189  0
H  H63  1  0.18475116  0.55632981  0.35207659  1  0.023859  0  0.081745  0.111659  0  1.045656  0
H  H64  1  0.44593094  0.45212302  0.84050866  1  -0.003804  0  0.08348  0.114358  0  1.017428  0
H  H65  1  0.99440323  0.54776911  0.65966371  1  0.005453  0  0.083587  0.114859  0  1.018103  0
H  H66  1  0.55406144  0.54788266  0.15949678  1  -0.003978  0  0.083485  0.114427  0  1.017465  0
H  H67  1  0.00559578  0.45222622  0.34033720  1  0.005302  0  0.083555  0.114826  0  1.01811  0
H  H68  1  0.27773045  0.39966974  0.80034200  1  0.041213  0  0.085568  0.125153  0  1.033939  0
H  H69  1  0.87849893  0.60007813  0.69966001  1  0.036608  0  0.085829  0.125593  0  1.033273  0
H  H70  1  0.72226332  0.60033689  0.19965982  1  0.041211  0  0.08556  0.125229  0  1.033888  0
H  H71  1  0.12149642  0.39991531  0.30034173  1  0.036683  0  0.085838  0.125611  0  1.033228  0
H  H72  1  0.23590450  0.49354761  0.70035164  1  0.028966  0  0.085126  0.122896  0  1.028917  0
H  H73  1  0.74224215  0.50576426  0.79945651  1  0.057458  0  0.085409  0.123976  0  1.027429  0
H  H74  1  0.76409559  0.50645714  0.29964887  1  0.02893  0  0.085141  0.122899  0  1.028887  0
H  H75  1  0.25775313  0.49422541  0.20054208  1  0.057652  0  0.085424  0.124016  0  1.027548  0
H  H76  1  0.37473074  0.59319355  0.65735400  1  0.000879  0  0.08083  0.104908  0  1.030435  0
H  H77  1  0.78137671  0.40613624  0.84247498  1  0.001604  0  0.081199  0.105784  0  1.03035  0
H  H78  1  0.62527389  0.40681120  0.34264705  1  0.000894  0  0.080824  0.104873  0  1.030449  0
H  H79  1  0.21861817  0.59385626  0.15752451  1  0.00119  0  0.081204  0.105851  0  1.030319  0
H  H80  1  0.34623674  0.65094599  0.74773978  1  0.017551  0  0.083672  0.112981  0  1.025253  0
H  H81  1  0.69533070  0.34845346  0.75202300  1  0.030249  0  0.083621  0.11335  0  1.025915  0
H  H82  1  0.65376699  0.34905876  0.25226073  1  0.017552  0  0.083642  0.112908  0  1.025327  0
H  H83  1  0.30466781  0.65153904  0.24797702  1  0.030409  0  0.083646  0.113396  0  1.025867  0
H  H84  1  0.32503978  0.33037170  0.67672975  1  0.048334  0  0.086702  0.12784  0  1.011384  0
H  H85  1  0.99414339  0.66907530  0.82340999  1  0.041269  0  0.087152  0.128691  0  1.011096  0
H  H86  1  0.67495163  0.66963022  0.32327468  1  0.048408  0  0.086738  0.127885  0  1.01135  0
H  H87  1  0.00584284  0.33091626  0.17658991  1  0.040945  0  0.087204  0.12874  0  1.011015  0
H  H88  1  0.49570815  0.37266311  0.70944678  1  0.014847  0  0.082756  0.114951  0  1.02163  0
H  H89  1  0.12299444  0.62737924  0.79092355  1  0.037038  0  0.082929  0.115654  0  1.021671  0
H  H90  1  0.50428222  0.62733127  0.29055776  1  0.014789  0  0.082782  0.114957  0  1.021626  0
H  H91  1  0.87699872  0.37261891  0.20907986  1  0.036851  0  0.082867  0.115575  0  1.021603  0
H  H92  1  0.46533711  0.43076037  0.63530382  1  0.010021  0  0.083252  0.113506  0  1.026837  0
H  H93  1  0.03422657  0.56885438  0.86488702  1  0.04623  0  0.083025  0.113576  0  1.026945  0
H  H94  1  0.53465641  0.56923307  0.36469954  1  0.009857  0  0.083286  0.113564  0  1.026695  0
H  H95  1  0.96576427  0.43114094  0.13511497  1  0.046303  0  0.083022  0.113625  0  1.026967  0
C  C96  1  0.44668954  0.21595816  0.85862074  1  -0.043203  0  -0.225297  -0.473371  0  3.943053  0
C  C97  1  0.23073849  0.78370884  0.64119740  1  -0.074952  0  -0.22469  -0.471765  0  3.940493  0
C  C98  1  0.55331507  0.78404471  0.14137953  1  -0.043597  0  -0.225263  -0.473199  0  3.942726  0
C  C99  1  0.76924881  0.21629213  0.35880691  1  -0.074343  0  -0.224586  -0.471602  0  3.940357  0
C  C100  1  0.41871733  0.09804272  0.88205458  1  1.026409  0  0.23707  0.373991  0  3.94436  0
C  C101  1  0.32061096  0.90166722  0.61776163  1  0.98575  0  0.236362  0.373797  0  3.945577  0
C  C102  1  0.58128912  0.90196202  0.11794594  1  1.02626  0  0.237069  0.374024  0  3.944275  0
C  C103  1  0.67937812  0.09833187  0.38223869  1  0.986089  0  0.236247  0.373605  0  3.945433  0
C  C104  1  0.31894663  0.92795982  0.92648943  1  0.348025  0  0.085488  0.148677  0  4.069564  0
C  C105  1  0.39078602  0.07184181  0.57347218  1  0.358064  0  0.085603  0.147946  0  4.06927  0
C  C106  1  0.68106446  0.07205058  0.07351448  1  0.348368  0  0.085553  0.148694  0  4.069411  0
C  C107  1  0.60921313  0.92816105  0.42653076  1  0.357993  0  0.085671  0.147933  0  4.069275  0
C  C108  1  0.23241851  0.83030970  0.95911577  1  -0.035549  0  -0.087763  -0.147667  0  3.934509  0
C  C109  1  0.40178991  0.16951392  0.54091254  1  -0.004994  0  -0.08756  -0.145826  0  3.933449  0
C  C110  1  0.76759238  0.16968940  0.04088242  1  -0.035911  0  -0.087818  -0.147786  0  3.934464  0
C  C111  1  0.59820695  0.83048799  0.45909296  1  -0.004699  0  -0.087529  -0.145747  0  3.933537  0
C  C112  1  0.27895055  0.74575482  0.97104999  1  -0.014992  0  -0.098896  -0.095107  0  4.041127  0
C  C113  1  0.53286527  0.25424298  0.52903775  1  -0.048485  0  -0.098853  -0.09633  0  4.041916  0
C  C114  1  0.72105631  0.25424711  0.02894856  1  -0.014465  0  -0.09884  -0.094938  0  4.04092  0
C  C115  1  0.46713478  0.74575988  0.47096573  1  -0.048426  0  -0.09886  -0.096413  0  4.042073  0
C  C116  1  0.40808149  0.75887906  0.95233950  1  -0.01548  0  -0.100334  -0.096557  0  4.046122  0
C  C117  1  0.64901982  0.24126935  0.54770023  1  -0.015466  0  -0.100053  -0.094698  0  4.044689  0
C  C118  1  0.59192813  0.24112475  0.04766036  1  -0.015798  0  -0.10035  -0.096703  0  4.046299  0
C  C119  1  0.35098067  0.75873257  0.45230313  1  -0.015369  0  -0.09999  -0.094492  0  4.04457  0
C  C120  1  0.49530210  0.85616251  0.92004887  1  -0.030052  0  -0.097435  -0.164045  0  4.008772  0
C  C121  1  0.63904211  0.14391063  0.57987200  1  0.001097  0  -0.098387  -0.16676  0  4.009508  0
C  C122  1  0.50471256  0.14384412  0.07995189  1  -0.030143  0  -0.097354  -0.163995  0  4.008825  0
C  C123  1  0.36095475  0.85609129  0.42013296  1  0.0009  0  -0.098449  -0.167052  0  4.00954  0
C  C124  1  0.44791815  0.93975740  0.90720036  1  0.354429  0  0.089654  0.081035  0  4.034375  0
C  C125  1  0.50804240  0.06012632  0.59266125  1  0.311835  0  0.090851  0.084072  0  4.032135  0
C  C126  1  0.55209480  0.06025488  0.09280325  1  0.354702  0  0.089643  0.081182  0  4.034415  0
C  C127  1  0.49195678  0.93987842  0.40734568  1  0.311829  0  0.090893  0.084269  0  4.032208  0
C  C128  1  0.64214087  0.09745378  0.85095765  1  0.317953  0  -0.050303  -0.050907  0  3.881283  0
C  C129  1  0.54473196  0.90243725  0.64883960  1  0.304257  0  -0.050292  -0.049112  0  3.879788  0
C  C130  1  0.35786926  0.90255286  0.14904149  1  0.317832  0  -0.050301  -0.050702  0  3.881189  0
C  C131  1  0.45525756  0.09756090  0.35116221  1  0.304485  0  -0.05027  -0.049112  0  3.879731  0
C  C132  1  0.63207460  0.07014882  0.76738695  1  0.022349  0  -0.165924  -0.16957  0  3.931535  0
C  C133  1  0.56206802  0.92980307  0.73239385  1  -0.020911  0  -0.167122  -0.170916  0  3.931144  0
C  C134  1  0.36792866  0.92985499  0.23261238  1  0.022161  0  -0.165893  -0.169492  0  3.931473  0
C  C135  1  0.43792793  0.07019885  0.26760898  1  -0.021049  0  -0.167149  -0.170918  0  3.931342  0
C  C136  1  0.85939746  0.84257649  0.91291348  1  1.564009  0  0.228889  0.615295  0  4.151698  0
C  C137  1  0.01676457  0.15715387  0.58719924  1  1.551298  0  0.228153  0.613288  0  4.154864  0
C  C138  1  0.14061774  0.15743486  0.08708092  1  1.564389  0  0.228866  0.615442  0  4.15188  0
C  C139  1  0.98322315  0.84284429  0.41279295  1  1.551106  0  0.228112  0.613181  0  4.154945  0
C  C140  1  0.78806005  0.78094946  0.83715154  1  -0.061874  0  -0.024281  -0.05385  0  4.012986  0
C  C141  1  0.00709389  0.21873967  0.66295644  1  -0.019547  0  -0.023874  -0.052547  0  4.012939  0
C  C142  1  0.21193813  0.21904964  0.16284451  1  -0.062152  0  -0.024227  -0.053823  0  4.012952  0
C  C143  1  0.99289833  0.78125661  0.33703658  1  -0.019729  0  -0.02394  -0.052718  0  4.013356  0
C  C144  1  0.85662481  0.82070730  0.77696538  1  -0.037096  0  -0.080065  -0.11566  0  3.936829  0
C  C145  1  0.03542690  0.17868160  0.72312824  1  -0.081846  0  -0.079823  -0.116076  0  3.936514  0
C  C146  1  0.14337333  0.17928992  0.22302776  1  -0.036682  0  -0.080108  -0.115759  0  3.936739  0
C  C147  1  0.96457804  0.82131468  0.27686424  1  -0.077911  0  -0.079799  -0.115834  0  3.936403  0
C  C148  1  0.78641678  0.76869115  0.70672207  1  -0.008469  0  -0.017918  -0.027863  0  3.994675  0
C  C149  1  0.01730242  0.23074075  0.79334986  1  -0.003037  0  -0.018339  -0.027053  0  3.994428  0
C  C150  1  0.21357958  0.23130795  0.29327612  1  -0.009031  0  -0.017788  -0.027687  0  3.994453  0
C  C151  1  0.98271335  0.76925177  0.20664428  1  -0.006537  0  -0.018358  -0.027321  0  3.993794  0
C  C152  1  0.85469964  0.81399562  0.64123711  1  1.528399  0  0.197148  0.56614  0  4.239679  0
C  C153  1  0.04022240  0.18541368  0.85883840  1  1.543293  0  0.196132  0.565682  0  4.23952  0
C  C154  1  0.14528585  0.18600537  0.35875330  1  1.528164  0  0.196931  0.56589  0  4.239374  0
C  C155  1  0.95979971  0.81457696  0.14114802  1  1.545438  0  0.19617  0.565707  0  4.239555  0
C  C156  1  0.65079434  0.67427314  0.69711617  1  -0.069206  0  -0.077049  -0.133951  0  3.926879  0
C  C157  1  0.97647530  0.32535539  0.80293364  1  -0.048019  0  -0.076801  -0.134013  0  3.925069  0
C  C158  1  0.34919925  0.32572408  0.30288178  1  -0.068493  0  -0.076989  -0.133773  0  3.926625  0
C  C159  1  0.02353031  0.67462770  0.19706305  1  -0.049081  0  -0.076766  -0.133944  0  3.925026  0
C  C160  1  0.58196063  0.62851778  0.75628516  1  -0.013041  0  -0.002268  0.058855  0  3.882135  0
C  C161  1  0.95362696  0.37123969  0.74376603  1  -0.035378  0  -0.002248  0.059627  0  3.880359  0
C  C162  1  0.41804077  0.37148414  0.24371499  1  -0.013671  0  -0.002201  0.058838  0  3.882207  0
C  C163  1  0.04636886  0.62875469  0.25623798  1  -0.035174  0  -0.002339  0.059546  0  3.88052  0
C  C164  1  0.65203157  0.68527319  0.82640996  1  -0.03148  0  -0.083607  -0.147375  0  3.9527  0
C  C165  1  0.96713059  0.31460326  0.67367151  1  -0.025357  0  -0.083464  -0.147309  0  3.952228  0
C  C166  1  0.34797801  0.31472874  0.17358912  1  -0.03133  0  -0.083657  -0.147513  0  3.952708  0
C  C167  1  0.03286485  0.68539584  0.32632935  1  -0.024904  0  -0.083467  -0.147295  0  3.952338  0
C  C168  1  0.43509619  0.52181745  0.74262855  1  0.084693  0  -0.01344  0.240239  0  3.80085  0
C  C169  1  0.91341025  0.47785428  0.75738681  1  0.089141  0  -0.012492  0.239469  0  3.804574  0
C  C170  1  0.56490108  0.47818164  0.25737231  1  0.084788  0  -0.013417  0.240458  0  3.800693  0
C  C171  1  0.08658641  0.52213633  0.24261458  1  0.089376  0  -0.012467  0.23942  0  3.804631  0
C  C172  1  0.37985783  0.48067545  0.81324654  1  -0.064937  0  -0.247744  -0.414037  0  3.893377  0
C  C173  1  0.89962476  0.51911576  0.68678626  1  -0.0648  0  -0.248321  -0.414677  0  3.894644  0
C  C174  1  0.62014001  0.51933024  0.18675410  1  -0.064582  0  -0.247808  -0.414314  0  3.893616  0
C  C175  1  0.10037194  0.48087674  0.31321483  1  -0.06494  0  -0.248316  -0.414613  0  3.89471  0
C  C176  1  0.34252522  0.56790552  0.71000826  1  -0.05601  0  -0.241547  -0.407313  0  3.880551  0
C  C177  1  0.77457353  0.43148968  0.78982591  1  -0.105585  0  -0.242429  -0.409797  0  3.882142  0
C  C178  1  0.65747669  0.43209922  0.28999226  1  -0.055964  0  -0.241529  -0.407227  0  3.880543  0
C  C179  1  0.22542451  0.56850188  0.21017239  1  -0.105567  0  -0.242459  -0.409905  0  3.882176  0
C  C180  1  0.43019274  0.40750375  0.68782619  1  -0.063193  0  -0.243564  -0.4123  0  3.886276  0
C  C181  1  0.02246712  0.59218043  0.81236244  1  -0.11287  0  -0.244074  -0.413803  0  3.889414  0
C  C182  1  0.56979995  0.59249345  0.31217710  1  -0.063116  0  -0.24368  -0.412486  0  3.886137  0
C  C183  1  0.97752553  0.40781489  0.18764009  1  -0.112491  0  -0.244093  -0.413845  0  3.889278  0
N  N184  1  0.30434992  0.02795207  0.90984391  1  -1.255456  0  -0.356296  -0.414167  0  3.47403  0
N  N185  1  0.27622493  0.97174284  0.59007479  1  -1.24249  0  -0.356233  -0.413821  0  3.474589  0
N  N186  1  0.69565875  0.97204986  0.09015785  1  -1.255787  0  -0.356344  -0.414176  0  3.47379  0
N  N187  1  0.72376971  0.02826190  0.40992893  1  -1.242809  0  -0.356221  -0.413724  0  3.474489  0
N  N188  1  0.50801377  0.04791476  0.87909961  1  -1.230351  0  -0.237337  -0.074057  0  3.675586  0
N  N189  1  0.46008935  0.95191219  0.62070461  1  -1.205386  0  -0.238143  -0.077688  0  3.678053  0
N  N190  1  0.49199591  0.95209281  0.12090287  1  -1.230053  0  -0.237415  -0.074433  0  3.67583  0
N  N191  1  0.53989792  0.04808690  0.37930267  1  -1.205789  0  -0.23814  -0.077735  0  3.678049  0
O  O192  1  0.98907270  0.90122467  0.92106405  1  -1.210559  0  -0.322002  -0.576176  0  2.439178  0
O  O193  1  0.08761545  0.09837568  0.57906629  1  -1.19444  0  -0.32181  -0.575171  0  2.439227  0
O  O194  1  0.01092959  0.09877537  0.07893372  1  -1.210426  0  -0.322025  -0.576236  0  2.438702  0
O  O195  1  0.91237825  0.90162719  0.42092435  1  -1.194551  0  -0.321846  -0.575168  0  2.439341  0
O  O196  1  0.78317730  0.83111718  0.96559087  1  -1.168437  0  -0.31419  -0.546515  0  2.337671  0
O  O197  1  0.95228048  0.16887184  0.53450096  1  -1.165146  0  -0.313675  -0.545288  0  2.33845  0
O  O198  1  0.21682461  0.16888757  0.03440858  1  -1.168627  0  -0.314159  -0.546571  0  2.338199  0
O  O199  1  0.04770864  0.83112914  0.46549747  1  -1.164868  0  -0.313597  -0.545129  0  2.33833  0
O  O200  1  0.98765387  0.86043052  0.64862901  1  -1.138644  0  -0.340007  -0.577627  0  2.325753  0
O  O201  1  0.12682909  0.13913337  0.85149763  1  -1.160252  0  -0.339917  -0.577676  0  2.326581  0
O  O202  1  0.01233802  0.13957235  0.35136324  1  -1.138802  0  -0.339906  -0.577478  0  2.325897  0
O  O203  1  0.87319934  0.86085539  0.14848588  1  -1.162737  0  -0.339891  -0.57758  0  2.326802  0
O  O204  1  0.78561428  0.80638923  0.58593237  1  -1.17571  0  -0.32883  -0.556478  0  2.109632  0
O  O205  1  0.97867332  0.19296149  0.91409843  1  -1.180879  0  -0.327985  -0.556294  0  2.109924  0
O  O206  1  0.21437605  0.19360326  0.41406926  1  -1.175508  0  -0.328831  -0.556529  0  2.108874  0
O  O207  1  0.02135003  0.80702254  0.08589838  1  -1.180551  0  -0.327928  -0.556177  0  2.110158  0
