# generated using pymatgen
data_Zn2PH14C6NO6
_symmetry_space_group_name_H-M   'P 1'
_cell_length_a   8.32100076
_cell_length_b   9.96234418
_cell_length_c   12.71751257
_cell_angle_alpha   90.00003772
_cell_angle_beta   90.85163825
_cell_angle_gamma   89.99991371
_symmetry_Int_Tables_number   1
_chemical_formula_structural   Zn2PH14C6NO6
_chemical_formula_sum   'Zn8 P4 H56 C24 N4 O24'
_cell_volume   1054.12302992
_cell_formula_units_Z   4
loop_
 _symmetry_equiv_pos_site_id
 _symmetry_equiv_pos_as_xyz
  1  'x, y, z'
loop_
 _atom_site_type_symbol
 _atom_site_label
 _atom_site_symmetry_multiplicity
 _atom_site_fract_x
 _atom_site_fract_y
 _atom_site_fract_z
 _atom_site_occupancy
 _atom_site_hle17_bader_spin_density
 _atom_site_hle17_ddec_charge
 _atom_site_hle17_ddec_spin_density
 _atom_site_hle17_ddec_sum_bond_order
 _atom_site_hle17_magmom
 _atom_site_hse06_10hf_bader_spin_density
 _atom_site_hse06_10hf_ddec_charge
 _atom_site_hse06_10hf_ddec_spin_density
 _atom_site_hse06_10hf_ddec_sum_bond_order
 _atom_site_hse06_10hf_magmom
 _atom_site_hse06_bader_spin_density
 _atom_site_hse06_ddec_charge
 _atom_site_hse06_ddec_spin_density
 _atom_site_hse06_ddec_sum_bond_order
 _atom_site_hse06_magmom
 _atom_site_pbe_bader_spin_density
 _atom_site_pbe_cm5_charge
 _atom_site_pbe_ddec_charge
 _atom_site_pbe_ddec_spin_density
 _atom_site_pbe_ddec_sum_bond_order
 _atom_site_pbe_magmom
Zn  Zn0  1  0.23315048  0.08860853  0.02266714  1  0  1.071043  0  1.817823  0  0  0.898028  0  2.262516  0  0  0.944449  0  2.206097  0  0  0.681046  0.864003  0  2.302347  0
Zn  Zn1  1  0.76684994  0.58860717  0.47733377  1  0  1.070929  0  1.817777  0  0  0.897972  0  2.262441  0  0  0.944383  0  2.206023  0  0  0.681036  0.863944  0  2.30227  0
Zn  Zn2  1  0.76685035  0.91139185  0.97733340  1  0  1.070987  0  1.817869  0  0  0.898001  0  2.262555  0  0  0.94442  0  2.206136  0  0  0.681025  0.863971  0  2.30239  0
Zn  Zn3  1  0.23315089  0.41139321  0.52266678  1  0  1.070924  0  1.817801  0  0  0.897951  0  2.262471  0  0  0.944364  0  2.206051  0  0  0.681042  0.863928  0  2.302301  0
Zn  Zn4  1  0.41845033  0.89096408  0.82867350  1  0  1.185157  0  1.790677  0  0  1.015182  0  2.267933  0  0  1.060701  0  2.205716  0  0  0.690778  0.981685  0  2.31176  0
Zn  Zn5  1  0.58155091  0.39096212  0.67132902  1  0  1.185307  0  1.790408  0  0  1.0153  0  2.267588  0  0  1.06082  0  2.205378  0  0  0.690912  0.981807  0  2.31142  0
Zn  Zn6  1  0.58154929  0.10903629  0.17132703  1  0  1.185216  0  1.790606  0  0  1.015235  0  2.267866  0  0  1.060752  0  2.205652  0  0  0.690802  0.981742  0  2.311697  0
Zn  Zn7  1  0.41844992  0.60903726  0.32867152  1  0  1.185322  0  1.790389  0  0  1.015329  0  2.267572  0  0  1.060848  0  2.20536  0  0  0.69092  0.981836  0  2.311402  0
P  P8  1  0.31186671  0.89428038  0.21806254  1  0  1.423607  0  5.012089  0  0  1.237875  0  5.518708  0  0  1.289583  0  5.480874  0  0  0.270094  1.201482  0  5.54439  0
P  P9  1  0.68811990  0.39430849  0.28194146  1  0  1.42346  0  5.012174  0  0  1.237801  0  5.518734  0  0  1.289508  0  5.480906  0  0  0.270079  1.201411  0  5.544412  0
P  P10  1  0.68813292  0.10571999  0.78193719  1  0  1.423571  0  5.01211  0  0  1.237856  0  5.518711  0  0  1.289565  0  5.480879  0  0  0.270126  1.201463  0  5.54439  0
P  P11  1  0.31187853  0.60569289  0.71805826  1  0  1.423486  0  5.012157  0  0  1.237797  0  5.518726  0  0  1.289502  0  5.480901  0  0  0.270085  1.201407  0  5.5444  0
H  H12  1  0.19326118  0.94297786  0.28721149  1  0  -0.186671  0  0.934829  0  0  -0.156045  0  1.033368  0  0  -0.160121  0  1.028353  0  0  0.072012  -0.15415  0  1.038871  0
H  H13  1  0.80673502  0.44297263  0.21278796  1  0  -0.186658  0  0.934894  0  0  -0.156016  0  1.033402  0  0  -0.160095  0  1.028391  0  0  0.072052  -0.154122  0  1.038908  0
H  H14  1  0.80673964  0.05702151  0.71278905  1  0  -0.186666  0  0.934826  0  0  -0.156031  0  1.033351  0  0  -0.160108  0  1.028336  0  0  0.072011  -0.154138  0  1.038856  0
H  H15  1  0.19326221  0.55702774  0.78721174  1  0  -0.186661  0  0.934881  0  0  -0.156007  0  1.033378  0  0  -0.160086  0  1.028369  0  0  0.072042  -0.154113  0  1.038882  0
H  H16  1  0.91810709  0.09852045  0.10323280  1  0  0.37698  0  0.932125  0  0  0.347344  0  1.005961  0  0  0.358957  0  0.994293  0  0  0.289769  0.339215  0  1.013887  0
H  H17  1  0.08189211  0.59851889  0.39676731  1  0  0.376966  0  0.932165  0  0  0.347301  0  1.006043  0  0  0.358926  0  0.99435  0  0  0.289755  0.339156  0  1.014  0
H  H18  1  0.08189254  0.90147992  0.89676694  1  0  0.376961  0  0.932171  0  0  0.347299  0  1.006046  0  0  0.358925  0  0.994351  0  0  0.289747  0.339152  0  1.014003  0
H  H19  1  0.91810751  0.40148149  0.60323321  1  0  0.376984  0  0.932127  0  0  0.347338  0  1.005977  0  0  0.358952  0  0.994307  0  0  0.28977  0.33921  0  1.013903  0
H  H20  1  0.36653691  0.22868725  0.81443595  1  0  0.083092  0  0.956093  0  0  0.097179  0  1.022188  0  0  0.098183  0  1.021714  0  0  0.109938  0.096219  0  1.022809  0
H  H21  1  0.63346226  0.72868983  0.68556331  1  0  0.083122  0  0.956047  0  0  0.097215  0  1.022128  0  0  0.098219  0  1.021653  0  0  0.109945  0.096255  0  1.022747  0
H  H22  1  0.63346392  0.77131011  0.18556459  1  0  0.083098  0  0.956065  0  0  0.097169  0  1.022166  0  0  0.098191  0  1.02167  0  0  0.10993  0.096209  0  1.022786  0
H  H23  1  0.36653739  0.27130954  0.31443564  1  0  0.083123  0  0.956052  0  0  0.097217  0  1.022133  0  0  0.098221  0  1.021657  0  0  0.109948  0.096258  0  1.022753  0
H  H24  1  0.18647998  0.30061921  0.76228693  1  0  0.072733  0  0.936372  0  0  0.088001  0  1.00313  0  0  0.088753  0  1.002592  0  0  0.101032  0.087145  0  1.004015  0
H  H25  1  0.81352146  0.80062261  0.73771240  1  0  0.072784  0  0.936339  0  0  0.088037  0  1.003095  0  0  0.088788  0  1.00256  0  0  0.101057  0.08718  0  1.003976  0
H  H26  1  0.81352205  0.69937816  0.23771284  1  0  0.072731  0  0.93638  0  0  0.087984  0  1.003143  0  0  0.088733  0  1.002612  0  0  0.101035  0.087128  0  1.004027  0
H  H27  1  0.18647819  0.19937777  0.26228655  1  0  0.072771  0  0.936342  0  0  0.088024  0  1.003103  0  0  0.088774  0  1.002569  0  0  0.101053  0.087168  0  1.003985  0
H  H28  1  0.03926443  0.08867322  0.79376082  1  0  0.04094  0  0.962602  0  0  0.057343  0  1.032328  0  0  0.056787  0  1.0327  0  0  0.093784  0.056376  0  1.033954  0
H  H29  1  0.96073496  0.58867440  0.70624072  1  0  0.040912  0  0.962608  0  0  0.057335  0  1.032319  0  0  0.05678  0  1.03269  0  0  0.093777  0.056366  0  1.033953  0
H  H30  1  0.96073519  0.91132616  0.20624049  1  0  0.04092  0  0.962614  0  0  0.057329  0  1.032341  0  0  0.056775  0  1.032712  0  0  0.09378  0.056362  0  1.033973  0
H  H31  1  0.03926466  0.41132598  0.29375980  1  0  0.040933  0  0.962596  0  0  0.057349  0  1.032313  0  0  0.056794  0  1.032685  0  0  0.093787  0.056382  0  1.033944  0
H  H32  1  0.21606494  0.05753482  0.72010134  1  0  0.049888  0  0.937042  0  0  0.06943  0  0.999967  0  0  0.069307  0  0.99957  0  0  0.098112  0.069713  0  0.99969  0
H  H33  1  0.78393331  0.55753829  0.77989939  1  0  0.049909  0  0.936974  0  0  0.069418  0  0.999957  0  0  0.069294  0  0.999559  0  0  0.098114  0.069702  0  0.999676  0
H  H34  1  0.78393348  0.94246355  0.27989917  1  0  0.049864  0  0.937028  0  0  0.069406  0  0.999969  0  0  0.069284  0  0.999571  0  0  0.098099  0.06969  0  0.999691  0
H  H35  1  0.21606631  0.44246309  0.22010113  1  0  0.049866  0  0.937028  0  0  0.069417  0  0.999965  0  0  0.069294  0  0.999565  0  0  0.098111  0.069701  0  0.999685  0
H  H36  1  0.25136848  0.41112599  0.04480628  1  0  0.065385  0  0.939414  0  0  0.085337  0  0.998422  0  0  0.085604  0  0.998917  0  0  0.104488  0.085141  0  0.997995  0
H  H37  1  0.74863259  0.91112464  0.45519245  1  0  0.065377  0  0.939381  0  0  0.085342  0  0.998382  0  0  0.08561  0  0.998879  0  0  0.104494  0.085145  0  0.997954  0
H  H38  1  0.74863115  0.58887338  0.95519345  1  0  0.065395  0  0.939426  0  0  0.085339  0  0.998426  0  0  0.085606  0  0.998923  0  0  0.104476  0.085144  0  0.997997  0
H  H39  1  0.25136826  0.08887474  0.54480652  1  0  0.06536  0  0.939446  0  0  0.085309  0  0.998449  0  0  0.085577  0  0.998945  0  0  0.104479  0.085114  0  0.998018  0
H  H40  1  0.33337377  0.44917860  0.91939269  1  0  0.064224  0  0.967775  0  0  0.078822  0  1.037799  0  0  0.079229  0  1.038195  0  0  0.098366  0.078247  0  1.03832  0
H  H41  1  0.66662623  0.94917803  0.58060512  1  0  0.064257  0  0.967698  0  0  0.078854  0  1.037722  0  0  0.079266  0  1.038113  0  0  0.098375  0.078279  0  1.038243  0
H  H42  1  0.66662588  0.55082178  0.08060626  1  0  0.064211  0  0.967741  0  0  0.078818  0  1.037735  0  0  0.079226  0  1.038128  0  0  0.098356  0.078243  0  1.038259  0
H  H43  1  0.33337582  0.05082234  0.41939387  1  0  0.064262  0  0.967716  0  0  0.078836  0  1.037757  0  0  0.079245  0  1.038152  0  0  0.098367  0.07826  0  1.038278  0
H  H44  1  0.54103449  0.27737955  0.94154488  1  0  0.047681  0  0.956138  0  0  0.062376  0  1.023141  0  0  0.063057  0  1.022412  0  0  0.08977  0.061687  0  1.023483  0
H  H45  1  0.45896579  0.77737723  0.55845442  1  0  0.047655  0  0.956197  0  0  0.062358  0  1.023194  0  0  0.06304  0  1.022462  0  0  0.089763  0.061667  0  1.023541  0
H  H46  1  0.45896636  0.72262183  0.05845409  1  0  0.04767  0  0.956166  0  0  0.062357  0  1.0232  0  0  0.063038  0  1.022471  0  0  0.089769  0.061669  0  1.02354  0
H  H47  1  0.54103503  0.22262315  0.44154612  1  0  0.047639  0  0.956218  0  0  0.062352  0  1.023198  0  0  0.063034  0  1.022466  0  0  0.089759  0.061661  0  1.023546  0
H  H48  1  0.53200769  0.37425598  0.05930065  1  0  0.039831  0  0.960052  0  0  0.058563  0  1.024963  0  0  0.058239  0  1.025136  0  0  0.091635  0.058473  0  1.025983  0
H  H49  1  0.46799343  0.87425196  0.44069963  1  0  0.03983  0  0.960104  0  0  0.058568  0  1.025012  0  0  0.058253  0  1.025177  0  0  0.091656  0.058479  0  1.026032  0
H  H50  1  0.46799435  0.62574741  0.94069912  1  0  0.039831  0  0.960065  0  0  0.05856  0  1.024996  0  0  0.058243  0  1.025161  0  0  0.091638  0.058471  0  1.026013  0
H  H51  1  0.53200620  0.12574842  0.55930089  1  0  0.039852  0  0.960065  0  0  0.05857  0  1.024998  0  0  0.058252  0  1.025163  0  0  0.091639  0.058481  0  1.026016  0
H  H52  1  0.95233453  0.24730000  0.88545639  1  0  0.090014  0  0.961752  0  0  0.10464  0  1.023188  0  0  0.105916  0  1.022975  0  0  0.110366  0.104174  0  1.022646  0
H  H53  1  0.04766579  0.74730025  0.61454368  1  0  0.090005  0  0.961721  0  0  0.104642  0  1.023158  0  0  0.105918  0  1.022944  0  0  0.110368  0.104177  0  1.022617  0
H  H54  1  0.04766631  0.75270138  0.11454257  1  0  0.089991  0  0.961733  0  0  0.104625  0  1.02317  0  0  0.105899  0  1.022956  0  0  0.110358  0.10416  0  1.022629  0
H  H55  1  0.95233505  0.25270013  0.38545529  1  0  0.089995  0  0.96174  0  0  0.104633  0  1.023162  0  0  0.105908  0  1.022948  0  0  0.110354  0.104168  0  1.022622  0
H  H56  1  0.00711799  0.41516171  0.91544928  1  0  0.05741  0  0.936155  0  0  0.075096  0  1.002479  0  0  0.075418  0  1.002635  0  0  0.096739  0.074778  0  1.002545  0
H  H57  1  0.99288204  0.91516174  0.58455087  1  0  0.057412  0  0.936154  0  0  0.075107  0  1.002478  0  0  0.075428  0  1.002637  0  0  0.09674  0.074789  0  1.002543  0
H  H58  1  0.99288285  0.58483867  0.08455047  1  0  0.057381  0  0.936147  0  0  0.075068  0  1.002489  0  0  0.07539  0  1.002645  0  0  0.096749  0.074751  0  1.002557  0
H  H59  1  0.00711759  0.08483763  0.41544965  1  0  0.057418  0  0.936147  0  0  0.075108  0  1.002477  0  0  0.075428  0  1.002636  0  0  0.09675  0.074791  0  1.002542  0
H  H60  1  0.01378621  0.36426571  0.10449534  1  0  0.02667  0  0.967941  0  0  0.038069  0  1.047016  0  0  0.038214  0  1.04622  0  0  0.088724  0.037864  0  1.047866  0
H  H61  1  0.98621492  0.86426501  0.39550493  1  0  0.026688  0  0.967906  0  0  0.038081  0  1.046973  0  0  0.038225  0  1.046178  0  0  0.088738  0.037875  0  1.047822  0
H  H62  1  0.98621463  0.63573367  0.89550362  1  0  0.02665  0  0.967955  0  0  0.03805  0  1.047016  0  0  0.038194  0  1.046222  0  0  0.088714  0.037845  0  1.047866  0
H  H63  1  0.01378470  0.13573637  0.60449559  1  0  0.026718  0  0.967906  0  0  0.038118  0  1.046958  0  0  0.038262  0  1.046165  0  0  0.088743  0.037913  0  1.047806  0
H  H64  1  0.83440199  0.29414211  0.05020239  1  0  0.059569  0  0.924644  0  0  0.078444  0  0.986878  0  0  0.077938  0  0.987455  0  0  0.107768  0.078285  0  0.987149  0
H  H65  1  0.16559927  0.79414049  0.44979785  1  0  0.059568  0  0.92465  0  0  0.078441  0  0.986868  0  0  0.077934  0  0.987447  0  0  0.107769  0.078282  0  0.98714  0
H  H66  1  0.16559886  0.70585826  0.94979658  1  0  0.059504  0  0.924603  0  0  0.078376  0  0.986844  0  0  0.077869  0  0.98742  0  0  0.107729  0.078216  0  0.987116  0
H  H67  1  0.83440156  0.20586089  0.55020190  1  0  0.059547  0  0.924704  0  0  0.078424  0  0.986924  0  0  0.077916  0  0.987504  0  0  0.107741  0.078266  0  0.987194  0
C  C68  1  0.23530571  0.22930366  0.82096143  1  0  -0.055772  0  3.638886  0  0  -0.112665  0  3.894061  0  0  -0.110529  0  3.907431  0  0  -0.080077  -0.113905  0  3.884783  0
C  C69  1  0.76469464  0.72930506  0.67903864  1  0  -0.055879  0  3.638835  0  0  -0.112744  0  3.894036  0  0  -0.110605  0  3.907401  0  0  -0.0801  -0.113985  0  3.884756  0
C  C70  1  0.76469511  0.77069371  0.17903911  1  0  -0.055798  0  3.638803  0  0  -0.112662  0  3.894037  0  0  -0.110534  0  3.907395  0  0  -0.08008  -0.113904  0  3.88476  0
C  C71  1  0.23530499  0.27069531  0.32096110  1  0  -0.055846  0  3.63883  0  0  -0.112717  0  3.894048  0  0  -0.110578  0  3.907413  0  0  -0.080093  -0.113958  0  3.88477  0
C  C72  1  0.17168620  0.08887991  0.79745010  1  0  0.121364  0  3.670357  0  0  0.052716  0  3.942837  0  0  0.060901  0  3.951969  0  0  -0.090316  0.046997  0  3.936883  0
C  C73  1  0.82831320  0.58888025  0.70255066  1  0  0.121452  0  3.670314  0  0  0.052782  0  3.942832  0  0  0.060968  0  3.951968  0  0  -0.090302  0.047065  0  3.936876  0
C  C74  1  0.82831463  0.91112047  0.20255044  1  0  0.121421  0  3.670335  0  0  0.052752  0  3.942859  0  0  0.060936  0  3.951999  0  0  -0.090326  0.047032  0  3.936905  0
C  C75  1  0.17168642  0.41112012  0.29744986  1  0  0.121451  0  3.670329  0  0  0.052757  0  3.942868  0  0  0.060942  0  3.951999  0  0  -0.090306  0.047041  0  3.936912  0
C  C76  1  0.30847390  0.36759744  0.97532598  1  0  -0.047583  0  3.64152  0  0  -0.10549  0  3.896543  0  0  -0.103619  0  3.910598  0  0  -0.078666  -0.107144  0  3.88716  0
C  C77  1  0.69152503  0.86759579  0.52467256  1  0  -0.04753  0  3.641304  0  0  -0.105445  0  3.896409  0  0  -0.103585  0  3.910478  0  0  -0.078656  -0.107099  0  3.887022  0
C  C78  1  0.69152455  0.63240395  0.02467216  1  0  -0.047587  0  3.641478  0  0  -0.105426  0  3.896473  0  0  -0.103557  0  3.910534  0  0  -0.078632  -0.107081  0  3.887092  0
C  C79  1  0.30847580  0.13240459  0.47532720  1  0  -0.047571  0  3.641489  0  0  -0.105422  0  3.896496  0  0  -0.103558  0  3.910559  0  0  -0.078655  -0.107076  0  3.887109  0
C  C80  1  0.46616254  0.30108046  0.00996394  1  0  0.13074  0  3.704162  0  0  0.069  0  3.971944  0  0  0.076906  0  3.980594  0  0  -0.093738  0.063462  0  3.966186  0
C  C81  1  0.53383634  0.80107840  0.49003391  1  0  0.130773  0  3.70414  0  0  0.069008  0  3.971979  0  0  0.076913  0  3.980627  0  0  -0.093722  0.063469  0  3.96622  0
C  C82  1  0.53383590  0.69891992  0.99003499  1  0  0.130811  0  3.704133  0  0  0.069016  0  3.97201  0  0  0.076918  0  3.98066  0  0  -0.093728  0.063478  0  3.966254  0
C  C83  1  0.46616450  0.19892198  0.50996585  1  0  0.13078  0  3.704172  0  0  0.069015  0  3.97199  0  0  0.076921  0  3.980636  0  0  -0.093707  0.063477  0  3.966229  0
C  C84  1  0.02550519  0.30927096  0.93874919  1  0  -0.055458  0  3.650635  0  0  -0.113048  0  3.906905  0  0  -0.110888  0  3.919526  0  0  -0.078066  -0.114362  0  3.897157  0
C  C85  1  0.97449622  0.80927201  0.56125094  1  0  -0.05542  0  3.650546  0  0  -0.113047  0  3.906876  0  0  -0.110886  0  3.919496  0  0  -0.078047  -0.114362  0  3.897127  0
C  C86  1  0.97449564  0.69072841  0.06125057  1  0  -0.055325  0  3.650475  0  0  -0.11294  0  3.90681  0  0  -0.110776  0  3.919426  0  0  -0.078033  -0.114257  0  3.897067  0
C  C87  1  0.02550461  0.19072837  0.43874882  1  0  -0.055407  0  3.650569  0  0  -0.11301  0  3.906874  0  0  -0.110848  0  3.919491  0  0  -0.078049  -0.114329  0  3.89713  0
C  C88  1  0.96624331  0.28714468  0.05036940  1  0  0.133516  0  3.633828  0  0  0.066814  0  3.913667  0  0  0.074654  0  3.92019  0  0  -0.076238  0.061395  0  3.90923  0
C  C89  1  0.03375796  0.78714322  0.44963085  1  0  0.133498  0  3.633853  0  0  0.066848  0  3.913637  0  0  0.074688  0  3.92016  0  0  -0.076246  0.061428  0  3.9092  0
C  C90  1  0.03375634  0.71285569  0.94962956  1  0  0.13358  0  3.633766  0  0  0.066921  0  3.913551  0  0  0.074758  0  3.92008  0  0  -0.076198  0.061501  0  3.909113  0
C  C91  1  0.96624286  0.21285716  0.55036970  1  0  0.133421  0  3.633894  0  0  0.066752  0  3.913692  0  0  0.07459  0  3.920215  0  0  -0.076235  0.061331  0  3.909256  0
N  N92  1  0.19485911  0.26927224  0.92915499  1  0  -0.225483  0  3.308504  0  0  -0.120923  0  3.542075  0  0  -0.139618  0  3.563889  0  0  -0.348457  -0.107458  0  3.526237  0
N  N93  1  0.80513998  0.76927249  0.57084429  1  0  -0.225485  0  3.308367  0  0  -0.120954  0  3.54201  0  0  -0.139646  0  3.563823  0  0  -0.348467  -0.107487  0  3.526172  0
N  N94  1  0.80514052  0.73072714  0.07084475  1  0  -0.22553  0  3.308412  0  0  -0.121027  0  3.542058  0  0  -0.139723  0  3.563872  0  0  -0.348479  -0.107562  0  3.526223  0
N  N95  1  0.19486085  0.23072788  0.42915546  1  0  -0.225442  0  3.308423  0  0  -0.120936  0  3.542056  0  0  -0.139629  0  3.563865  0  0  -0.348443  -0.107469  0  3.526222  0
O  O96  1  0.22301846  0.99435154  0.87673635  1  0  -0.702937  0  2.122143  0  0  -0.591329  0  2.413561  0  0  -0.620809  0  2.397621  0  0  -0.380564  -0.569012  0  2.423879  0
O  O97  1  0.77698262  0.49435431  0.62326465  1  0  -0.703003  0  2.122201  0  0  -0.59135  0  2.413566  0  0  -0.620829  0  2.39764  0  0  -0.380548  -0.569041  0  2.423877  0
O  O98  1  0.77698237  0.00564582  0.12326419  1  0  -0.702938  0  2.122146  0  0  -0.591335  0  2.413567  0  0  -0.620805  0  2.39763  0  0  -0.380547  -0.569027  0  2.423881  0
O  O99  1  0.22301702  0.50564607  0.37673509  1  0  -0.703014  0  2.122236  0  0  -0.591354  0  2.413609  0  0  -0.620846  0  2.3977  0  0  -0.380555  -0.569035  0  2.423926  0
O  O100  1  0.43371078  0.18306912  0.06878242  1  0  -0.74154  0  2.163397  0  0  -0.635072  0  2.498444  0  0  -0.663796  0  2.477262  0  0  -0.409628  -0.613825  0  2.512173  0
O  O101  1  0.56629070  0.68306597  0.43121620  1  0  -0.741597  0  2.16337  0  0  -0.635114  0  2.498408  0  0  -0.66384  0  2.477227  0  0  -0.409663  -0.613862  0  2.512135  0
O  O102  1  0.56629248  0.81693427  0.93121580  1  0  -0.741553  0  2.163337  0  0  -0.635059  0  2.49838  0  0  -0.663785  0  2.477202  0  0  -0.409643  -0.613811  0  2.512107  0
O  O103  1  0.43370894  0.31693341  0.56878354  1  0  -0.741592  0  2.163384  0  0  -0.635109  0  2.498419  0  0  -0.663837  0  2.47724  0  0  -0.409654  -0.613859  0  2.512148  0
O  O104  1  0.01655131  0.15877993  0.08934224  1  0  -0.578266  0  2.166341  0  0  -0.501856  0  2.429071  0  0  -0.522295  0  2.413194  0  0  -0.397631  -0.486947  0  2.439825  0
O  O105  1  0.98344658  0.65878025  0.41065789  1  0  -0.578264  0  2.166377  0  0  -0.501851  0  2.429103  0  0  -0.522292  0  2.413209  0  0  -0.397617  -0.486927  0  2.43988  0
O  O106  1  0.98344712  0.84121945  0.91065748  1  0  -0.578266  0  2.166377  0  0  -0.501855  0  2.429121  0  0  -0.522301  0  2.413226  0  0  -0.397617  -0.486934  0  2.439898  0
O  O107  1  0.01655305  0.34122113  0.58934185  1  0  -0.578233  0  2.166318  0  0  -0.501841  0  2.429055  0  0  -0.522277  0  2.413179  0  0  -0.39762  -0.486928  0  2.439805  0
O  O108  1  0.25006477  0.92305172  0.10605618  1  0  -0.837451  0  2.054261  0  0  -0.735587  0  2.349975  0  0  -0.765069  0  2.326612  0  0  -0.385259  -0.713509  0  2.364048  0
O  O109  1  0.74992793  0.42304671  0.39393771  1  0  -0.83711  0  2.054439  0  0  -0.735403  0  2.350239  0  0  -0.764876  0  2.326871  0  0  -0.385154  -0.713325  0  2.364309  0
O  O110  1  0.74993485  0.07694866  0.89394434  1  0  -0.837362  0  2.054189  0  0  -0.735539  0  2.349929  0  0  -0.765022  0  2.326568  0  0  -0.385231  -0.71346  0  2.363999  0
O  O111  1  0.25007051  0.57695266  0.60606122  1  0  -0.837131  0  2.054434  0  0  -0.735373  0  2.350211  0  0  -0.764847  0  2.326846  0  0  -0.385151  -0.713296  0  2.364281  0
O  O112  1  0.32024608  0.74226596  0.23575370  1  0  -0.852286  0  2.038077  0  0  -0.753098  0  2.344408  0  0  -0.781913  0  2.317396  0  0  -0.390433  -0.732005  0  2.362192  0
O  O113  1  0.67975047  0.24224689  0.26424566  1  0  -0.852327  0  2.037074  0  0  -0.753155  0  2.343379  0  0  -0.781979  0  2.316375  0  0  -0.390474  -0.732055  0  2.361154  0
O  O114  1  0.67975596  0.25773341  0.76424529  1  0  -0.852291  0  2.038128  0  0  -0.753086  0  2.344435  0  0  -0.781902  0  2.317423  0  0  -0.390465  -0.731994  0  2.36222  0
O  O115  1  0.32025036  0.75775249  0.73575409  1  0  -0.852311  0  2.037085  0  0  -0.75316  0  2.343418  0  0  -0.781983  0  2.316414  0  0  -0.390463  -0.73206  0  2.36119  0
O  O116  1  0.46681397  0.96926064  0.24970103  1  0  -0.856543  0  2.039023  0  0  -0.755254  0  2.335236  0  0  -0.784258  0  2.311238  0  0  -0.385477  -0.734136  0  2.351092  0
O  O117  1  0.53319303  0.46925680  0.25029625  1  0  -0.856542  0  2.03955  0  0  -0.75528  0  2.335802  0  0  -0.784263  0  2.31177  0  0  -0.385533  -0.734162  0  2.351654  0
O  O118  1  0.53318565  0.03073973  0.75029949  1  0  -0.856516  0  2.039021  0  0  -0.755237  0  2.33524  0  0  -0.784241  0  2.31124  0  0  -0.385478  -0.734118  0  2.351093  0
O  O119  1  0.46680420  0.53074258  0.74970345  1  0  -0.856545  0  2.039564  0  0  -0.75527  0  2.335819  0  0  -0.78425  0  2.311779  0  0  -0.385519  -0.734154  0  2.351671  0
