# generated using pymatgen
data_TmH4C3O8
_symmetry_space_group_name_H-M   'P 1'
_cell_length_a   6.30324802
_cell_length_b   6.55031560
_cell_length_c   8.91045485
_cell_angle_alpha   85.40324711
_cell_angle_beta   76.39852797
_cell_angle_gamma   80.38712746
_symmetry_Int_Tables_number   1
_chemical_formula_structural   TmH4C3O8
_chemical_formula_sum   'Tm2 H8 C6 O16'
_cell_volume   352.23777974
_cell_formula_units_Z   2
loop_
 _symmetry_equiv_pos_site_id
 _symmetry_equiv_pos_as_xyz
  1  'x, y, z'
loop_
 _atom_site_type_symbol
 _atom_site_label
 _atom_site_symmetry_multiplicity
 _atom_site_fract_x
 _atom_site_fract_y
 _atom_site_fract_z
 _atom_site_occupancy
 _atom_site_hle17_bader_spin_density
 _atom_site_hle17_ddec_charge
 _atom_site_hle17_ddec_spin_density
 _atom_site_hle17_ddec_sum_bond_order
 _atom_site_hle17_magmom
 _atom_site_hse06_10hf_bader_spin_density
 _atom_site_hse06_10hf_ddec_charge
 _atom_site_hse06_10hf_ddec_spin_density
 _atom_site_hse06_10hf_ddec_sum_bond_order
 _atom_site_hse06_10hf_magmom
 _atom_site_hse06_bader_spin_density
 _atom_site_hse06_ddec_charge
 _atom_site_hse06_ddec_spin_density
 _atom_site_hse06_ddec_sum_bond_order
 _atom_site_hse06_magmom
 _atom_site_pbe_bader_spin_density
 _atom_site_pbe_cm5_charge
 _atom_site_pbe_ddec_charge
 _atom_site_pbe_ddec_spin_density
 _atom_site_pbe_ddec_sum_bond_order
 _atom_site_pbe_magmom
Tm  Tm0  1  0.33081646  0.25600788  0.29574735  1  0  2.155448  0  1.714546  0  0  2.070533  0  2.074286  0  0  2.12879  0  2.017347  0  0  1.531262  2.036819  0  2.100592  0
Tm  Tm1  1  0.66918550  0.74396681  0.70426020  1  0  2.155663  0  1.714168  0  0  2.070541  0  2.07412  0  0  2.128911  0  2.016964  0  0  1.531237  2.036789  0  2.100494  0
H  H2  1  0.69415320  0.91684511  0.28894451  1  0  0.452726  0  0.831767  0  0  0.424585  0  0.890025  0  0  0.435602  0  0.873779  0  0  0.312829  0.417084  0  0.901108  0
H  H3  1  0.30585709  0.08316716  0.71105170  1  0  0.452702  0  0.831888  0  0  0.424591  0  0.890003  0  0  0.435614  0  0.873748  0  0  0.312844  0.417086  0  0.901091  0
H  H4  1  0.62660197  0.88837608  0.12962423  1  0  0.459737  0  0.820008  0  0  0.432766  0  0.874108  0  0  0.444136  0  0.85747  0  0  0.31362  0.425091  0  0.885348  0
H  H5  1  0.37340577  0.11163148  0.87037178  1  0  0.459734  0  0.820018  0  0  0.432765  0  0.874118  0  0  0.444131  0  0.857485  0  0  0.313581  0.42509  0  0.885357  0
H  H6  1  0.96720639  0.59970263  0.31862407  1  0  0.450908  0  0.837205  0  0  0.420968  0  0.899336  0  0  0.432164  0  0.88271  0  0  0.309937  0.413319  0  0.910739  0
H  H7  1  0.03279895  0.40028039  0.68138765  1  0  0.450972  0  0.837075  0  0  0.421043  0  0.899197  0  0  0.432241  0  0.882567  0  0  0.309977  0.413397  0  0.910598  0
H  H8  1  0.88818129  0.45573975  0.21404699  1  0  0.456308  0  0.821576  0  0  0.431481  0  0.872075  0  0  0.442127  0  0.856633  0  0  0.313544  0.424268  0  0.882554  0
H  H9  1  0.11181279  0.54426156  0.78597306  1  0  0.456406  0  0.821412  0  0  0.431555  0  0.871957  0  0  0.442208  0  0.856502  0  0  0.313512  0.424337  0  0.882443  0
C  C10  1  0.01371120  0.04272056  0.57489810  1  0  0.594093  0  3.888386  0  0  0.544786  0  4.197727  0  0  0.577216  0  4.184891  0  0  0.22634  0.523116  0  4.206598  0
C  C11  1  0.98612531  0.95743310  0.42507514  1  0  0.594136  0  3.8875  0  0  0.544599  0  4.197109  0  0  0.577038  0  4.184287  0  0  0.226246  0.522917  0  4.205981  0
C  C12  1  0.58853834  0.40682024  0.50961008  1  0  0.563855  0  3.927192  0  0  0.517475  0  4.232799  0  0  0.549547  0  4.22152  0  0  0.215397  0.496104  0  4.240316  0
C  C13  1  0.41148769  0.59322578  0.49034492  1  0  0.563492  0  3.92723  0  0  0.51732  0  4.232555  0  0  0.549374  0  4.221303  0  0  0.215274  0.495952  0  4.240066  0
C  C14  1  0.57373478  0.55045365  0.04005988  1  0  0.566977  0  3.913679  0  0  0.519231  0  4.220458  0  0  0.550356  0  4.210879  0  0  0.224719  0.498367  0  4.227178  0
C  C15  1  0.42626901  0.44953906  0.95995426  1  0  0.567012  0  3.913286  0  0  0.519229  0  4.220103  0  0  0.550354  0  4.210521  0  0  0.224657  0.498362  0  4.226825  0
O  O16  1  0.14946152  0.17242194  0.55707395  1  0  -0.699819  0  2.141877  0  0  -0.647775  0  2.378872  0  0  -0.675314  0  2.368996  0  0  -0.352334  -0.629824  0  2.384979  0
O  O17  1  0.85057910  0.82748427  0.44293668  1  0  -0.699722  0  2.141271  0  0  -0.647516  0  2.378246  0  0  -0.675037  0  2.368319  0  0  -0.352219  -0.629565  0  2.38435  0
O  O18  1  0.90353520  0.97933412  0.70144517  1  0  -0.624445  0  2.010496  0  0  -0.590326  0  2.248322  0  0  -0.614258  0  2.236162  0  0  -0.370725  -0.575328  0  2.255988  0
O  O19  1  0.09658961  0.02057537  0.29853221  1  0  -0.624528  0  2.01028  0  0  -0.590359  0  2.248184  0  0  -0.614266  0  2.236002  0  0  -0.370713  -0.575366  0  2.25585  0
O  O20  1  0.58395278  0.24184915  0.44674623  1  0  -0.640612  0  2.09678  0  0  -0.602219  0  2.3522  0  0  -0.628698  0  2.344575  0  0  -0.371534  -0.585012  0  2.35686  0
O  O21  1  0.41599362  0.75818416  0.55326624  1  0  -0.640589  0  2.096274  0  0  -0.602028  0  2.351326  0  0  -0.628515  0  2.343709  0  0  -0.371346  -0.584821  0  2.355984  0
O  O22  1  0.72524793  0.43530539  0.58587012  1  0  -0.645628  0  2.142665  0  0  -0.605175  0  2.396878  0  0  -0.632389  0  2.390357  0  0  -0.378009  -0.587418  0  2.400597  0
O  O23  1  0.27475223  0.56464139  0.41415121  1  0  -0.6454  0  2.14293  0  0  -0.605077  0  2.397083  0  0  -0.632271  0  2.390583  0  0  -0.378094  -0.587332  0  2.400793  0
O  O24  1  0.61199702  0.46024103  0.16362312  1  0  -0.648521  0  2.105285  0  0  -0.600781  0  2.337081  0  0  -0.626757  0  2.328357  0  0  -0.337069  -0.583841  0  2.342325  0
O  O25  1  0.38800458  0.53979298  0.83638404  1  0  -0.648685  0  2.104992  0  0  -0.600926  0  2.336826  0  0  -0.626916  0  2.328088  0  0  -0.337144  -0.583973  0  2.342068  0
O  O26  1  0.64183633  0.71525840  0.97607255  1  0  -0.64314  0  2.029957  0  0  -0.59499  0  2.256035  0  0  -0.620565  0  2.244584  0  0  -0.35038  -0.578408  0  2.263045  0
O  O27  1  0.35816562  0.28473348  0.02392276  1  0  -0.643035  0  2.029851  0  0  -0.594909  0  2.25595  0  0  -0.620467  0  2.244502  0  0  -0.350291  -0.578335  0  2.262964  0
O  O28  1  0.59534117  0.97581776  0.22012815  1  0  -0.901802  0  1.83933  0  0  -0.864093  0  2.025559  0  0  -0.884845  0  1.990321  0  0  -0.647983  -0.851072  0  2.048584  0
O  O29  1  0.40466042  0.02418936  0.77986423  1  0  -0.901817  0  1.839388  0  0  -0.864101  0  2.025587  0  0  -0.884862  0  1.990333  0  0  -0.647992  -0.851072  0  2.048619  0
O  O30  1  0.01619111  0.47861235  0.25280605  1  0  -0.896167  0  1.852954  0  0  -0.856568  0  2.037572  0  0  -0.877288  0  2.004177  0  0  -0.63959  -0.843337  0  2.059449  0
O  O31  1  0.98379855  0.52139572  0.74719347  1  0  -0.896256  0  1.85284  0  0  -0.856625  0  2.037457  0  0  -0.87736  0  2.004041  0  0  -0.639556  -0.843396  0  2.059369  0
