# generated using pymatgen
data_ZnP2H12C13O4
_symmetry_space_group_name_H-M   'P 1'
_cell_length_a   9.49699258
_cell_length_b   11.61915052
_cell_length_c   12.51600000
_cell_angle_alpha   95.12586217
_cell_angle_beta   90.00000000
_cell_angle_gamma   90.00000000
_symmetry_Int_Tables_number   1
_chemical_formula_structural   ZnP2H12C13O4
_chemical_formula_sum   'Zn4 P8 H48 C52 O16'
_cell_volume   1375.57962751
_cell_formula_units_Z   4
loop_
 _symmetry_equiv_pos_site_id
 _symmetry_equiv_pos_as_xyz
  1  'x, y, z'
loop_
 _atom_site_type_symbol
 _atom_site_label
 _atom_site_symmetry_multiplicity
 _atom_site_fract_x
 _atom_site_fract_y
 _atom_site_fract_z
 _atom_site_occupancy
 _atom_site_hle17_bader_spin_density
 _atom_site_hle17_ddec_charge
 _atom_site_hle17_ddec_spin_density
 _atom_site_hle17_ddec_sum_bond_order
 _atom_site_hle17_magmom
 _atom_site_hse06_10hf_bader_spin_density
 _atom_site_hse06_10hf_ddec_charge
 _atom_site_hse06_10hf_ddec_spin_density
 _atom_site_hse06_10hf_ddec_sum_bond_order
 _atom_site_hse06_10hf_magmom
 _atom_site_hse06_bader_spin_density
 _atom_site_hse06_ddec_charge
 _atom_site_hse06_ddec_spin_density
 _atom_site_hse06_ddec_sum_bond_order
 _atom_site_hse06_magmom
 _atom_site_pbe_bader_charge
 _atom_site_pbe_bader_spin_density
 _atom_site_pbe_cm5_charge
 _atom_site_pbe_ddec_charge
 _atom_site_pbe_ddec_spin_density
 _atom_site_pbe_ddec_sum_bond_order
 _atom_site_pbe_magmom
Zn  Zn0  1  0.50998671  0.92298730  0.65495950  1  0  1.219559  0  1.780376  0  0  1.061061  0  2.255951  0  0  1.103132  0  2.193251  0  1.340116  0  0.726135  1.03122  0  2.299144  0
Zn  Zn1  1  0.99001341  0.92298730  0.15495870  1  0  1.219556  0  1.78033  0  0  1.061092  0  2.255899  0  0  1.103159  0  2.193198  0  1.340097  0  0.726169  1.031253  0  2.299095  0
Zn  Zn2  1  0.49001512  0.07701152  0.34504200  1  0  1.219517  0  1.780437  0  0  1.061045  0  2.25597  0  0  1.103123  0  2.193274  0  1.340081  0  0.72613  1.031209  0  2.299167  0
Zn  Zn3  1  0.00998632  0.07701239  0.84504207  1  0  1.219533  0  1.780383  0  0  1.061074  0  2.255922  0  0  1.103149  0  2.193233  0  1.34012  0  0.726141  1.031242  0  2.299122  0
P  P4  1  0.52933389  0.17300568  0.57239591  1  0  1.269828  0  4.707168  0  0  1.14244  0  5.17214  0  0  1.182848  0  5.150257  0  3.051183  0  0.290254  1.114492  0  5.186174  0
P  P5  1  0.97066728  0.17300568  0.07239431  1  0  1.269781  0  4.707209  0  0  1.142384  0  5.172172  0  0  1.182791  0  5.150291  0  3.051168  0  0.290236  1.114439  0  5.186199  0
P  P6  1  0.47066795  0.82699314  0.42760479  1  0  1.269906  0  4.707154  0  0  1.142522  0  5.172094  0  0  1.18293  0  5.150205  0  3.051176  0  0.290286  1.114574  0  5.186123  0
P  P7  1  0.02933666  0.82699573  0.92760581  1  0  1.269797  0  4.707241  0  0  1.142407  0  5.172241  0  0  1.182819  0  5.150348  0  3.050907  0  0.290276  1.11446  0  5.186268  0
P  P8  1  0.29446164  0.10959256  0.73151950  1  0  1.28539  0  4.673421  0  0  1.156013  0  5.134866  0  0  1.196867  0  5.113226  0  3.020674  0  0.297961  1.127372  0  5.149953  0
P  P9  1  0.20553875  0.10959342  0.23151877  1  0  1.285242  0  4.673407  0  0  1.155853  0  5.134868  0  0  1.196733  0  5.113162  0  3.020737  0  0.297893  1.127213  0  5.149952  0
P  P10  1  0.70553704  0.89040453  0.26848106  1  0  1.285323  0  4.673462  0  0  1.155945  0  5.134927  0  0  1.196768  0  5.113348  0  3.020959  0  0.297991  1.127304  0  5.150009  0
P  P11  1  0.79446098  0.89040799  0.76848454  1  0  1.285264  0  4.673515  0  0  1.155848  0  5.134994  0  0  1.196653  0  5.113459  0  3.020653  0  0.297915  1.127214  0  5.150069  0
H  H12  1  0.30057831  0.25878872  0.60809353  1  0  0.178015  0  0.942295  0  0  0.189252  0  0.999413  0  0  0.192379  0  0.99933  0  0.102893  0  0.114452  0.187059  0  0.999467  0
H  H13  1  0.19942208  0.25878872  0.10809033  1  0  0.177985  0  0.942315  0  0  0.189203  0  0.999466  0  0  0.192331  0  0.999378  0  0.102939  0  0.11444  0.187011  0  0.999519  0
H  H14  1  0.69942247  0.74121010  0.39190638  1  0  0.178026  0  0.942268  0  0  0.189262  0  0.999388  0  0  0.19239  0  0.9993  0  0.102887  0  0.114444  0.187069  0  0.999443  0
H  H15  1  0.80058186  0.74121269  0.89191138  1  0  0.177948  0  0.942219  0  0  0.189148  0  0.999426  0  0  0.19228  0  0.999337  0  0.103213  0  0.114416  0.186956  0  0.99948  0
H  H16  1  0.28920103  0.11675598  0.54474867  1  0  0.192073  0  0.921559  0  0  0.207426  0  0.97078  0  0  0.210202  0  0.97109  0  0.126009  0  0.126243  0.205422  0  0.970693  0
H  H17  1  0.21079936  0.11675425  0.04474693  1  0  0.192106  0  0.921566  0  0  0.207479  0  0.97074  0  0  0.210254  0  0.971049  0  0.125974  0  0.126269  0.205475  0  0.970654  0
H  H18  1  0.71080081  0.88324543  0.45525144  1  0  0.192046  0  0.921528  0  0  0.207418  0  0.970728  0  0  0.210194  0  0.971033  0  0.12601  0  0.126233  0.205413  0  0.970641  0
H  H19  1  0.78920563  0.88324803  0.95525725  1  0  0.192112  0  0.92143  0  0  0.207465  0  0.970644  0  0  0.210245  0  0.970945  0  0.12605  0  0.126259  0.205462  0  0.970556  0
H  H20  1  0.73013324  0.18528978  0.74984095  1  0  0.114035  0  0.969637  0  0  0.122566  0  1.032314  0  0  0.125588  0  1.030893  0  0.147796  0  0.105613  0.120325  0  1.033537  0
H  H21  1  0.76986688  0.18528805  0.24984001  1  0  0.114042  0  0.969626  0  0  0.122578  0  1.032299  0  0  0.125602  0  1.030873  0  0.147783  0  0.105628  0.120335  0  1.033523  0
H  H22  1  0.26986964  0.81470904  0.25015735  1  0  0.114029  0  0.969605  0  0  0.122512  0  1.032329  0  0  0.125531  0  1.030917  0  0.147541  0  0.10563  0.120272  0  1.033551  0
H  H23  1  0.23013496  0.81471250  0.75015924  1  0  0.114037  0  0.969663  0  0  0.122566  0  1.032333  0  0  0.125588  0  1.030916  0  0.147744  0  0.105646  0.120324  0  1.033557  0
H  H24  1  0.82167275  0.35129017  0.86828414  1  0  0.100047  0  0.955279  0  0  0.110079  0  1.01496  0  0  0.113042  0  1.013968  0  0.089955  0  0.100854  0.107928  0  1.015713  0
H  H25  1  0.67833158  0.35129017  0.36828414  1  0  0.100042  0  0.955302  0  0  0.110073  0  1.014982  0  0  0.113036  0  1.013979  0  0.090809  0  0.100875  0.107922  0  1.015735  0
H  H26  1  0.17833646  0.64870692  0.13171322  1  0  0.100029  0  0.955205  0  0  0.11005  0  1.014917  0  0  0.113013  0  1.013909  0  0.09084  0  0.100873  0.107899  0  1.015669  0
H  H27  1  0.32167236  0.64871297  0.63171532  1  0  0.10004  0  0.955292  0  0  0.110099  0  1.01494  0  0  0.113061  0  1.013952  0  0.089936  0  0.100889  0.107949  0  1.015692  0
H  H28  1  0.74398079  0.55191001  0.84009091  1  0  0.072665  0  0.97552  0  0  0.08382  0  1.040473  0  0  0.086179  0  1.039467  0  0.045566  0  0.095107  0.082158  0  1.041001  0
H  H29  1  0.75602355  0.55191261  0.34009272  1  0  0.072661  0  0.975548  0  0  0.083808  0  1.040504  0  0  0.086185  0  1.039479  0  0.045547  0  0.095097  0.082146  0  1.041032  0
H  H30  1  0.25602631  0.44808535  0.15990871  1  0  0.072711  0  0.975474  0  0  0.083851  0  1.040436  0  0  0.086213  0  1.039433  0  0.045522  0  0.095096  0.08219  0  1.040966  0
H  H31  1  0.24398039  0.44808967  0.65990507  1  0  0.072632  0  0.975522  0  0  0.083761  0  1.040505  0  0  0.086142  0  1.039471  0  0.045536  0  0.095077  0.082101  0  1.041031  0
H  H32  1  0.57511048  0.58547526  0.69384962  1  0  0.093694  0  0.951339  0  0  0.106145  0  1.008021  0  0  0.109085  0  1.006653  0  0.102948  0  0.10336  0.104105  0  1.008823  0
H  H33  1  0.92489385  0.58547440  0.19384795  1  0  0.093656  0  0.951334  0  0  0.106084  0  1.008063  0  0  0.109021  0  1.006698  0  0.102993  0  0.103335  0.104048  0  1.008856  0
H  H34  1  0.42489346  0.41452356  0.30615348  1  0  0.093681  0  0.951386  0  0  0.106104  0  1.008106  0  0  0.109042  0  1.006741  0  0.102971  0  0.103326  0.104064  0  1.008909  0
H  H35  1  0.07511220  0.41452701  0.80615057  1  0  0.093664  0  0.951334  0  0  0.106091  0  1.008042  0  0  0.109029  0  1.006679  0  0.10298  0  0.103354  0.104051  0  1.008845  0
H  H36  1  0.49041315  0.41942735  0.57166327  1  0  0.08562  0  0.946708  0  0  0.100144  0  1.003258  0  0  0.102706  0  1.002134  0  0.058023  0  0.102368  0.098232  0  1.004172  0
H  H37  1  0.00958725  0.41942303  0.07166451  1  0  0.08559  0  0.946814  0  0  0.100118  0  1.003341  0  0  0.102703  0  1.002189  0  0.058064  0  0.102369  0.098207  0  1.004255  0
H  H38  1  0.50958869  0.58057493  0.42833692  1  0  0.085605  0  0.946774  0  0  0.10012  0  1.003335  0  0  0.102689  0  1.002202  0  0.058171  0  0.102357  0.098209  0  1.004248  0
H  H39  1  0.99042091  0.58057752  0.92833793  1  0  0.085607  0  0.94676  0  0  0.100144  0  1.00329  0  0  0.102704  0  1.002168  0  0.057946  0  0.102374  0.098232  0  1.004204  0
H  H40  1  0.27925051  0.34355903  0.83340274  1  0  0.077827  0  0.994424  0  0  0.088987  0  1.059494  0  0  0.091053  0  1.059095  0  0.056153  0  0.096607  0.087523  0  1.059656  0
H  H41  1  0.22074778  0.34355990  0.33340281  1  0  0.07786  0  0.994406  0  0  0.089003  0  1.059494  0  0  0.091069  0  1.059096  0  0.056153  0  0.096623  0.08754  0  1.059655  0
H  H42  1  0.72075133  0.65644238  0.16659179  1  0  0.07785  0  0.9944  0  0  0.088996  0  1.059488  0  0  0.091063  0  1.059084  0  0.056151  0  0.096635  0.087533  0  1.059647  0
H  H43  1  0.77924458  0.65644238  0.66659898  1  0  0.077802  0  0.994463  0  0  0.088957  0  1.059538  0  0  0.091019  0  1.059138  0  0.056132  0  0.096594  0.087475  0  1.059713  0
H  H44  1  0.39759850  0.44311934  0.99120903  1  0  0.082469  0  0.968071  0  0  0.093412  0  1.029665  0  0  0.09586  0  1.029428  0  0.044782  0  0.098013  0.091584  0  1.03009  0
H  H45  1  0.10239979  0.44311934  0.49120823  1  0  0.082488  0  0.968059  0  0  0.093437  0  1.02965  0  0  0.095884  0  1.029412  0  0.044793  0  0.098023  0.091609  0  1.030078  0
H  H46  1  0.60240544  0.55687947  0.00878688  1  0  0.082448  0  0.968028  0  0  0.093397  0  1.02962  0  0  0.095845  0  1.029382  0  0.04477  0  0.098029  0.09157  0  1.030045  0
H  H47  1  0.89759257  0.55688466  0.50879051  1  0  0.082442  0  0.96818  0  0  0.093392  0  1.029763  0  0  0.095839  0  1.029527  0  0.04483  0  0.098026  0.091563  0  1.030188  0
H  H48  1  0.57162096  0.33681643  0.09535787  1  0  0.085273  0  0.958242  0  0  0.096395  0  1.018493  0  0  0.098555  0  1.0187  0  0.062581  0  0.0993  0.094819  0  1.018465  0
H  H49  1  0.92837495  0.33681816  0.59535562  1  0  0.085325  0  0.958203  0  0  0.096434  0  1.018457  0  0  0.0986  0  1.018659  0  0.062581  0  0.099308  0.09486  0  1.018427  0
H  H50  1  0.42837456  0.66317807  0.90464167  1  0  0.085254  0  0.958309  0  0  0.096376  0  1.018555  0  0  0.098534  0  1.018768  0  0.062593  0  0.099288  0.094801  0  1.018525  0
H  H51  1  0.07161741  0.66318671  0.40464239  1  0  0.08526  0  0.958205  0  0  0.096384  0  1.018458  0  0  0.098515  0  1.018699  0  0.062618  0  0.099283  0.094806  0  1.018436  0
H  H52  1  0.62704166  0.13135933  0.03871957  1  0  0.10093  0  0.943283  0  0  0.112543  0  1.000247  0  0  0.115265  0  0.999535  0  0.089842  0  0.104182  0.110627  0  1.000649  0
H  H53  1  0.87295319  0.13136106  0.53871572  1  0  0.100871  0  0.94335  0  0  0.112483  0  1.000314  0  0  0.115202  0  0.99961  0  0.089797  0  0.104176  0.110572  0  1.000717  0
H  H54  1  0.37294754  0.86863430  0.96128470  1  0  0.100882  0  0.943448  0  0  0.112509  0  1.00039  0  0  0.115231  0  0.999681  0  0.090131  0  0.104178  0.110592  0  1.00079  0
H  H55  1  0.12703916  0.86864554  0.46128243  1  0  0.100896  0  0.94329  0  0  0.112485  0  1.000286  0  0  0.115207  0  0.999576  0  0.089896  0  0.104163  0.110573  0  1.000688  0
H  H56  1  0.50871683  0.03125377  0.87926770  1  0  0.091805  0  0.973223  0  0  0.100371  0  1.040812  0  0  0.103377  0  1.039163  0  0.087308  0  0.102683  0.098133  0  1.042175  0
H  H57  1  0.99128013  0.03125377  0.37926450  1  0  0.091833  0  0.973181  0  0  0.100391  0  1.04077  0  0  0.103397  0  1.03912  0  0.087272  0  0.102694  0.098168  0  1.042121  0
H  H58  1  0.49127236  0.96874332  0.12073685  1  0  0.091772  0  0.973099  0  0  0.100292  0  1.040769  0  0  0.103302  0  1.039111  0  0.087404  0  0.102642  0.098073  0  1.042111  0
H  H59  1  0.00871223  0.96874764  0.62073641  1  0  0.091815  0  0.973307  0  0  0.100374  0  1.040893  0  0  0.10338  0  1.039243  0  0.08727  0  0.102665  0.098147  0  1.042247  0
C  C60  1  0.34383727  0.17117810  0.60868808  1  0  -0.727417  0  3.617626  0  0  -0.723427  0  3.850586  0  0  -0.738662  0  3.853112  0  -1.106266  0  -0.179223  -0.712735  0  3.848646  0
C  C61  1  0.15616312  0.17117724  0.10868641  1  0  -0.727417  0  3.617647  0  0  -0.72338  0  3.850486  0  0  -0.738615  0  3.853012  0  -1.106308  0  -0.179217  -0.712687  0  3.848542  0
C  C62  1  0.65616141  0.82882072  0.39131182  1  0  -0.727412  0  3.617594  0  0  -0.723435  0  3.850541  0  0  -0.738676  0  3.853104  0  -1.106316  0  -0.179191  -0.71274  0  3.8486  0
C  C63  1  0.84384187  0.82882504  0.89131538  1  0  -0.727262  0  3.617434  0  0  -0.723212  0  3.850304  0  0  -0.73845  0  3.852856  0  -1.106606  0  -0.179135  -0.712521  0  3.848359  0
C  C64  1  0.60539376  0.29231595  0.65358207  1  0  -0.233564  0  3.789665  0  0  -0.190618  0  4.026512  0  0  -0.20123  0  4.052886  0  -0.552515  0  -0.028717  -0.183631  0  4.008984  0
C  C65  1  0.89460636  0.29231422  0.15358352  1  0  -0.233646  0  3.789859  0  0  -0.190697  0  4.026707  0  0  -0.201313  0  4.053092  0  -0.552522  0  -0.028795  -0.18371  0  4.009176  0
C  C66  1  0.39460913  0.70768373  0.34641710  1  0  -0.233629  0  3.789693  0  0  -0.190659  0  4.026505  0  0  -0.201271  0  4.052877  0  -0.552753  0  -0.02879  -0.183673  0  4.008974  0
C  C67  1  0.10539652  0.70768633  0.84641492  1  0  -0.233597  0  3.789821  0  0  -0.190701  0  4.026745  0  0  -0.201313  0  4.053117  0  -0.552608  0  -0.028791  -0.183713  0  4.009214  0
C  C68  1  0.69860326  0.27325727  0.73696376  1  0  -0.034602  0  3.713191  0  0  -0.05643  0  3.952188  0  0  -0.056334  0  3.974239  0  -0.054833  0  -0.075164  -0.05648  0  3.937482  0
C  C69  1  0.80139791  0.27325641  0.23696289  1  0  -0.034529  0  3.713201  0  0  -0.056359  0  3.95218  0  0  -0.056265  0  3.97423  0  -0.054879  0  -0.07513  -0.056407  0  3.937473  0
C  C70  1  0.30140068  0.72674068  0.26303527  1  0  -0.034503  0  3.713071  0  0  -0.056292  0  3.952073  0  0  -0.056196  0  3.97412  0  -0.054561  0  -0.075101  -0.056342  0  3.937365  0
C  C71  1  0.19860287  0.72674586  0.76303491  1  0  -0.034553  0  3.71339  0  0  -0.056367  0  3.952394  0  0  -0.056272  0  3.974445  0  -0.05458  0  -0.075143  -0.056417  0  3.937688  0
C  C72  1  0.74942146  0.36711450  0.80340936  1  0  -0.073043  0  3.739001  0  0  -0.083597  0  3.987556  0  0  -0.087053  0  4.009412  0  -0.083789  0  -0.087015  -0.081275  0  3.972289  0
C  C73  1  0.75058077  0.36711364  0.30341089  1  0  -0.07299  0  3.73907  0  0  -0.083548  0  3.987635  0  0  -0.086996  0  4.009494  0  -0.084428  0  -0.086989  -0.081226  0  3.972369  0
C  C74  1  0.25058564  0.63288172  0.19658793  1  0  -0.072993  0  3.738887  0  0  -0.083544  0  3.987445  0  0  -0.086989  0  4.009297  0  -0.084499  0  -0.087006  -0.081223  0  3.972179  0
C  C75  1  0.24942212  0.63288950  0.69658857  1  0  -0.073068  0  3.739218  0  0  -0.083638  0  3.987744  0  0  -0.087095  0  4.00961  0  -0.083828  0  -0.087102  -0.081317  0  3.972479  0
C  C76  1  0.70524958  0.47893904  0.78753488  1  0  -0.06076  0  3.770513  0  0  -0.076306  0  4.019588  0  0  -0.077104  0  4.041362  0  -0.041349  0  -0.087287  -0.07522  0  4.004018  0
C  C77  1  0.79475370  0.47893731  0.28753714  1  0  -0.060888  0  3.770723  0  0  -0.076431  0  4.019799  0  0  -0.077243  0  4.041568  0  -0.041464  0  -0.087368  -0.075346  0  4.00423  0
C  C78  1  0.29475647  0.52105805  0.21246408  1  0  -0.060872  0  3.770566  0  0  -0.076405  0  4.019631  0  0  -0.077207  0  4.041406  0  -0.041496  0  -0.087328  -0.07532  0  4.004063  0
C  C79  1  0.20525129  0.52106410  0.71246378  1  0  -0.060789  0  3.770588  0  0  -0.076317  0  4.019666  0  0  -0.07713  0  4.041431  0  -0.040938  0  -0.087277  -0.075232  0  4.004096  0
C  C80  1  0.61115031  0.49819559  0.70499815  1  0  -0.084201  0  3.77651  0  0  -0.094501  0  4.023414  0  0  -0.097988  0  4.045704  0  -0.064708  0  -0.092732  -0.092017  0  4.007725  0
C  C81  1  0.88885612  0.49819214  0.20499866  1  0  -0.084076  0  3.776529  0  0  -0.094352  0  4.023382  0  0  -0.097843  0  4.04569  0  -0.064732  0  -0.092663  -0.091869  0  4.007696  0
C  C82  1  0.38885678  0.50180409  0.29500342  1  0  -0.08417  0  3.776591  0  0  -0.094443  0  4.023467  0  0  -0.097932  0  4.045764  0  -0.064768  0  -0.092684  -0.091961  0  4.00778  0
C  C83  1  0.11115203  0.50180755  0.79500371  1  0  -0.084196  0  3.776448  0  0  -0.094464  0  4.023323  0  0  -0.097953  0  4.04562  0  -0.065129  0  -0.092764  -0.091982  0  4.007637  0
C  C84  1  0.56248543  0.40505903  0.63716377  1  0  -0.054342  0  3.770419  0  0  -0.076934  0  4.01375  0  0  -0.077313  0  4.036663  0  -0.080236  0  -0.08484  -0.076544  0  3.998079  0
C  C85  1  0.93751784  0.40505557  0.13716508  1  0  -0.0543  0  3.770598  0  0  -0.076887  0  4.013909  0  0  -0.077284  0  4.036817  0  -0.080111  0  -0.084801  -0.076499  0  3.99824  0
C  C86  1  0.43751851  0.59494065  0.36283620  1  0  -0.054355  0  3.770563  0  0  -0.076952  0  4.013877  0  0  -0.077336  0  4.036786  0  -0.079948  0  -0.084847  -0.076562  0  3.998205  0
C  C87  1  0.06248926  0.59494498  0.86283656  1  0  -0.054199  0  3.770417  0  0  -0.076783  0  4.013739  0  0  -0.077159  0  4.03665  0  -0.080102  0  -0.084724  -0.076393  0  3.998068  0
C  C88  1  0.38598956  0.18082063  0.84550255  1  0  -0.256585  0  3.804088  0  0  -0.213698  0  4.04347  0  0  -0.224614  0  4.06974  0  -0.547985  0  -0.035395  -0.206406  0  4.02588  0
C  C89  1  0.11400767  0.18082150  0.34550182  1  0  -0.256549  0  3.804197  0  0  -0.213666  0  4.043581  0  0  -0.224579  0  4.069826  0  -0.547985  0  -0.035406  -0.206377  0  4.025996  0
C  C90  1  0.61400385  0.81917386  0.15449699  1  0  -0.256689  0  3.804233  0  0  -0.213774  0  4.043572  0  0  -0.224689  0  4.069849  0  -0.548003  0  -0.035416  -0.206485  0  4.025989  0
C  C91  1  0.88598995  0.81918078  0.65449917  1  0  -0.256661  0  3.804187  0  0  -0.213783  0  4.043583  0  0  -0.224695  0  4.069847  0  -0.547979  0  -0.035479  -0.206494  0  4.025994  0
C  C92  1  0.35561152  0.29687496  0.87779529  1  0  -0.04193  0  3.770538  0  0  -0.063599  0  4.010139  0  0  -0.063387  0  4.033596  0  -0.028927  0  -0.08505  -0.063591  0  3.993953  0
C  C93  1  0.14438676  0.29687496  0.37779449  1  0  -0.042019  0  3.770571  0  0  -0.063671  0  4.010194  0  0  -0.06346  0  4.033654  0  -0.028965  0  -0.085064  -0.063662  0  3.994009  0
C  C94  1  0.64438610  0.70312386  0.12220301  1  0  -0.041923  0  3.770599  0  0  -0.063588  0  4.010219  0  0  -0.06337  0  4.033666  0  -0.028834  0  -0.085063  -0.06358  0  3.994036  0
C  C95  1  0.85560770  0.70312818  0.62220337  1  0  -0.041866  0  3.770351  0  0  -0.063502  0  4.009927  0  0  -0.063279  0  4.033374  0  -0.028895  0  -0.084948  -0.063475  0  3.993751  0
C  C96  1  0.42217575  0.35283173  0.96707851  1  0  -0.088245  0  3.777077  0  0  -0.097584  0  4.023877  0  0  -0.101556  0  4.046034  0  0.010547  0  -0.094032  -0.09507  0  4.009188  0
C  C97  1  0.07782148  0.35283173  0.46707611  1  0  -0.088174  0  3.777119  0  0  -0.097529  0  4.023917  0  0  -0.1015  0  4.046078  0  0.010535  0  -0.094063  -0.095018  0  4.009231  0
C  C98  1  0.57782292  0.64716622  0.03292052  1  0  -0.088141  0  3.776905  0  0  -0.097489  0  4.023715  0  0  -0.101459  0  4.04587  0  0.010498  0  -0.094076  -0.094978  0  4.009029  0
C  C99  1  0.92216772  0.64717055  0.53291689  1  0  -0.088197  0  3.777179  0  0  -0.097558  0  4.023996  0  0  -0.101526  0  4.04614  0  0.010273  0  -0.09409  -0.095042  0  4.009297  0
C  C100  1  0.51962976  0.29328547  0.02526284  1  0  -0.04664  0  3.736495  0  0  -0.061361  0  3.982811  0  0  -0.060983  0  4.002948  0  -0.128782  0  -0.081943  -0.061593  0  3.969308  0
C  C101  1  0.98036614  0.29328720  0.52525978  1  0  -0.046802  0  3.73644  0  0  -0.061507  0  3.982769  0  0  -0.061138  0  4.002911  0  -0.12883  0  -0.081946  -0.061739  0  3.969268  0
C  C102  1  0.48036365  0.70671075  0.97473765  1  0  -0.046756  0  3.736509  0  0  -0.061477  0  3.982844  0  0  -0.061103  0  4.002984  0  -0.128903  0  -0.081951  -0.061708  0  3.96934  0
C  C103  1  0.01962200  0.70671767  0.47473742  1  0  -0.046665  0  3.736431  0  0  -0.061391  0  3.982765  0  0  -0.06099  0  4.002911  0  -0.128422  0  -0.081949  -0.061623  0  3.969262  0
C  C104  1  0.55060167  0.17770036  0.99362422  1  0  -0.055047  0  3.709395  0  0  -0.065542  0  3.955082  0  0  -0.068819  0  3.976296  0  0.032129  0  -0.082929  -0.063336  0  3.940475  0
C  C105  1  0.94939318  0.17770208  0.49361957  1  0  -0.0549  0  3.709339  0  0  -0.065398  0  3.955017  0  0  -0.068677  0  3.976239  0  0.031584  0  -0.082893  -0.063201  0  3.940426  0
C  C106  1  0.44938753  0.82229414  0.00637852  1  0  -0.054955  0  3.709474  0  0  -0.065457  0  3.955141  0  0  -0.068736  0  3.976359  0  0.031141  0  -0.082904  -0.063249  0  3.940537  0
C  C107  1  0.05059602  0.82230365  0.50637851  1  0  -0.054938  0  3.70929  0  0  -0.065416  0  3.954985  0  0  -0.068684  0  3.976169  0  0.032029  0  -0.082809  -0.063216  0  3.940387  0
C  C108  1  0.48428068  0.12139622  0.90396224  1  0  -0.038057  0  3.732693  0  0  -0.060313  0  3.974048  0  0  -0.059968  0  3.995825  0  -0.069399  0  -0.077585  -0.060457  0  3.959567  0
C  C109  1  0.01571655  0.12139794  0.40395919  1  0  -0.038122  0  3.73282  0  0  -0.060367  0  3.974186  0  0  -0.060021  0  3.995967  0  -0.068696  0  -0.077606  -0.06052  0  3.959695  0
C  C110  1  0.51571063  0.87859742  0.09603963  1  0  -0.037961  0  3.732605  0  0  -0.060187  0  3.973954  0  0  -0.059838  0  3.995733  0  -0.068729  0  -0.077532  -0.060347  0  3.959457  0
C  C111  1  0.98427896  0.87860606  0.59604194  1  0  -0.038093  0  3.732889  0  0  -0.060346  0  3.97424  0  0  -0.059995  0  3.996014  0  -0.069424  0  -0.077619  -0.060498  0  3.959756  0
O  O112  1  0.59896751  0.05951947  0.59660252  1  0  -0.830007  0  2.022856  0  0  -0.745886  0  2.315961  0  0  -0.770985  0  2.292194  0  -1.442931  0  -0.366978  -0.728023  0  2.331858  0
O  O113  1  0.90103471  0.05951688  0.09659671  1  0  -0.829956  0  2.022795  0  0  -0.745849  0  2.315925  0  0  -0.770947  0  2.292156  0  -1.442902  0  -0.366954  -0.727985  0  2.331818  0
O  O114  1  0.40103432  0.94048021  0.40339985  1  0  -0.830027  0  2.022853  0  0  -0.745898  0  2.315959  0  0  -0.770999  0  2.292192  0  -1.442902  0  -0.366983  -0.728036  0  2.331856  0
O  O115  1  0.09897028  0.94048367  0.90340173  1  0  -0.83002  0  2.022833  0  0  -0.74592  0  2.315991  0  0  -0.771021  0  2.292226  0  -1.443006  0  -0.366983  -0.728057  0  2.331885  0
O  O116  1  0.53632452  0.20130162  0.45502566  1  0  -0.805073  0  1.981225  0  0  -0.7212  0  2.268118  0  0  -0.747334  0  2.245746  0  -1.422564  0  -0.369386  -0.702558  0  2.282108  0
O  O117  1  0.96367770  0.20130335  0.95502421  1  0  -0.805072  0  1.981204  0  0  -0.721221  0  2.268116  0  0  -0.747359  0  2.245748  0  -1.422633  0  -0.369408  -0.702583  0  2.282111  0
O  O118  1  0.46367942  0.79869720  0.54497584  1  0  -0.805092  0  1.981165  0  0  -0.721246  0  2.268087  0  0  -0.747378  0  2.245714  0  -1.422606  0  -0.369406  -0.702607  0  2.282083  0
O  O119  1  0.03632834  0.79869720  0.04497584  1  0  -0.805085  0  1.981189  0  0  -0.721231  0  2.268094  0  0  -0.747363  0  2.245718  0  -1.422412  0  -0.369411  -0.702592  0  2.282092  0
O  O120  1  0.33505870  0.98172216  0.72111663  1  0  -0.811875  0  2.036305  0  0  -0.720849  0  2.321656  0  0  -0.746862  0  2.299039  0  -1.429404  0  -0.363669  -0.702459  0  2.336986  0
O  O121  1  0.16494169  0.98172216  0.22111663  1  0  -0.811828  0  2.036273  0  0  -0.720809  0  2.32163  0  0  -0.746824  0  2.299012  0  -1.429452  0  -0.363658  -0.702422  0  2.336964  0
O  O122  1  0.66493997  0.01827493  0.27888153  1  0  -0.811881  0  2.036498  0  0  -0.720877  0  2.321882  0  0  -0.746887  0  2.299271  0  -1.429622  0  -0.363682  -0.702486  0  2.337213  0
O  O123  1  0.83505804  0.01827839  0.77888741  1  0  -0.811817  0  2.036311  0  0  -0.720814  0  2.321721  0  0  -0.746821  0  2.299115  0  -1.429409  0  -0.363667  -0.702438  0  2.337065  0
O  O124  1  0.13665800  0.13503609  0.74182574  1  0  -0.807826  0  2.004411  0  0  -0.718802  0  2.295052  0  0  -0.745934  0  2.272903  0  -1.414855  0  -0.371198  -0.699599  0  2.309871  0
O  O125  1  0.36334344  0.13503782  0.24182508  1  0  -0.807744  0  2.004358  0  0  -0.718706  0  2.294978  0  0  -0.745862  0  2.272862  0  -1.41485  0  -0.371133  -0.699502  0  2.309792  0
O  O126  1  0.86333962  0.86495840  0.25817221  1  0  -0.807763  0  2.004314  0  0  -0.718721  0  2.294924  0  0  -0.745861  0  2.272812  0  -1.414856  0  -0.371226  -0.699522  0  2.309745  0
O  O127  1  0.63665734  0.86496532  0.75817997  1  0  -0.807843  0  2.004484  0  0  -0.718757  0  2.295097  0  0  -0.745877  0  2.272944  0  -1.414869  0  -0.371171  -0.699548  0  2.309903  0
