# generated using pymatgen
data_AlH7C14N6O17
_symmetry_space_group_name_H-M   'P 1'
_cell_length_a   6.96388398
_cell_length_b   20.30657981
_cell_length_c   23.57139605
_cell_angle_alpha   90.00005530
_cell_angle_beta   89.99482361
_cell_angle_gamma   90.00004423
_symmetry_Int_Tables_number   1
_chemical_formula_structural   AlH7C14N6O17
_chemical_formula_sum   'Al4 H28 C56 N24 O68'
_cell_volume   3333.29393883
_cell_formula_units_Z   4
loop_
 _symmetry_equiv_pos_site_id
 _symmetry_equiv_pos_as_xyz
  1  'x, y, z'
loop_
 _atom_site_type_symbol
 _atom_site_label
 _atom_site_symmetry_multiplicity
 _atom_site_fract_x
 _atom_site_fract_y
 _atom_site_fract_z
 _atom_site_occupancy
 _atom_site_pbe_bader_charge
 _atom_site_pbe_bader_spin_density
 _atom_site_pbe_cm5_charge
 _atom_site_pbe_ddec_charge
 _atom_site_pbe_ddec_spin_density
 _atom_site_pbe_ddec_sum_bond_order
 _atom_site_pbe_magmom
Al  Al0  1  0.96438413  0.74993803  0.50011512  1  2.507252  0  0.418837  1.64318  0  2.551005  0
Al  Al1  1  0.53556728  0.25006089  0.00012023  1  2.507068  0  0.418819  1.64311  0  2.551517  0
Al  Al2  1  0.46438301  0.75006210  0.49988283  1  2.507255  0  0.418819  1.643107  0  2.551212  0
Al  Al3  1  0.03557012  0.24993587  0.99988513  1  2.507014  0  0.418802  1.64303  0  2.551747  0
H  H4  1  0.76161943  0.46977994  0.65120912  1  0.144155  0  0.121944  0.145679  0  0.982014  0
H  H5  1  0.73835130  0.53021176  0.15121241  1  0.144349  0  0.121931  0.145645  0  0.982058  0
H  H6  1  0.26158036  0.03022566  0.34878878  1  0.144206  0  0.121936  0.145733  0  0.982071  0
H  H7  1  0.23838504  0.96978937  0.84880956  1  0.143806  0  0.121868  0.145561  0  0.982188  0
H  H8  1  0.58060879  0.39654295  0.73795110  1  0.145742  0  0.142116  0.126625  0  0.948223  0
H  H9  1  0.91938047  0.60344097  0.23795272  1  0.146031  0  0.142132  0.126653  0  0.948084  0
H  H10  1  0.08058899  0.10344996  0.26204513  1  0.145587  0  0.142123  0.126735  0  0.948247  0
H  H11  1  0.41937798  0.89651720  0.76208830  1  0.145483  0  0.142162  0.126727  0  0.94824  0
H  H12  1  0.98835435  0.52159452  0.82593285  1  0.151413  0  0.12096  0.153748  0  0.993445  0
H  H13  1  0.51152679  0.47840970  0.32593680  1  0.151221  0  0.120946  0.153952  0  0.993321  0
H  H14  1  0.48842766  0.97840861  0.17406899  1  0.151413  0  0.120915  0.153763  0  0.993559  0
H  H15  1  0.01166898  0.02156583  0.67406935  1  0.151931  0  0.120903  0.153754  0  0.993626  0
H  H16  1  0.06490579  0.45972590  0.77849055  1  0.156673  0  0.119581  0.140566  0  1.07107  0
H  H17  1  0.43503006  0.54027673  0.27850305  1  0.156599  0  0.119632  0.140514  0  1.071093  0
H  H18  1  0.56493736  0.04028323  0.22150069  1  0.156476  0  0.119541  0.1405  0  1.071235  0
H  H19  1  0.93512897  0.95970708  0.72152812  1  0.15676  0  0.119485  0.140569  0  1.070882  0
H  H20  1  0.45083182  0.56408408  0.74294496  1  0.189357  0  0.134649  0.117517  0  1.034814  0
H  H21  1  0.04907930  0.43589635  0.24294212  1  0.189236  0  0.134629  0.117387  0  1.034839  0
H  H22  1  0.95088432  0.93589484  0.25706193  1  0.189583  0  0.134605  0.117273  0  1.034901  0
H  H23  1  0.54920387  0.06405218  0.75706491  1  0.18944  0  0.13489  0.117739  0  1.034649  0
H  H24  1  0.52966953  0.48472610  0.67771032  1  0.123071  0  0.115263  0.140525  0  0.974325  0
H  H25  1  0.97029358  0.51525627  0.17770594  1  0.122883  0  0.115236  0.140389  0  0.974468  0
H  H26  1  0.02964976  0.01526670  0.32229226  1  0.123114  0  0.115258  0.140505  0  0.974416  0
H  H27  1  0.47034193  0.98472121  0.82230158  1  0.122885  0  0.115241  0.140549  0  0.974303  0
H  H28  1  0.21464192  0.66384889  0.48994733  1  0.610842  0  0.352196  0.435067  0  0.84456  0
H  H29  1  0.28530779  0.33613380  0.98989606  1  0.61221  0  0.352142  0.434952  0  0.844749  0
H  H30  1  0.71464102  0.83614924  0.51004911  1  0.610903  0  0.352215  0.435074  0  0.844561  0
H  H31  1  0.78529802  0.16384082  0.01001111  1  0.610304  0  0.352035  0.435015  0  0.844685  0
C  C32  1  0.21489189  0.82292792  0.57842964  1  1.695389  0  0.288826  0.732928  0  4.126407  0
C  C33  1  0.28500592  0.17706019  0.07841584  1  1.696746  0  0.28871  0.732488  0  4.127078  0
C  C34  1  0.71494677  0.67706183  0.42158080  1  1.696166  0  0.288673  0.732312  0  4.127177  0
C  C35  1  0.78505852  0.32293856  0.92158001  1  1.69579  0  0.288544  0.732198  0  4.126967  0
C  C36  1  0.21312476  0.82880474  0.42560376  1  1.71373  0  0.286539  0.724766  0  4.138304  0
C  C37  1  0.28687011  0.17120299  0.92559982  1  1.713126  0  0.286572  0.724839  0  4.138287  0
C  C38  1  0.71309380  0.67120323  0.57439910  1  1.713075  0  0.286494  0.724444  0  4.138621  0
C  C39  1  0.78684890  0.32879479  0.07439767  1  1.713111  0  0.286613  0.724929  0  4.138058  0
C  C40  1  0.94742318  0.54658633  0.73820050  1  0.343527  0  0.159248  0.072802  0  3.57857  0
C  C41  1  0.55250140  0.45341484  0.23820648  1  0.343472  0  0.159294  0.072737  0  3.57858  0
C  C42  1  0.44746056  0.95342312  0.26180311  1  0.343616  0  0.159268  0.073003  0  3.578044  0
C  C43  1  0.05261848  0.04658344  0.76179663  1  0.345597  0  0.159252  0.072792  0  3.578126  0
C  C44  1  0.59316965  0.56388972  0.76250954  1  0.186018  0  0.015867  -0.11421  0  3.656034  0
C  C45  1  0.90673490  0.43608783  0.26250932  1  0.185485  0  0.01594  -0.113974  0  3.655336  0
C  C46  1  0.09322728  0.93609288  0.23749601  1  0.185132  0  0.015977  -0.113994  0  3.655317  0
C  C47  1  0.40687466  0.06386686  0.73749693  1  0.186601  0  0.015837  -0.114041  0  3.655944  0
C  C48  1  0.60349801  0.50907846  0.80807093  1  0.395403  0  0.172264  0.038358  0  3.537362  0
C  C49  1  0.89640596  0.49090259  0.30807746  1  0.396199  0  0.172255  0.038507  0  3.536487  0
C  C50  1  0.10356124  0.99090367  0.19192876  1  0.39586  0  0.172192  0.03872  0  3.536284  0
C  C51  1  0.39655133  0.00904764  0.69193932  1  0.394244  0  0.17232  0.038349  0  3.536597  0
C  C52  1  0.78325301  0.36734778  0.87393587  1  0.216323  0  -0.016097  -0.135809  0  3.893926  0
C  C53  1  0.71674472  0.63264419  0.37394208  1  0.216555  0  -0.016055  -0.135932  0  3.894157  0
C  C54  1  0.28321573  0.13264211  0.12605664  1  0.216165  0  -0.016055  -0.135667  0  3.893805  0
C  C55  1  0.21669968  0.86733228  0.62607763  1  0.216892  0  -0.016217  -0.136081  0  3.893773  0
C  C56  1  0.74083733  0.55039422  0.71326139  1  0.114503  0  0.020917  0.118594  0  3.836637  0
C  C57  1  0.75908732  0.44959312  0.21326012  1  0.115592  0  0.020966  0.11849  0  3.83686  0
C  C58  1  0.24087755  0.94960839  0.28674734  1  0.115014  0  0.020729  0.118168  0  3.837062  0
C  C59  1  0.25918418  0.05039081  0.78674337  1  0.1135  0  0.020873  0.118622  0  3.836805  0
C  C60  1  0.95359838  0.49653904  0.78613390  1  -0.050245  0  -0.172208  -0.323062  0  3.865508  0
C  C61  1  0.54633368  0.50346514  0.28614309  1  -0.050767  0  -0.172169  -0.323194  0  3.865397  0
C  C62  1  0.45363135  0.00346844  0.21386614  1  -0.050388  0  -0.172113  -0.323161  0  3.865897  0
C  C63  1  0.04643589  0.99652230  0.71387164  1  -0.0507  0  -0.172239  -0.323045  0  3.865435  0
C  C64  1  0.76420788  0.45775683  0.79261563  1  0.070605  0  0.016806  0.122789  0  3.858512  0
C  C65  1  0.73574421  0.54223602  0.29262411  1  0.071741  0  0.016691  0.122789  0  3.858119  0
C  C66  1  0.26423898  0.04224040  0.20738388  1  0.071504  0  0.016861  0.123067  0  3.858283  0
C  C67  1  0.23582116  0.95773112  0.70740431  1  0.070681  0  0.016968  0.122366  0  3.858852  0
C  C68  1  0.70989033  0.42692191  0.73418722  1  0.172546  0  0.009303  -0.044799  0  3.691751  0
C  C69  1  0.79008401  0.57306694  0.23419138  1  0.172537  0  0.009234  -0.044921  0  3.69121  0
C  C70  1  0.20987292  0.07307669  0.26581111  1  0.172793  0  0.009198  -0.045286  0  3.691922  0
C  C71  1  0.29009891  0.92690918  0.76583736  1  0.173489  0  0.009159  -0.045322  0  3.692028  0
C  C72  1  0.68112673  0.48109986  0.68977753  1  -0.062596  0  -0.150447  -0.252433  0  3.815782  0
C  C73  1  0.81883213  0.51888549  0.18977689  1  -0.062344  0  -0.150432  -0.252389  0  3.816176  0
C  C74  1  0.18111403  0.01889819  0.31022472  1  -0.062826  0  -0.150405  -0.25227  0  3.815972  0
C  C75  1  0.31887329  0.98110300  0.81023691  1  -0.062072  0  -0.150325  -0.252334  0  3.815919  0
C  C76  1  0.78013243  0.40804048  0.83642141  1  -0.370357  0  -0.033121  -0.051604  0  4.056178  0
C  C77  1  0.71981806  0.59194948  0.33643130  1  -0.37127  0  -0.033178  -0.051558  0  4.056508  0
C  C78  1  0.28016447  0.09195187  0.16357333  1  -0.370855  0  -0.03322  -0.051882  0  4.056356  0
C  C79  1  0.21987143  0.90801074  0.66360146  1  -0.371259  0  -0.033045  -0.051229  0  4.056303  0
C  C80  1  0.72245329  0.59649500  0.66675153  1  -0.381502  0  -0.037071  -0.058762  0  4.047253  0
C  C81  1  0.77748366  0.40349426  0.16674707  1  -0.380625  0  -0.037087  -0.058737  0  4.047641  0
C  C82  1  0.22248614  0.90351053  0.33325696  1  -0.380795  0  -0.036951  -0.0586  0  4.047341  0
C  C83  1  0.27757192  0.09650152  0.83324564  1  -0.381455  0  -0.03719  -0.058924  0  4.047292  0
C  C84  1  0.71426870  0.62900512  0.62372326  1  0.204052  0  -0.010141  -0.121124  0  3.872616  0
C  C85  1  0.78566823  0.37099394  0.12371850  1  0.20269  0  -0.010004  -0.121012  0  3.872586  0
C  C86  1  0.21430056  0.87099695  0.37628763  1  0.203118  0  -0.010071  -0.121183  0  3.87239  0
C  C87  1  0.28569577  0.12900678  0.87627860  1  0.203999  0  -0.009982  -0.120943  0  3.872325  0
N  N88  1  0.09319736  0.52834009  0.68943556  1  0.496354  0  0.063932  0.472188  0  4.142412  0
N  N89  1  0.40675784  0.47166884  0.18944216  1  0.49611  0  0.06414  0.472554  0  4.14238  0
N  N90  1  0.59319382  0.97168240  0.31056659  1  0.496474  0  0.064138  0.47241  0  4.142577  0
N  N91  1  0.90682875  0.02836169  0.81056664  1  0.494023  0  0.064205  0.472669  0  4.142417  0
N  N92  1  0.03301690  0.61428315  0.75804814  1  0.493203  0  0.052144  0.455202  0  4.226906  0
N  N93  1  0.46685623  0.38572291  0.25805098  1  0.493715  0  0.051644  0.454424  0  4.227148  0
N  N94  1  0.53310519  0.88573036  0.24196321  1  0.493416  0  0.051927  0.454737  0  4.226924  0
N  N95  1  0.96708274  0.11428362  0.74193419  1  0.493207  0  0.052071  0.455033  0  4.226098  0
N  N96  1  0.61684009  0.63417683  0.78533685  1  0.485385  0  0.050791  0.511117  0  4.179556  0
N  N97  1  0.88304765  0.36581060  0.28533438  1  0.486357  0  0.050906  0.511429  0  4.17908  0
N  N98  1  0.11693126  0.86581026  0.21467131  1  0.486727  0  0.050892  0.511455  0  4.179467  0
N  N99  1  0.38326791  0.13414847  0.71466077  1  0.486229  0  0.050418  0.510687  0  4.178912  0
N  N100  1  0.61938399  0.53692713  0.87028591  1  0.533378  0  0.061316  0.462559  0  4.240832  0
N  N101  1  0.88045233  0.46304859  0.37028743  1  0.532845  0  0.06117  0.462042  0  4.24066  0
N  N102  1  0.11951094  0.96305061  0.12971792  1  0.533594  0  0.06127  0.462073  0  4.240649  0
N  N103  1  0.38065492  0.03688438  0.62972351  1  0.531604  0  0.061486  0.46272  0  4.240541  0
N  N104  1  0.41483606  0.46951277  0.81023639  1  0.476992  0  0.058379  0.476981  0  4.145604  0
N  N105  1  0.08507229  0.53045198  0.31024475  1  0.475108  0  0.05836  0.476609  0  4.146152  0
N  N106  1  0.91489382  0.03045376  0.18976111  1  0.475229  0  0.058225  0.476254  0  4.145953  0
N  N107  1  0.58520145  0.96947201  0.68978058  1  0.477699  0  0.058522  0.476885  0  4.145049  0
N  N108  1  0.85630276  0.37504182  0.71349487  1  0.475921  0  0.053506  0.51268  0  4.174112  0
N  N109  1  0.64369794  0.62495537  0.21350222  1  0.474997  0  0.053583  0.512608  0  4.173928  0
N  N110  1  0.35626692  0.12496496  0.28649735  1  0.4754  0  0.053592  0.512532  0  4.173949  0
N  N111  1  0.14367424  0.87503965  0.78654027  1  0.474756  0  0.053702  0.513399  0  4.174189  0
O  O112  1  0.37800190  0.81313660  0.44459609  1  -1.228793  0  -0.222074  -0.577601  0  2.272229  0
O  O113  1  0.12198279  0.18687312  0.94459379  1  -1.228338  0  -0.222127  -0.577792  0  2.272375  0
O  O114  1  0.87797947  0.68686679  0.55540048  1  -1.228488  0  -0.222071  -0.577493  0  2.272497  0
O  O115  1  0.62196047  0.31312973  0.05541127  1  -1.228173  0  -0.222123  -0.577752  0  2.272212  0
O  O116  1  0.05021309  0.80658919  0.55978475  1  -1.23508  0  -0.21951  -0.576561  0  2.272909  0
O  O117  1  0.44969625  0.19341121  0.05977783  1  -1.234717  0  -0.219582  -0.576389  0  2.27338  0
O  O118  1  0.55025191  0.69340613  0.44022392  1  -1.234768  0  -0.21954  -0.576248  0  2.273072  0
O  O119  1  0.94974042  0.30659527  0.94022489  1  -1.234809  0  -0.219511  -0.576176  0  2.273151  0
O  O120  1  0.04856507  0.81275363  0.44444710  1  -1.229706  0  -0.221953  -0.576757  0  2.277994  0
O  O121  1  0.45140961  0.18724674  0.94444241  1  -1.229598  0  -0.221888  -0.576714  0  2.278163  0
O  O122  1  0.54854978  0.68725647  0.55556331  1  -1.229456  0  -0.221844  -0.576555  0  2.278136  0
O  O123  1  0.95140305  0.31274104  0.05555898  1  -1.22953  0  -0.221836  -0.576699  0  2.278267  0
O  O124  1  0.87941447  0.69352171  0.44034321  1  -1.230948  0  -0.22118  -0.581055  0  2.285249  0
O  O125  1  0.62056921  0.30648167  0.94034954  1  -1.231003  0  -0.221073  -0.58105  0  2.284893  0
O  O126  1  0.37936563  0.80647135  0.55965671  1  -1.230649  0  -0.221272  -0.581275  0  2.284963  0
O  O127  1  0.12052938  0.19351478  0.05965429  1  -1.231521  0  -0.221101  -0.581083  0  2.285045  0
O  O128  1  0.21441233  0.71065293  0.49815222  1  -1.413264  0  -0.449048  -0.990338  0  2.103883  0
O  O129  1  0.28555269  0.28934356  0.99815266  1  -1.414533  0  -0.448962  -0.990146  0  2.103973  0
O  O130  1  0.71440391  0.78934470  0.50184721  1  -1.413392  0  -0.44903  -0.990299  0  2.103895  0
O  O131  1  0.78553704  0.21065225  0.00184190  1  -1.412621  0  -0.448887  -0.990211  0  2.103966  0
O  O132  1  0.07819546  0.47256455  0.66981370  1  -0.413667  0  -0.082703  -0.254606  0  2.005035  0
O  O133  1  0.21182078  0.56993855  0.67504584  1  -0.412147  0  -0.085858  -0.269852  0  1.989831  0
O  O134  1  0.42175139  0.52745224  0.16983427  1  -0.413386  0  -0.082861  -0.25479  0  2.005252  0
O  O135  1  0.28815644  0.43007283  0.17503935  1  -0.411977  0  -0.08587  -0.269915  0  1.989929  0
O  O136  1  0.57818460  0.02746332  0.33017753  1  -0.414387  0  -0.082997  -0.254929  0  2.005333  0
O  O137  1  0.71181013  0.93008764  0.32496852  1  -0.41139  0  -0.085762  -0.269791  0  1.990109  0
O  O138  1  0.92183770  0.97259753  0.83021304  1  -0.412992  0  -0.082809  -0.254861  0  2.005246  0
O  O139  1  0.78821052  0.06996829  0.82494112  1  -0.412459  0  -0.085922  -0.27001  0  1.989841  0
O  O140  1  0.15767582  0.61017084  0.79495479  1  -0.414926  0  -0.105028  -0.281375  0  2.011007  0
O  O141  1  0.97731568  0.66421867  0.73418926  1  -0.374805  0  -0.074507  -0.242959  0  2.000921  0
O  O142  1  0.34216142  0.38983181  0.29495709  1  -0.416329  0  -0.10497  -0.28124  0  2.011096  0
O  O143  1  0.52256102  0.33578544  0.23419359  1  -0.374314  0  -0.074223  -0.242518  0  2.000897  0
O  O144  1  0.65778558  0.88983948  0.20505499  1  -0.415273  0  -0.104998  -0.281171  0  2.010786  0
O  O145  1  0.47739962  0.83579773  0.26582651  1  -0.374679  0  -0.074333  -0.242758  0  2.001235  0
O  O146  1  0.84243393  0.11017987  0.70502244  1  -0.414687  0  -0.104924  -0.281244  0  2.010709  0
O  O147  1  0.02283644  0.16421868  0.76578293  1  -0.375023  0  -0.074566  -0.242905  0  2.000629  0
O  O148  1  0.73425133  0.64298988  0.82394315  1  -0.437947  0  -0.108021  -0.296325  0  1.979579  0
O  O149  1  0.52268545  0.67638471  0.76075438  1  -0.388535  0  -0.086538  -0.256833  0  1.913816  0
O  O150  1  0.76560156  0.35699316  0.32393989  1  -0.438919  0  -0.107936  -0.296324  0  1.978857  0
O  O151  1  0.97718648  0.32359629  0.26074793  1  -0.388569  0  -0.086789  -0.257111  0  1.913868  0
O  O152  1  0.23437891  0.85699696  0.17606623  1  -0.439046  0  -0.107997  -0.296416  0  1.97926  0
O  O153  1  0.02278724  0.82359922  0.23925816  1  -0.388955  0  -0.086624  -0.256972  0  1.913796  0
O  O154  1  0.26588815  0.14297355  0.67604557  1  -0.438326  0  -0.107992  -0.296399  0  1.979247  0
O  O155  1  0.47744065  0.17635018  0.73924793  1  -0.388705  0  -0.086411  -0.25659  0  1.913357  0
O  O156  1  0.47888002  0.56904909  0.88494669  1  -0.39804  0  -0.091128  -0.259093  0  1.953417  0
O  O157  1  0.76128725  0.52292690  0.89840494  1  -0.388889  0  -0.077064  -0.242965  0  1.972854  0
O  O158  1  0.02095346  0.43092609  0.38494860  1  -0.398569  0  -0.091174  -0.259128  0  1.953448  0
O  O159  1  0.73852098  0.47705032  0.39840012  1  -0.388252  0  -0.076918  -0.242612  0  1.972874  0
O  O160  1  0.97901454  0.93092792  0.11505673  1  -0.398425  0  -0.091208  -0.259117  0  1.953607  0
O  O161  1  0.26144354  0.97705064  0.10160397  1  -0.388848  0  -0.076939  -0.242642  0  1.972834  0
O  O162  1  0.52115560  0.06899923  0.61505300  1  -0.396578  0  -0.091278  -0.259271  0  1.953707  0
O  O163  1  0.23873319  0.02288186  0.60161296  1  -0.388827  0  -0.077062  -0.242905  0  1.972953  0
O  O164  1  0.34047794  0.45969417  0.76317083  1  -0.465952  0  -0.09647  -0.292758  0  2.109833  0
O  O165  1  0.36377469  0.44529891  0.85522353  1  -0.373222  0  -0.062045  -0.226784  0  1.938231  0
O  O166  1  0.15941554  0.54028234  0.26317631  1  -0.465775  0  -0.096745  -0.292779  0  2.110061  0
O  O167  1  0.13611454  0.55465259  0.35523573  1  -0.372038  0  -0.061628  -0.226193  0  1.938232  0
O  O168  1  0.84053177  0.04028254  0.23682659  1  -0.466052  0  -0.096504  -0.292517  0  2.109827  0
O  O169  1  0.86383976  0.05465224  0.14477014  1  -0.371821  0  -0.061789  -0.226262  0  1.938175  0
O  O170  1  0.65954103  0.95965707  0.73684742  1  -0.46605  0  -0.096713  -0.292813  0  2.109781  0
O  O171  1  0.63622293  0.94523900  0.64479979  1  -0.37274  0  -0.062018  -0.226615  0  1.937994  0
O  O172  1  0.82474279  0.35420763  0.66541508  1  -0.410955  0  -0.109517  -0.287374  0  1.884415  0
O  O173  1  0.98365188  0.35641107  0.74596432  1  -0.420812  0  -0.103605  -0.288462  0  1.964462  0
O  O174  1  0.67528062  0.64578508  0.16541885  1  -0.411386  0  -0.109606  -0.287356  0  1.884197  0
O  O175  1  0.51635130  0.64359651  0.24597589  1  -0.419708  0  -0.103586  -0.288353  0  1.964337  0
O  O176  1  0.32468110  0.14579909  0.33457861  1  -0.411033  0  -0.109633  -0.287362  0  1.884284  0
O  O177  1  0.48362480  0.14359697  0.25402412  1  -0.420153  0  -0.103523  -0.288193  0  1.964245  0
O  O178  1  0.17524310  0.85422084  0.83462472  1  -0.41149  0  -0.109441  -0.287328  0  1.884857  0
O  O179  1  0.01631962  0.85639874  0.75407505  1  -0.419079  0  -0.103858  -0.288993  0  1.964442  0
