# generated using pymatgen
data_GaH16C32N8F
_symmetry_space_group_name_H-M   'P 1'
_cell_length_a   3.91435253
_cell_length_b   12.49136337
_cell_length_c   12.73384523
_cell_angle_alpha   90.45816691
_cell_angle_beta   96.48152524
_cell_angle_gamma   89.90908560
_symmetry_Int_Tables_number   1
_chemical_formula_structural   GaH16C32N8F
_chemical_formula_sum   'Ga1 H16 C32 N8 F1'
_cell_volume   618.62942016
_cell_formula_units_Z   1
loop_
 _symmetry_equiv_pos_site_id
 _symmetry_equiv_pos_as_xyz
  1  'x, y, z'
loop_
 _atom_site_type_symbol
 _atom_site_label
 _atom_site_symmetry_multiplicity
 _atom_site_fract_x
 _atom_site_fract_y
 _atom_site_fract_z
 _atom_site_occupancy
 _atom_site_hle17_bader_spin_density
 _atom_site_hle17_ddec_charge
 _atom_site_hle17_ddec_spin_density
 _atom_site_hle17_ddec_sum_bond_order
 _atom_site_hle17_magmom
 _atom_site_hse06_10hf_bader_spin_density
 _atom_site_hse06_10hf_ddec_charge
 _atom_site_hse06_10hf_ddec_spin_density
 _atom_site_hse06_10hf_ddec_sum_bond_order
 _atom_site_hse06_10hf_magmom
 _atom_site_hse06_bader_spin_density
 _atom_site_hse06_ddec_charge
 _atom_site_hse06_ddec_spin_density
 _atom_site_hse06_ddec_sum_bond_order
 _atom_site_hse06_magmom
 _atom_site_pbe_bader_spin_density
 _atom_site_pbe_cm5_charge
 _atom_site_pbe_ddec_charge
 _atom_site_pbe_ddec_spin_density
 _atom_site_pbe_ddec_sum_bond_order
 _atom_site_pbe_magmom
Ga  Ga0  1  0.00000702  0.99999965  0.00000031  1  0  1.401817  0  2.550139  0  0  1.232954  0  2.981153  0  0  1.283103  0  2.935381  0  0  0.60049  1.198374  0  3.012208  0
H  H1  1  0.23733184  0.01766259  0.46670512  1  0  0.095969  0  0.97297  0  0  0.105609  0  1.037172  0  0  0.10829  0  1.035791  0  0  0.105341  0.103719  0  1.03815  0
H  H2  1  0.76267456  0.98233977  0.53329610  1  0  0.096014  0  0.972913  0  0  0.105621  0  1.037157  0  0  0.108303  0  1.035772  0  0  0.105354  0.103731  0  1.038135  0
H  H3  1  0.42125040  0.18099038  0.57228142  1  0  0.094083  0  0.95795  0  0  0.100393  0  1.026262  0  0  0.103852  0  1.024029  0  0  0.100931  0.097954  0  1.027856  0
H  H4  1  0.57875600  0.81901198  0.42771902  1  0  0.094109  0  0.957966  0  0  0.100418  0  1.026272  0  0  0.103873  0  1.024051  0  0  0.100938  0.097973  0  1.027871  0
H  H5  1  0.47084484  0.35578933  0.48381797  1  0  0.077279  0  0.953758  0  0  0.091545  0  1.009041  0  0  0.094198  0  1.008224  0  0  0.095875  0.089655  0  1.009668  0
H  H6  1  0.52916155  0.64421303  0.51618168  1  0  0.077324  0  0.953721  0  0  0.091586  0  1.009006  0  0  0.094238  0  1.008196  0  0  0.0959  0.089696  0  1.009634  0
H  H7  1  0.34388846  0.37101932  0.28725592  1  0  0.093609  0  0.968899  0  0  0.103055  0  1.035458  0  0  0.105648  0  1.034288  0  0  0.102221  0.10119  0  1.036317  0
H  H8  1  0.65612047  0.62898223  0.71274302  1  0  0.093655  0  0.968923  0  0  0.103126  0  1.035438  0  0  0.105701  0  1.034288  0  0  0.102249  0.10127  0  1.036291  0
H  H9  1  0.25079550  0.46551848  0.98314348  1  0  0.095992  0  0.971486  0  0  0.105623  0  1.035491  0  0  0.10829  0  1.034173  0  0  0.10528  0.103726  0  1.036433  0
H  H10  1  0.74921087  0.53448387  0.01685224  1  0  0.096016  0  0.97152  0  0  0.105673  0  1.035469  0  0  0.10834  0  1.034152  0  0  0.105318  0.103781  0  1.036413  0
H  H11  1  0.24842637  0.57073135  0.81731150  1  0  0.093554  0  0.95843  0  0  0.101067  0  1.024891  0  0  0.104314  0  1.022917  0  0  0.100933  0.09873  0  1.026407  0
H  H12  1  0.75156693  0.42926544  0.18268217  1  0  0.093521  0  0.958424  0  0  0.101055  0  1.024865  0  0  0.104301  0  1.022891  0  0  0.100944  0.098718  0  1.026379  0
H  H13  1  0.11210588  0.48257374  0.64213424  1  0  0.077757  0  0.95427  0  0  0.09194  0  1.00941  0  0  0.094526  0  1.00871  0  0  0.096043  0.090096  0  1.009962  0
H  H14  1  0.88787455  0.51742231  0.35786212  1  0  0.077685  0  0.954358  0  0  0.091883  0  1.00948  0  0  0.09447  0  1.008786  0  0  0.096007  0.090039  0  1.01003  0
H  H15  1  0.97570421  0.28664974  0.62876699  1  0  0.093487  0  0.969304  0  0  0.10265  0  1.036139  0  0  0.105205  0  1.0351  0  0  0.102187  0.100841  0  1.036883  0
H  H16  1  0.02427112  0.71334713  0.37123156  1  0  0.093482  0  0.96938  0  0  0.102674  0  1.036169  0  0  0.105232  0  1.035122  0  0  0.102179  0.100866  0  1.036914  0
C  C17  1  0.10944337  0.02305368  0.23658866  1  0  0.394146  0  3.77915  0  0  0.36013  0  4.057342  0  0  0.377197  0  4.070098  0  0  0.241372  0.34881  0  4.048509  0
C  C18  1  0.89057062  0.97694545  0.76341201  1  0  0.394249  0  3.779068  0  0  0.360212  0  4.057325  0  0  0.377277  0  4.070082  0  0  0.24138  0.348892  0  4.048493  0
C  C19  1  0.19837819  0.10292932  0.31926135  1  0  -0.043818  0  3.782975  0  0  -0.03306  0  4.017816  0  0  -0.03691  0  4.041897  0  0  -0.007636  -0.030545  0  4.001566  0
C  C20  1  0.80163586  0.89707141  0.68073934  1  0  -0.04388  0  3.782882  0  0  -0.033188  0  4.017837  0  0  -0.03704  0  4.04192  0  0  -0.007659  -0.030674  0  4.001588  0
C  C21  1  0.26278292  0.09442817  0.42863638  1  0  -0.069514  0  3.726616  0  0  -0.090564  0  3.97269  0  0  -0.091113  0  3.992194  0  0  -0.078728  -0.090088  0  3.959432  0
C  C22  1  0.73722350  0.90557499  0.57136406  1  0  -0.069515  0  3.726446  0  0  -0.090522  0  3.972543  0  0  -0.091067  0  3.992044  0  0  -0.078753  -0.090044  0  3.959276  0
C  C23  1  0.36291488  0.18646951  0.48675221  1  0  -0.068798  0  3.748005  0  0  -0.08325  0  4.003087  0  0  -0.085287  0  4.024139  0  0  -0.086647  -0.081793  0  3.988756  0
C  C24  1  0.63708121  0.81353209  0.51324866  1  0  -0.068921  0  3.748019  0  0  -0.083372  0  4.003087  0  0  -0.085409  0  4.024132  0  0  -0.086687  -0.081911  0  3.988759  0
C  C25  1  0.39184543  0.28522924  0.43610979  1  0  -0.078212  0  3.774111  0  0  -0.091471  0  4.023649  0  0  -0.094491  0  4.046736  0  0  -0.091445  -0.089349  0  4.007849  0
C  C26  1  0.60816093  0.71477232  0.56389064  1  0  -0.078135  0  3.774086  0  0  -0.091391  0  4.023611  0  0  -0.094412  0  4.046684  0  0  -0.091412  -0.089269  0  4.007815  0
C  C27  1  0.32264494  0.29455652  0.32654341  1  0  -0.07563  0  3.735793  0  0  -0.097543  0  3.984025  0  0  -0.09821  0  4.00501  0  0  -0.082475  -0.096922  0  3.969722  0
C  C28  1  0.67737679  0.70544338  0.67345832  1  0  -0.075706  0  3.735943  0  0  -0.097646  0  3.984163  0  0  -0.098303  0  4.005181  0  0  -0.082512  -0.097027  0  3.969837  0
C  C29  1  0.22623136  0.20213707  0.26831781  1  0  -0.048772  0  3.779934  0  0  -0.037725  0  4.015868  0  0  -0.041886  0  4.040182  0  0  -0.008549  -0.035016  0  3.999472  0
C  C30  1  0.77378523  0.79786285  0.73168453  1  0  -0.048794  0  3.780092  0  0  -0.037727  0  4.016024  0  0  -0.041889  0  4.040329  0  0  -0.008555  -0.035017  0  3.99963  0
C  C31  1  0.14476328  0.18145228  0.15527977  1  0  0.392882  0  3.779386  0  0  0.358058  0  4.058996  0  0  0.375046  0  4.071828  0  0  0.240432  0.346792  0  4.050135  0
C  C32  1  0.85524563  0.81854847  0.84472309  1  0  0.392865  0  3.779522  0  0  0.358087  0  4.059044  0  0  0.375077  0  4.07187  0  0  0.240475  0.34682  0  4.050184  0
C  C33  1  0.08812954  0.23731591  0.97823572  1  0  0.395019  0  3.77839  0  0  0.361414  0  4.055768  0  0  0.378411  0  4.068472  0  0  0.24165  0.350141  0  4.046969  0
C  C34  1  0.91186911  0.76268568  0.02176444  1  0  0.395076  0  3.778302  0  0  0.361481  0  4.055728  0  0  0.378479  0  4.068431  0  0  0.241669  0.350208  0  4.04693  0
C  C35  1  0.11019113  0.31919587  0.89823582  1  0  -0.046733  0  3.783746  0  0  -0.03528  0  4.017858  0  0  -0.039178  0  4.041994  0  0  -0.0078  -0.032725  0  4.001569  0
C  C36  1  0.88980234  0.68080493  0.10176259  1  0  -0.046753  0  3.783608  0  0  -0.035317  0  4.017729  0  0  -0.039215  0  4.041861  0  0  -0.007827  -0.032761  0  4.00144  0
C  C37  1  0.19096009  0.42768894  0.90605612  1  0  -0.06825  0  3.726646  0  0  -0.089709  0  3.973521  0  0  -0.090217  0  3.992857  0  0  -0.078694  -0.089237  0  3.960344  0
C  C38  1  0.80903334  0.57231106  0.09393993  1  0  -0.068359  0  3.726597  0  0  -0.089827  0  3.973486  0  0  -0.090337  0  3.992821  0  0  -0.078742  -0.089361  0  3.960314  0
C  C39  1  0.19050493  0.48538833  0.81271956  1  0  -0.067137  0  3.745774  0  0  -0.083003  0  4.002034  0  0  -0.084815  0  4.023063  0  0  -0.086759  -0.081673  0  3.98765  0
C  C40  1  0.80949352  0.51460845  0.18727586  1  0  -0.066978  0  3.745756  0  0  -0.082876  0  4.002061  0  0  -0.084687  0  4.023094  0  0  -0.086738  -0.081549  0  3.987682  0
C  C41  1  0.11248784  0.43504856  0.71367793  1  0  -0.078755  0  3.777183  0  0  -0.091851  0  4.026932  0  0  -0.094871  0  4.049967  0  0  -0.091673  -0.089727  0  4.01118  0
C  C42  1  0.88748745  0.56494750  0.28631826  1  0  -0.078795  0  3.777293  0  0  -0.091896  0  4.027068  0  0  -0.094925  0  4.050116  0  0  -0.09168  -0.08977  0  4.011313  0
C  C43  1  0.03525082  0.32599079  0.70529817  1  0  -0.076894  0  3.737597  0  0  -0.098117  0  3.985293  0  0  -0.098812  0  4.006225  0  0  -0.08254  -0.097515  0  3.971031  0
C  C44  1  0.96472721  0.67400927  0.29470206  1  0  -0.076839  0  3.737641  0  0  -0.09809  0  3.98531  0  0  -0.098784  0  4.006238  0  0  -0.082498  -0.09749  0  3.971051  0
C  C45  1  0.03556238  0.26835463  0.79876135  1  0  -0.045407  0  3.776477  0  0  -0.035151  0  4.011803  0  0  -0.039308  0  4.036141  0  0  -0.008274  -0.032455  0  3.995398  0
C  C46  1  0.96443613  0.73164296  0.20123957  1  0  -0.045409  0  3.77649  0  0  -0.035075  0  4.011762  0  0  -0.039229  0  4.036096  0  0  -0.008229  -0.032376  0  3.995358  0
C  C47  1  0.97780044  0.15551524  0.81984268  1  0  0.392067  0  3.777796  0  0  0.358119  0  4.056799  0  0  0.375128  0  4.069642  0  0  0.240701  0.346826  0  4.047916  0
C  C48  1  0.02219556  0.84448396  0.18015817  1  0  0.392131  0  3.777687  0  0  0.358103  0  4.056814  0  0  0.375115  0  4.069654  0  0  0.240666  0.346805  0  4.04794  0
N  N49  1  0.07399150  0.07394371  0.14050311  1  0  -0.534491  0  3.172747  0  0  -0.461579  0  3.436653  0  0  -0.484809  0  3.447522  0  0  -0.312637  -0.44605  0  3.429101  0
N  N50  1  0.92601741  0.92605704  0.85949976  1  0  -0.534536  0  3.172877  0  0  -0.461618  0  3.436775  0  0  -0.484844  0  3.447631  0  0  -0.312667  -0.446091  0  3.429226  0
N  N51  1  0.00421124  0.14152488  0.92771509  1  0  -0.534811  0  3.173542  0  0  -0.462675  0  3.437389  0  0  -0.485822  0  3.448252  0  0  -0.312627  -0.447217  0  3.429893  0
N  N52  1  0.99577454  0.85847596  0.07228699  1  0  -0.534772  0  3.173476  0  0  -0.462661  0  3.437402  0  0  -0.485814  0  3.448276  0  0  -0.31258  -0.447201  0  3.429905  0
N  N53  1  0.08053990  0.91899225  0.25514902  1  0  -0.430039  0  3.04113  0  0  -0.395129  0  3.317568  0  0  -0.411068  0  3.328296  0  0  -0.305229  -0.384495  0  3.310185  0
N  N54  1  0.91945868  0.08100694  0.74485348  1  0  -0.430024  0  3.041208  0  0  -0.395125  0  3.317618  0  0  -0.411064  0  3.32835  0  0  -0.305221  -0.384493  0  3.310233  0
N  N55  1  0.14943787  0.25604404  0.08159758  1  0  -0.429927  0  3.04541  0  0  -0.395793  0  3.322858  0  0  -0.411556  0  3.333485  0  0  -0.304721  -0.385292  0  3.315548  0
N  N56  1  0.85055810  0.74395435  0.91840404  1  0  -0.429947  0  3.04532  0  0  -0.395841  0  3.322781  0  0  -0.411605  0  3.333408  0  0  -0.304767  -0.385341  0  3.315472  0
F  F57  1  0.49999441  0.99999828  0.99999859  1  0  -0.599237  0  1.027817  0  0  -0.548407  0  1.251114  0  0  -0.56664  0  1.231712  0  0  -0.253575  -0.535176  0  1.264167  0
