# generated using pymatgen
data_ZnH4C5SNO3
_symmetry_space_group_name_H-M   'P 1'
_cell_length_a   4.77744029
_cell_length_b   8.44968482
_cell_length_c   19.36694064
_cell_angle_alpha   101.80104460
_cell_angle_beta   90.10466346
_cell_angle_gamma   106.30934584
_symmetry_Int_Tables_number   1
_chemical_formula_structural   ZnH4C5SNO3
_chemical_formula_sum   'Zn4 H16 C20 S4 N4 O12'
_cell_volume   733.01985872
_cell_formula_units_Z   4
loop_
 _symmetry_equiv_pos_site_id
 _symmetry_equiv_pos_as_xyz
  1  'x, y, z'
loop_
 _atom_site_type_symbol
 _atom_site_label
 _atom_site_symmetry_multiplicity
 _atom_site_fract_x
 _atom_site_fract_y
 _atom_site_fract_z
 _atom_site_occupancy
 _atom_site_hle17_bader_spin_density
 _atom_site_hle17_ddec_charge
 _atom_site_hle17_ddec_spin_density
 _atom_site_hle17_ddec_sum_bond_order
 _atom_site_hle17_magmom
 _atom_site_hse06_10hf_bader_spin_density
 _atom_site_hse06_10hf_ddec_charge
 _atom_site_hse06_10hf_ddec_spin_density
 _atom_site_hse06_10hf_ddec_sum_bond_order
 _atom_site_hse06_10hf_magmom
 _atom_site_hse06_bader_spin_density
 _atom_site_hse06_ddec_charge
 _atom_site_hse06_ddec_spin_density
 _atom_site_hse06_ddec_sum_bond_order
 _atom_site_hse06_magmom
 _atom_site_pbe_bader_spin_density
 _atom_site_pbe_cm5_charge
 _atom_site_pbe_ddec_charge
 _atom_site_pbe_ddec_spin_density
 _atom_site_pbe_ddec_sum_bond_order
 _atom_site_pbe_magmom
Zn  Zn0  1  0.93942890  0.42963820  0.81693575  1  0  1.08639  0  1.81582  0  0  0.908058  0  2.295259  0  0  0.953864  0  2.234756  0  0  0.678294  0.875886  0  2.337  0
Zn  Zn1  1  0.50985751  0.56931348  0.68306185  1  0  1.087292  0  1.815175  0  0  0.909065  0  2.295206  0  0  0.954878  0  2.234649  0  0  0.678632  0.876883  0  2.336974  0
Zn  Zn2  1  0.06057031  0.57036316  0.18306417  1  0  1.08635  0  1.815779  0  0  0.908033  0  2.295207  0  0  0.953829  0  2.234687  0  0  0.678274  0.875855  0  2.336934  0
Zn  Zn3  1  0.49013606  0.43068914  0.31693819  1  0  1.087265  0  1.815176  0  0  0.909071  0  2.295197  0  0  0.954889  0  2.234634  0  0  0.678671  0.876888  0  2.336966  0
H  H4  1  0.12435734  0.39373949  0.95759769  1  0  0.08294  0  0.931677  0  0  0.092259  0  0.992078  0  0  0.09487  0  0.990239  0  0  0.117247  0.090283  0  0.993541  0
H  H5  1  0.73439643  0.60674007  0.54298309  1  0  0.082908  0  0.930387  0  0  0.092334  0  0.990637  0  0  0.094967  0  0.988809  0  0  0.117025  0.09027  0  0.992168  0
H  H6  1  0.87565750  0.60624285  0.04239805  1  0  0.082915  0  0.931726  0  0  0.092245  0  0.992113  0  0  0.094847  0  0.990284  0  0  0.117251  0.090269  0  0.993575  0
H  H7  1  0.26560047  0.39326505  0.45701612  1  0  0.082896  0  0.930367  0  0  0.092361  0  0.990586  0  0  0.094965  0  0.98879  0  0  0.117041  0.090298  0  0.992115  0
H  H8  1  0.93639855  0.21833552  0.04442946  1  0  0.118469  0  1.001256  0  0  0.123706  0  1.06768  0  0  0.127506  0  1.065892  0  0  0.104258  0.120917  0  1.069169  0
H  H9  1  0.72188143  0.78245791  0.45609886  1  0  0.118673  0  0.999728  0  0  0.123904  0  1.065978  0  0  0.127836  0  1.064  0  0  0.104126  0.121057  0  1.067535  0
H  H10  1  0.06362692  0.78164297  0.95556389  1  0  0.118541  0  1.001116  0  0  0.123771  0  1.067561  0  0  0.127573  0  1.065768  0  0  0.104228  0.120977  0  1.069051  0
H  H11  1  0.27808802  0.21753835  0.54389856  1  0  0.118739  0  0.999641  0  0  0.123939  0  1.065939  0  0  0.127871  0  1.063962  0  0  0.104163  0.121093  0  1.067495  0
H  H12  1  0.21807348  0.93166386  0.88999312  1  0  0.1235  0  0.963015  0  0  0.130949  0  1.024886  0  0  0.134546  0  1.023228  0  0  0.109919  0.128291  0  1.026302  0
H  H13  1  0.28589466  0.06799243  0.60967920  1  0  0.122814  0  0.964793  0  0  0.130607  0  1.026255  0  0  0.134175  0  1.02464  0  0  0.109324  0.127982  0  1.027623  0
H  H14  1  0.78192409  0.06834260  0.11000879  1  0  0.123513  0  0.962988  0  0  0.130975  0  1.024839  0  0  0.134576  0  1.023182  0  0  0.109915  0.128318  0  1.026256  0
H  H15  1  0.71411401  0.93201528  0.39032281  1  0  0.122892  0  0.964723  0  0  0.130683  0  1.026166  0  0  0.134252  0  1.024556  0  0  0.109352  0.128057  0  1.027532  0
H  H16  1  0.42849778  0.12960120  0.81282530  1  0  0.099833  0  0.905425  0  0  0.111988  0  0.958313  0  0  0.114469  0  0.956327  0  0  0.12835  0.11008  0  0.959939  0
H  H17  1  0.29839346  0.86989970  0.68690153  1  0  0.10065  0  0.904951  0  0  0.112421  0  0.958201  0  0  0.114928  0  0.956136  0  0  0.128365  0.110512  0  0.959844  0
H  H18  1  0.57149816  0.87041037  0.18717910  1  0  0.099793  0  0.905478  0  0  0.111942  0  0.958362  0  0  0.114423  0  0.956378  0  0  0.128355  0.110035  0  0.959986  0
H  H19  1  0.70163158  0.13011563  0.31310320  1  0  0.100655  0  0.904824  0  0  0.112478  0  0.958043  0  0  0.114989  0  0.95597  0  0  0.128359  0.110566  0  0.959694  0
C  C20  1  0.92096461  0.29149819  0.94584809  1  0  0.12545  0  3.714716  0  0  0.096147  0  3.962595  0  0  0.102195  0  3.982185  0  0  0.044753  0.092232  0  3.949346  0
C  C21  1  0.63154201  0.70858471  0.55443418  1  0  0.12444  0  3.711171  0  0  0.095397  0  3.959246  0  0  0.101421  0  3.97892  0  0  0.044837  0.091568  0  3.945938  0
C  C22  1  0.07904545  0.70849556  0.05415016  1  0  0.125347  0  3.71482  0  0  0.096041  0  3.96267  0  0  0.102098  0  3.982261  0  0  0.044726  0.092128  0  3.949423  0
C  C23  1  0.36844486  0.29141288  0.44556594  1  0  0.124294  0  3.711069  0  0  0.095233  0  3.959185  0  0  0.101283  0  3.978865  0  0  0.044775  0.091408  0  3.945874  0
C  C24  1  0.81568498  0.18992858  0.99350556  1  0  -0.159055  0  3.700389  0  0  -0.179051  0  3.950076  0  0  -0.187319  0  3.972697  0  0  -0.084534  -0.173665  0  3.934951  0
C  C25  1  0.62792061  0.81038632  0.50677136  1  0  -0.158661  0  3.698065  0  0  -0.178239  0  3.948293  0  0  -0.186544  0  3.970842  0  0  -0.08388  -0.172843  0  3.933194  0
C  C26  1  0.18432381  0.81006262  0.00649145  1  0  -0.158877  0  3.700309  0  0  -0.178874  0  3.94994  0  0  -0.187142  0  3.972556  0  0  -0.084386  -0.173486  0  3.934806  0
C  C27  1  0.37206688  0.18961253  0.49322887  1  0  -0.158707  0  3.698072  0  0  -0.178298  0  3.948326  0  0  -0.186598  0  3.970851  0  0  -0.083967  -0.172905  0  3.933233  0
C  C28  1  0.55764911  0.05626736  0.97546156  1  0  0.088798  0  3.760867  0  0  0.09882  0  3.995479  0  0  0.102316  0  4.017856  0  0  0.013635  0.096641  0  3.980153  0
C  C29  1  0.50136971  0.94350404  0.52452545  1  0  0.089469  0  3.757763  0  0  0.098499  0  3.994844  0  0  0.101871  0  4.017575  0  0  0.013956  0.096411  0  3.979272  0
C  C30  1  0.44235392  0.94372904  0.02454104  1  0  0.08852  0  3.761066  0  0  0.098559  0  3.99569  0  0  0.102052  0  4.018075  0  0  0.013565  0.096402  0  3.980332  0
C  C31  1  0.49862239  0.05649986  0.47547521  1  0  0.089452  0  3.758031  0  0  0.09855  0  3.994978  0  0  0.101942  0  4.017691  0  0  0.013955  0.096458  0  3.979415  0
C  C32  1  0.41629215  0.03383899  0.90886594  1  0  -0.155337  0  3.698204  0  0  -0.176156  0  3.952629  0  0  -0.183938  0  3.974309  0  0  -0.076855  -0.171131  0  3.938222  0
C  C33  1  0.38162096  0.96557018  0.59091091  1  0  -0.155293  0  3.700326  0  0  -0.175901  0  3.954567  0  0  -0.183662  0  3.976187  0  0  -0.077154  -0.170904  0  3.940219  0
C  C34  1  0.58371420  0.96615988  0.09113533  1  0  -0.15515  0  3.698212  0  0  -0.176006  0  3.952626  0  0  -0.183793  0  3.974313  0  0  -0.076779  -0.170985  0  3.938213  0
C  C35  1  0.61837409  0.03443123  0.40909057  1  0  -0.155424  0  3.700488  0  0  -0.175974  0  3.954615  0  0  -0.183748  0  3.976245  0  0  -0.077165  -0.170972  0  3.94026  0
C  C36  1  0.53307868  0.14261007  0.86457736  1  0  0.157263  0  3.657763  0  0  0.123643  0  3.909237  0  0  0.131109  0  3.926141  0  0  0.056957  0.118695  0  3.897908  0
C  C37  1  0.38977660  0.85672886  0.63522834  1  0  0.156407  0  3.660468  0  0  0.123413  0  3.911522  0  0  0.130917  0  3.92841  0  0  0.057718  0.118432  0  3.900222  0
C  C38  1  0.46692433  0.85738629  0.13542421  1  0  0.157215  0  3.657759  0  0  0.123631  0  3.909195  0  0  0.131093  0  3.926104  0  0  0.056935  0.118686  0  3.89787  0
C  C39  1  0.61021763  0.14327508  0.36477387  1  0  0.156368  0  3.660425  0  0  0.123314  0  3.911509  0  0  0.130816  0  3.928402  0  0  0.057737  0.118331  0  3.900207  0
S  S40  1  0.55804008  0.67007293  0.84674074  1  0  0.939296  0  4.449262  0  0  0.846827  0  4.950168  0  0  0.885215  0  4.929859  0  0  0.372932  0.820162  0  4.96317  0
S  S41  1  0.88918378  0.32868872  0.65318248  1  0  0.939588  0  4.452328  0  0  0.847356  0  4.952942  0  0  0.88581  0  4.932572  0  0  0.372722  0.820633  0  4.966017  0
S  S42  1  0.44195766  0.32992967  0.15325877  1  0  0.939255  0  4.449197  0  0  0.846779  0  4.950123  0  0  0.885169  0  4.929809  0  0  0.372878  0.820117  0  4.963121  0
S  S43  1  0.11081627  0.67131011  0.34681723  1  0  0.939622  0  4.452293  0  0  0.847403  0  4.952926  0  0  0.885858  0  4.932553  0  0  0.372746  0.820682  0  4.965995  0
N  N44  1  0.78190964  0.26959042  0.88257036  1  0  -0.326539  0  3.302722  0  0  -0.242293  0  3.577691  0  0  -0.261091  0  3.591885  0  0  -0.329404  -0.229632  0  3.568088  0
N  N45  1  0.51261991  0.72989413  0.61744426  1  0  -0.326767  0  3.300762  0  0  -0.243109  0  3.576166  0  0  -0.261929  0  3.590376  0  0  -0.330152  -0.23042  0  3.566517  0
N  N46  1  0.21809396  0.73040715  0.11742924  1  0  -0.32651  0  3.302782  0  0  -0.24227  0  3.577718  0  0  -0.261061  0  3.591901  0  0  -0.329448  -0.229614  0  3.568121  0
N  N47  1  0.48737850  0.27010979  0.38255743  1  0  -0.326482  0  3.300581  0  0  -0.242897  0  3.576075  0  0  -0.261714  0  3.590275  0  0  -0.330089  -0.230207  0  3.566421  0
O  O48  1  0.36826426  0.48355619  0.83778483  1  0  -0.747659  0  2.064725  0  0  -0.668713  0  2.381854  0  0  -0.695484  0  2.360791  0  0  -0.382487  -0.649652  0  2.395628  0
O  O49  1  0.88424998  0.51508670  0.66213002  1  0  -0.7468  0  2.067042  0  0  -0.667935  0  2.384779  0  0  -0.694704  0  2.363618  0  0  -0.381865  -0.648849  0  2.398565  0
O  O50  1  0.63172786  0.51644773  0.16221634  1  0  -0.747604  0  2.064591  0  0  -0.668679  0  2.381761  0  0  -0.695447  0  2.360691  0  0  -0.382449  -0.649611  0  2.39552  0
O  O51  1  0.11574111  0.48491095  0.33787217  1  0  -0.746852  0  2.067039  0  0  -0.667967  0  2.384734  0  0  -0.694751  0  2.363603  0  0  -0.381928  -0.648878  0  2.398515  0
O  O52  1  0.87100256  0.65210321  0.85177834  1  0  -0.723205  0  2.10334  0  0  -0.636521  0  2.407572  0  0  -0.662649  0  2.385627  0  0  -0.374586  -0.617869  0  2.421946  0
O  O53  1  0.22004134  0.34697390  0.64824800  1  0  -0.723853  0  2.106688  0  0  -0.637684  0  2.411824  0  0  -0.663881  0  2.3899  0  0  -0.375069  -0.618992  0  2.426128  0
O  O54  1  0.12899532  0.34789551  0.14821723  1  0  -0.723179  0  2.103331  0  0  -0.6365  0  2.407578  0  0  -0.662625  0  2.385622  0  0  -0.374575  -0.617853  0  2.421952  0
O  O55  1  0.77996267  0.65302870  0.35175152  1  0  -0.723805  0  2.106668  0  0  -0.637683  0  2.411832  0  0  -0.663876  0  2.389907  0  0  -0.375052  -0.619013  0  2.426196  0
O  O56  1  0.52069809  0.71819865  0.77553254  1  0  -0.710284  0  2.078519  0  0  -0.629631  0  2.385488  0  0  -0.655587  0  2.364265  0  0  -0.378532  -0.611242  0  2.399351  0
O  O57  1  0.80465309  0.28041657  0.72436743  1  0  -0.710734  0  2.079273  0  0  -0.630185  0  2.386296  0  0  -0.656136  0  2.365007  0  0  -0.378553  -0.611763  0  2.400149  0
O  O58  1  0.47928941  0.28180021  0.22446769  1  0  -0.710281  0  2.078472  0  0  -0.629635  0  2.385479  0  0  -0.655592  0  2.364251  0  0  -0.378525  -0.611236  0  2.399321  0
O  O59  1  0.19535324  0.71958227  0.27563280  1  0  -0.710752  0  2.079245  0  0  -0.630201  0  2.386272  0  0  -0.656149  0  2.36497  0  0  -0.378545  -0.61178  0  2.400129  0
