# generated using pymatgen
data_CdH16C14N4O5
_symmetry_space_group_name_H-M   'P 1'
_cell_length_a   7.99619430
_cell_length_b   8.63481740
_cell_length_c   10.87702945
_cell_angle_alpha   86.95472234
_cell_angle_beta   73.42304627
_cell_angle_gamma   88.31203239
_symmetry_Int_Tables_number   1
_chemical_formula_structural   CdH16C14N4O5
_chemical_formula_sum   'Cd2 H32 C28 N8 O10'
_cell_volume   718.70118855
_cell_formula_units_Z   2
loop_
 _symmetry_equiv_pos_site_id
 _symmetry_equiv_pos_as_xyz
  1  'x, y, z'
loop_
 _atom_site_type_symbol
 _atom_site_label
 _atom_site_symmetry_multiplicity
 _atom_site_fract_x
 _atom_site_fract_y
 _atom_site_fract_z
 _atom_site_occupancy
 _atom_site_hle17_bader_spin_density
 _atom_site_hle17_ddec_charge
 _atom_site_hle17_ddec_spin_density
 _atom_site_hle17_ddec_sum_bond_order
 _atom_site_hle17_magmom
 _atom_site_hse06_10hf_bader_spin_density
 _atom_site_hse06_10hf_ddec_charge
 _atom_site_hse06_10hf_ddec_spin_density
 _atom_site_hse06_10hf_ddec_sum_bond_order
 _atom_site_hse06_10hf_magmom
 _atom_site_hse06_bader_spin_density
 _atom_site_hse06_ddec_charge
 _atom_site_hse06_ddec_spin_density
 _atom_site_hse06_ddec_sum_bond_order
 _atom_site_hse06_magmom
 _atom_site_pbe_bader_spin_density
 _atom_site_pbe_cm5_charge
 _atom_site_pbe_ddec_charge
 _atom_site_pbe_ddec_spin_density
 _atom_site_pbe_ddec_sum_bond_order
 _atom_site_pbe_magmom
Cd  Cd0  1  0.49999940  0.50000029  0.00000033  1  0  1.092034  0  1.602138  0  0  0.907818  0  2.027906  0  0  0.958493  0  1.986004  0  0  0.753128  0.872285  0  2.055358  0
Cd  Cd1  1  0.50000030  0.99999913  0.49999968  1  0  1.173302  0  1.546963  0  0  0.998964  0  1.976207  0  0  1.052289  0  1.92425  0  0  0.751427  0.960899  0  2.012765  0
H  H2  1  0.67054389  0.35066553  0.20508990  1  0  0.319248  0  0.912329  0  0  0.30535  0  0.973654  0  0  0.312313  0  0.968453  0  0  0.290431  0.300398  0  0.977364  0
H  H3  1  0.32945547  0.64933551  0.79491038  1  0  0.319248  0  0.912347  0  0  0.30535  0  0.973672  0  0  0.312313  0  0.968472  0  0  0.290438  0.300397  0  0.977382  0
H  H4  1  0.53900730  0.22330377  0.17784248  1  0  0.313158  0  0.911729  0  0  0.30139  0  0.970672  0  0  0.308153  0  0.965746  0  0  0.290225  0.296428  0  0.974426  0
H  H5  1  0.46099077  0.77669611  0.82215720  1  0  0.313168  0  0.911759  0  0  0.301409  0  0.970685  0  0  0.308174  0  0.965756  0  0  0.290209  0.296446  0  0.974439  0
H  H6  1  0.94155761  0.91442584  0.71750317  1  0  0.30001  0  0.925402  0  0  0.286965  0  0.988082  0  0  0.292108  0  0.984918  0  0  0.291597  0.283269  0  0.990335  0
H  H7  1  0.05844048  0.08557288  0.28249840  1  0  0.299973  0  0.925425  0  0  0.286925  0  0.988116  0  0  0.292067  0  0.984954  0  0  0.291581  0.28323  0  0.990369  0
H  H8  1  0.78752433  0.84244990  0.84373889  1  0  0.309071  0  0.917435  0  0  0.295849  0  0.979291  0  0  0.301767  0  0.975364  0  0  0.289227  0.291526  0  0.982149  0
H  H9  1  0.21247373  0.15754999  0.15626263  1  0  0.309075  0  0.917418  0  0  0.295855  0  0.979268  0  0  0.301771  0  0.97534  0  0  0.289226  0.291533  0  0.982127  0
H  H10  1  0.21811424  0.67000213  0.16846290  1  0  0.28697  0  0.952482  0  0  0.276558  0  1.009584  0  0  0.280401  0  1.009989  0  0  0.288103  0.27354  0  1.009736  0
H  H11  1  0.78188644  0.32999775  0.83153623  1  0  0.286945  0  0.952548  0  0  0.2765  0  1.009665  0  0  0.280343  0  1.01007  0  0  0.288082  0.273479  0  1.009818  0
H  H12  1  0.40080293  0.65954654  0.21528844  1  0  0.306467  0  0.933325  0  0  0.291511  0  0.992831  0  0  0.299487  0  0.986082  0  0  0.286888  0.285751  0  0.997755  0
H  H13  1  0.59919773  0.34045450  0.78471064  1  0  0.306495  0  0.933286  0  0  0.291536  0  0.992792  0  0  0.299512  0  0.986044  0  0  0.286899  0.285773  0  0.997718  0
H  H14  1  0.31048957  0.25194509  0.63624789  1  0  0.311783  0  0.924424  0  0  0.296184  0  0.987929  0  0  0.303431  0  0.982291  0  0  0.289659  0.290912  0  0.992186  0
H  H15  1  0.68951242  0.74805479  0.36375188  1  0  0.311771  0  0.924418  0  0  0.296168  0  0.987937  0  0  0.303414  0  0.982302  0  0  0.289648  0.290897  0  0.992196  0
H  H16  1  0.47818665  0.30677701  0.51181730  1  0  0.306766  0  0.924081  0  0  0.294233  0  0.981648  0  0  0.301422  0  0.976337  0  0  0.292315  0.289233  0  0.985105  0
H  H17  1  0.52181533  0.69322287  0.48818156  1  0  0.306673  0  0.924217  0  0  0.294214  0  0.981682  0  0  0.301374  0  0.976409  0  0  0.292308  0.289213  0  0.98514  0
H  H18  1  0.97381850  0.36612528  0.08280701  1  0  0.11028  0  0.970416  0  0  0.117239  0  1.041471  0  0  0.120579  0  1.040341  0  0  0.10217  0.116046  0  1.039846  0
H  H19  1  0.02618220  0.63387344  0.91719308  1  0  0.110228  0  0.970425  0  0  0.117254  0  1.04141  0  0  0.120595  0  1.04028  0  0  0.102175  0.11606  0  1.039782  0
H  H20  1  0.60570129  0.07609456  0.98462777  1  0  0.114077  0  0.951685  0  0  0.125996  0  1.012707  0  0  0.129811  0  1.010295  0  0  0.104437  0.123168  0  1.014185  0
H  H21  1  0.39429544  0.92390765  0.01537300  1  0  0.114052  0  0.951686  0  0  0.125966  0  1.01272  0  0  0.129787  0  1.010298  0  0  0.104436  0.123138  0  1.014197  0
H  H22  1  0.14785375  0.06137937  0.76789492  1  0  0.116332  0  0.95772  0  0  0.125068  0  1.0236  0  0  0.128641  0  1.022024  0  0  0.106508  0.122445  0  1.024926  0
H  H23  1  0.85214435  0.93861820  0.23210576  1  0  0.116329  0  0.957702  0  0  0.125064  0  1.023584  0  0  0.128642  0  1.022005  0  0  0.106496  0.122442  0  1.024912  0
H  H24  1  0.97309354  0.49126515  0.25539447  1  0  0.104658  0  0.959582  0  0  0.112561  0  1.028159  0  0  0.116088  0  1.026225  0  0  0.097985  0.109915  0  1.029762  0
H  H25  1  0.02690714  0.50873473  0.74460558  1  0  0.104655  0  0.959581  0  0  0.112554  0  1.02817  0  0  0.11608  0  1.026236  0  0  0.097977  0.109906  0  1.029772  0
H  H26  1  0.45313409  0.46546319  0.36128729  1  0  0.130569  0  0.961282  0  0  0.142147  0  1.019  0  0  0.146083  0  1.016517  0  0  0.11132  0.139353  0  1.0208  0
H  H27  1  0.54686789  0.53453668  0.63871157  1  0  0.130538  0  0.961327  0  0  0.142141  0  1.019009  0  0  0.146078  0  1.016524  0  0  0.111317  0.139345  0  1.020809  0
H  H28  1  0.03679481  0.15163582  0.54401115  1  0  0.12097  0  0.951227  0  0  0.129231  0  1.016953  0  0  0.133272  0  1.014443  0  0  0.10179  0.126227  0  1.019131  0
H  H29  1  0.96320715  0.84836637  0.45598853  1  0  0.12096  0  0.951249  0  0  0.129226  0  1.01697  0  0  0.133265  0  1.014458  0  0  0.101811  0.126224  0  1.019144  0
H  H30  1  0.52473691  0.92021667  0.24595948  1  0  0.408367  0  0.902631  0  0  0.375965  0  0.970081  0  0  0.385841  0  0.955818  0  0  0.284615  0.369073  0  0.979983  0
H  H31  1  0.47526248  0.07978205  0.75403997  1  0  0.408398  0  0.90259  0  0  0.375994  0  0.970042  0  0  0.385871  0  0.955777  0  0  0.284623  0.369101  0  0.979946  0
H  H32  1  0.34676627  0.01884948  0.27240992  1  0  0.393794  0  0.911926  0  0  0.356853  0  0.992552  0  0  0.36786  0  0.977185  0  0  0.27729  0.348975  0  1.003603  0
H  H33  1  0.65323443  0.98114924  0.72759018  1  0  0.393796  0  0.911908  0  0  0.356848  0  0.992557  0  0  0.367855  0  0.97719  0  0  0.277295  0.348969  0  1.003608  0
C  C34  1  0.26174970  0.26742157  0.90752090  1  0  0.657787  0  3.890896  0  0  0.601683  0  4.189418  0  0  0.635812  0  4.180342  0  0  0.213116  0.579134  0  4.193658  0
C  C35  1  0.73824969  0.73257715  0.09247947  1  0  0.657728  0  3.890935  0  0  0.601643  0  4.189438  0  0  0.635764  0  4.180361  0  0  0.213072  0.579091  0  4.19368  0
C  C36  1  0.07763451  0.22008693  0.92318585  1  0  -0.045146  0  3.83423  0  0  -0.020819  0  4.072142  0  0  -0.024011  0  4.093707  0  0  -0.025308  -0.018994  0  4.057425  0
C  C37  1  0.92236488  0.77991179  0.07681452  1  0  -0.045091  0  3.834178  0  0  -0.020806  0  4.072142  0  0  -0.023976  0  4.093681  0  0  -0.025297  -0.01898  0  4.057428  0
C  C38  1  0.94354775  0.28053601  0.02268947  1  0  -0.203389  0  3.707123  0  0  -0.236261  0  3.960921  0  0  -0.241651  0  3.980755  0  0  -0.108155  -0.232893  0  3.945593  0
C  C39  1  0.05645164  0.71946271  0.97731089  1  0  -0.203379  0  3.707114  0  0  -0.236288  0  3.960919  0  0  -0.241685  0  3.980748  0  0  -0.108152  -0.232919  0  3.945592  0
C  C40  1  0.77261201  0.23003756  0.04397983  1  0  0.294837  0  3.845566  0  0  0.295574  0  4.092641  0  0  0.305118  0  4.112843  0  0  0.081837  0.288798  0  4.079147  0
C  C41  1  0.22738605  0.76996232  0.95602076  1  0  0.294856  0  3.845589  0  0  0.295576  0  4.092706  0  0  0.305117  0  4.112913  0  0  0.08182  0.288801  0  4.079211  0
C  C42  1  0.73933171  0.11407576  0.96883948  1  0  -0.276056  0  3.662823  0  0  -0.30253  0  3.917977  0  0  -0.309316  0  3.934382  0  0  -0.108365  -0.296249  0  3.905272  0
C  C43  1  0.26066634  0.88592528  0.03116016  1  0  -0.275959  0  3.662803  0  0  -0.302429  0  3.917977  0  0  -0.309221  0  3.934379  0  0  -0.108345  -0.296147  0  3.905272  0
C  C44  1  0.87328933  0.05450933  0.86824440  1  0  0.304847  0  3.832452  0  0  0.30352  0  4.083101  0  0  0.312925  0  4.102721  0  0  0.08703  0.296265  0  4.069643  0
C  C45  1  0.12670872  0.94549172  0.13175431  1  0  0.304767  0  3.832514  0  0  0.303432  0  4.083183  0  0  0.312848  0  4.102787  0  0  0.087036  0.296174  0  4.069734  0
C  C46  1  0.04289780  0.11062648  0.84376514  1  0  -0.210771  0  3.708808  0  0  -0.243228  0  3.963061  0  0  -0.248697  0  3.983683  0  0  -0.105075  -0.239319  0  3.949334  0
C  C47  1  0.95710157  0.88937340  0.15623518  1  0  -0.21075  0  3.70882  0  0  -0.243191  0  3.963074  0  0  -0.248672  0  3.983684  0  0  -0.105066  -0.239283  0  3.949353  0
C  C48  1  0.80848626  0.25935336  0.41003887  1  0  0.634209  0  3.938527  0  0  0.587118  0  4.231434  0  0  0.620769  0  4.222895  0  0  0.197335  0.564293  0  4.23616  0
C  C49  1  0.19151573  0.74064651  0.58996275  1  0  0.634258  0  3.938514  0  0  0.587158  0  4.23144  0  0  0.62081  0  4.222901  0  0  0.197341  0.564333  0  4.236165  0
C  C50  1  0.98735440  0.31826194  0.40233547  1  0  -0.037218  0  3.802392  0  0  -0.01182  0  4.034782  0  0  -0.015533  0  4.056909  0  0  -0.021918  -0.009637  0  4.020244  0
C  C51  1  0.01264626  0.68173909  0.59766545  1  0  -0.037216  0  3.802363  0  0  -0.011821  0  4.034757  0  0  -0.01553  0  4.056878  0  0  -0.021941  -0.009639  0  4.020216  0
C  C52  1  0.05476742  0.43805123  0.31134726  1  0  -0.199563  0  3.715857  0  0  -0.232842  0  3.972584  0  0  -0.237542  0  3.992481  0  0  -0.105736  -0.229524  0  3.959413  0
C  C53  1  0.94523326  0.56194864  0.68865279  1  0  -0.199609  0  3.715838  0  0  -0.232872  0  3.972605  0  0  -0.237573  0  3.992502  0  0  -0.105745  -0.229552  0  3.959428  0
C  C54  1  0.22552743  0.48631336  0.29304542  1  0  0.299742  0  3.839234  0  0  0.299819  0  4.085527  0  0  0.30822  0  4.106958  0  0  0.078315  0.293746  0  4.071015  0
C  C55  1  0.77447323  0.51368768  0.70695458  1  0  0.2998  0  3.839115  0  0  0.2998  0  4.085504  0  0  0.308202  0  4.106935  0  0  0.078287  0.293729  0  4.070982  0
C  C56  1  0.32278994  0.42315070  0.37152440  1  0  -0.264691  0  3.668466  0  0  -0.291569  0  3.916701  0  0  -0.298435  0  3.935159  0  0  -0.106289  -0.287204  0  3.905051  0
C  C57  1  0.67721070  0.57685149  0.62847464  1  0  -0.264639  0  3.668471  0  0  -0.291501  0  3.916703  0  0  -0.298368  0  3.935163  0  0  -0.106253  -0.287138  0  3.905052  0
C  C58  1  0.25468795  0.30598042  0.46421460  1  0  0.315519  0  3.790893  0  0  0.315299  0  4.03854  0  0  0.323668  0  4.060526  0  0  0.085937  0.3092  0  4.024611  0
C  C59  1  0.74531401  0.69402061  0.53578513  1  0  0.315469  0  3.791005  0  0  0.315239  0  4.03866  0  0  0.323607  0  4.060642  0  0  0.085917  0.30914  0  4.024731  0
C  C60  1  0.08778781  0.24941475  0.47782187  1  0  -0.19835  0  3.679664  0  0  -0.231426  0  3.932393  0  0  -0.236103  0  3.951797  0  0  -0.104059  -0.228261  0  3.920097  0
C  C61  1  0.91221547  0.75058512  0.52217763  1  0  -0.198307  0  3.679789  0  0  -0.231381  0  3.932506  0  0  -0.236054  0  3.951907  0  0  -0.104048  -0.228217  0  3.920211  0
N  N62  1  0.63191899  0.30344086  0.13254050  1  0  -0.680517  0  3.08084  0  0  -0.631121  0  3.31512  0  0  -0.652479  0  3.313572  0  0  -0.60013  -0.616683  0  3.316276  0
N  N63  1  0.36808038  0.69655902  0.86745982  1  0  -0.680548  0  3.080906  0  0  -0.631156  0  3.315164  0  0  -0.652514  0  3.313619  0  0  -0.600122  -0.616717  0  3.316316  0
N  N64  1  0.83466534  0.94242630  0.79080218  1  0  -0.667951  0  3.082941  0  0  -0.620506  0  3.295878  0  0  -0.638796  0  3.295767  0  0  -0.593178  -0.607532  0  3.296026  0
N  N65  1  0.16533273  0.05757359  0.20919841  1  0  -0.667924  0  3.082912  0  0  -0.620477  0  3.295864  0  0  -0.638766  0  3.295746  0  0  -0.593171  -0.6075  0  3.296014  0
N  N66  1  0.30575724  0.59632606  0.19408678  1  0  -0.673446  0  3.17364  0  0  -0.613991  0  3.398381  0  0  -0.635551  0  3.398855  0  0  -0.609872  -0.598598  0  3.397951  0
N  N67  1  0.69424342  0.40367498  0.80591322  1  0  -0.673478  0  3.173692  0  0  -0.613947  0  3.398497  0  0  -0.635509  0  3.398973  0  0  -0.609849  -0.59855  0  3.39806  0
N  N68  1  0.36391198  0.24544656  0.53884617  1  0  -0.6843  0  3.13316  0  0  -0.627431  0  3.368065  0  0  -0.649058  0  3.364332  0  0  -0.613215  -0.612192  0  3.370954  0
N  N69  1  0.63608870  0.75455332  0.46115296  1  0  -0.684209  0  3.133244  0  0  -0.627409  0  3.368113  0  0  -0.649008  0  3.364426  0  0  -0.613204  -0.612171  0  3.371004  0
O  O70  1  0.29360113  0.31755161  0.00709799  1  0  -0.652516  0  2.034921  0  0  -0.579229  0  2.288856  0  0  -0.606941  0  2.278997  0  0  -0.328841  -0.560143  0  2.293754  0
O  O71  1  0.70639826  0.68244711  0.99290238  1  0  -0.652544  0  2.034975  0  0  -0.579257  0  2.288913  0  0  -0.606969  0  2.279058  0  0  -0.328839  -0.560167  0  2.293807  0
O  O72  1  0.37528420  0.25411918  0.79932349  1  0  -0.648503  0  2.022965  0  0  -0.580899  0  2.240424  0  0  -0.605361  0  2.230343  0  0  -0.313642  -0.564011  0  2.246592  0
O  O73  1  0.62471519  0.74587954  0.20067688  1  0  -0.648468  0  2.022986  0  0  -0.580859  0  2.240433  0  0  -0.60532  0  2.230357  0  0  -0.313626  -0.563969  0  2.246601  0
O  O74  1  0.77974886  0.11580906  0.44498882  1  0  -0.676238  0  1.964955  0  0  -0.610201  0  2.21258  0  0  -0.638294  0  2.200897  0  0  -0.342471  -0.590319  0  2.220286  0
O  O75  1  0.22025443  0.88419081  0.55501160  1  0  -0.676221  0  1.964925  0  0  -0.610191  0  2.212569  0  0  -0.638285  0  2.200886  0  0  -0.342434  -0.590309  0  2.220276  0
O  O76  1  0.70162347  0.35346140  0.37852103  1  0  -0.643925  0  1.968952  0  0  -0.593179  0  2.19342  0  0  -0.616163  0  2.184805  0  0  -0.332119  -0.576238  0  2.198696  0
O  O77  1  0.29837721  0.64653848  0.62147994  1  0  -0.643954  0  1.968997  0  0  -0.593212  0  2.193467  0  0  -0.61619  0  2.184846  0  0  -0.332136  -0.57627  0  2.198743  0
O  O78  1  0.46737817  0.01691067  0.28417749  1  0  -0.829536  0  1.888835  0  0  -0.762433  0  2.087487  0  0  -0.785219  0  2.05597  0  0  -0.582033  -0.746477  0  2.109461  0
O  O79  1  0.53262252  0.98308805  0.71582169  1  0  -0.829565  0  1.888766  0  0  -0.762464  0  2.087455  0  0  -0.785249  0  2.055933  0  0  -0.582052  -0.746498  0  2.109409  0
