# generated using pymatgen
data_AgH8C10BrN2O3
_symmetry_space_group_name_H-M   'P 1'
_cell_length_a   7.13246414
_cell_length_b   12.75527142
_cell_length_c   14.15205099
_cell_angle_alpha   113.60334495
_cell_angle_beta   90.00483097
_cell_angle_gamma   89.99794674
_symmetry_Int_Tables_number   1
_chemical_formula_structural   AgH8C10BrN2O3
_chemical_formula_sum   'Ag4 H32 C40 Br4 N8 O12'
_cell_volume   1179.79084979
_cell_formula_units_Z   4
loop_
 _symmetry_equiv_pos_site_id
 _symmetry_equiv_pos_as_xyz
  1  'x, y, z'
loop_
 _atom_site_type_symbol
 _atom_site_label
 _atom_site_symmetry_multiplicity
 _atom_site_fract_x
 _atom_site_fract_y
 _atom_site_fract_z
 _atom_site_occupancy
 _atom_site_hle17_bader_spin_density
 _atom_site_hle17_ddec_charge
 _atom_site_hle17_ddec_spin_density
 _atom_site_hle17_ddec_sum_bond_order
 _atom_site_hle17_magmom
 _atom_site_hse06_10hf_bader_spin_density
 _atom_site_hse06_10hf_ddec_charge
 _atom_site_hse06_10hf_ddec_spin_density
 _atom_site_hse06_10hf_ddec_sum_bond_order
 _atom_site_hse06_10hf_magmom
 _atom_site_hse06_bader_spin_density
 _atom_site_hse06_ddec_charge
 _atom_site_hse06_ddec_spin_density
 _atom_site_hse06_ddec_sum_bond_order
 _atom_site_hse06_magmom
 _atom_site_pbe_bader_spin_density
 _atom_site_pbe_cm5_charge
 _atom_site_pbe_ddec_charge
 _atom_site_pbe_ddec_spin_density
 _atom_site_pbe_ddec_sum_bond_order
 _atom_site_pbe_magmom
Ag  Ag0  1  0.78938039  0.01342147  0.46634427  1  0  0.537654  0  1.459128  0  0  0.395777  0  1.913096  0  0  0.421736  0  1.866909  0  0  0.464976  0.378755  0  1.944561  0
Ag  Ag1  1  0.71070802  0.51346000  0.96636143  1  0  0.537741  0  1.458916  0  0  0.396006  0  1.912812  0  0  0.421958  0  1.866638  0  0  0.46504  0.378975  0  1.944308  0
Ag  Ag2  1  0.21066028  0.98655236  0.53363365  1  0  0.537721  0  1.458981  0  0  0.395971  0  1.912884  0  0  0.421921  0  1.86669  0  0  0.46501  0.378943  0  1.944373  0
Ag  Ag3  1  0.28940977  0.48655533  0.03364188  1  0  0.537708  0  1.459  0  0  0.395995  0  1.912956  0  0  0.421926  0  1.86679  0  0  0.465013  0.378982  0  1.944416  0
H  H4  1  0.75251419  0.26206634  0.49080652  1  0  0.09349  0  0.954712  0  0  0.098974  0  1.022051  0  0  0.102112  0  1.018708  0  0  0.110824  0.096574  0  1.02451  0
H  H5  1  0.74750780  0.76209042  0.99079794  1  0  0.093557  0  0.954704  0  0  0.099019  0  1.022019  0  0  0.102161  0  1.018685  0  0  0.110831  0.096619  0  1.024477  0
H  H6  1  0.24749844  0.73793194  0.50919970  1  0  0.093605  0  0.954624  0  0  0.099093  0  1.021941  0  0  0.102235  0  1.018606  0  0  0.11086  0.096691  0  1.024394  0
H  H7  1  0.25249782  0.23792344  0.00920708  1  0  0.093567  0  0.954682  0  0  0.099032  0  1.022019  0  0  0.102178  0  1.018674  0  0  0.110805  0.09663  0  1.024481  0
H  H8  1  0.75494549  0.37312255  0.37950091  1  0  0.099508  0  0.948381  0  0  0.113066  0  1.004189  0  0  0.116094  0  1.003257  0  0  0.106089  0.110899  0  1.005019  0
H  H9  1  0.74505159  0.87313914  0.87949020  1  0  0.099495  0  0.94833  0  0  0.112956  0  1.004244  0  0  0.115978  0  1.003323  0  0  0.106082  0.110791  0  1.005074  0
H  H10  1  0.24502227  0.62686931  0.62049921  1  0  0.099534  0  0.948374  0  0  0.113044  0  1.004237  0  0  0.116073  0  1.003304  0  0  0.106097  0.110876  0  1.005069  0
H  H11  1  0.25493721  0.12686767  0.12051066  1  0  0.099531  0  0.948413  0  0  0.113032  0  1.004276  0  0  0.116055  0  1.003352  0  0  0.106093  0.110867  0  1.005108  0
H  H12  1  0.90671993  0.06011146  0.12362237  1  0  0.099895  0  0.942303  0  0  0.11511  0  0.994518  0  0  0.118045  0  0.993756  0  0  0.107402  0.112994  0  0.99523  0
H  H13  1  0.59322689  0.56012333  0.62361937  1  0  0.099807  0  0.942353  0  0  0.11507  0  0.994546  0  0  0.118004  0  0.993792  0  0  0.107401  0.112955  0  0.995257  0
H  H14  1  0.09327728  0.93988125  0.87637800  1  0  0.09988  0  0.942253  0  0  0.115094  0  0.994485  0  0  0.118028  0  0.993721  0  0  0.107376  0.11297  0  0.995209  0
H  H15  1  0.40675911  0.43987549  0.37639197  1  0  0.099751  0  0.942298  0  0  0.114984  0  0.99452  0  0  0.117916  0  0.993764  0  0  0.107393  0.112868  0  0.995228  0
H  H16  1  0.91338953  0.96464858  0.24655028  1  0  0.092479  0  0.952654  0  0  0.099503  0  1.018971  0  0  0.10231  0  1.0152  0  0  0.111055  0.097335  0  1.021752  0
H  H17  1  0.58662287  0.46466172  0.74655521  1  0  0.092736  0  0.952451  0  0  0.099592  0  1.018945  0  0  0.102398  0  1.015173  0  0  0.111088  0.097427  0  1.021729  0
H  H18  1  0.08662310  0.03535250  0.75345106  1  0  0.092604  0  0.952533  0  0  0.099566  0  1.018905  0  0  0.102374  0  1.015133  0  0  0.111076  0.097397  0  1.021689  0
H  H19  1  0.41339117  0.53534344  0.25346150  1  0  0.092637  0  0.952579  0  0  0.099628  0  1.018897  0  0  0.102435  0  1.015125  0  0  0.111103  0.097458  0  1.02168  0
H  H20  1  0.90696671  0.54419682  0.16210946  1  0  0.074521  0  0.9949  0  0  0.07509  0  1.077128  0  0  0.078444  0  1.071826  0  0  0.099776  0.072558  0  1.080977  0
H  H21  1  0.59302450  0.04418421  0.66207005  1  0  0.074327  0  0.994797  0  0  0.074887  0  1.077024  0  0  0.078213  0  1.071803  0  0  0.099745  0.072358  0  1.080871  0
H  H22  1  0.09305294  0.45580604  0.83789311  1  0  0.074498  0  0.995026  0  0  0.075052  0  1.077286  0  0  0.07842  0  1.071949  0  0  0.099808  0.072513  0  1.081157  0
H  H23  1  0.40698252  0.95580390  0.33790204  1  0  0.074442  0  0.99477  0  0  0.075022  0  1.076903  0  0  0.07834  0  1.071696  0  0  0.099775  0.072492  0  1.08075  0
H  H24  1  0.93685006  0.44801368  0.28102560  1  0  0.11572  0  0.944945  0  0  0.127779  0  1.0016  0  0  0.130845  0  1.000827  0  0  0.106631  0.12554  0  1.002369  0
H  H25  1  0.56313098  0.94799588  0.78098666  1  0  0.11558  0  0.945046  0  0  0.127422  0  1.001932  0  0  0.130485  0  1.001165  0  0  0.106524  0.12519  0  1.002686  0
H  H26  1  0.06313033  0.55199375  0.71898112  1  0  0.115649  0  0.945064  0  0  0.127724  0  1.001681  0  0  0.130789  0  1.000905  0  0  0.10658  0.125486  0  1.00245  0
H  H27  1  0.43684800  0.05201623  0.21900154  1  0  0.115592  0  0.945109  0  0  0.12746  0  1.001958  0  0  0.130523  0  1.001193  0  0  0.10653  0.125232  0  1.002708  0
H  H28  1  0.70565034  0.14385150  0.04004337  1  0  0.100613  0  0.943613  0  0  0.114005  0  0.997973  0  0  0.117148  0  0.99702  0  0  0.105245  0.111754  0  0.998815  0
H  H29  1  0.79432546  0.64384258  0.54003629  1  0  0.100559  0  0.943762  0  0  0.113923  0  0.998157  0  0  0.117064  0  0.997207  0  0  0.10525  0.111671  0  0.999  0
H  H30  1  0.29431883  0.85615354  0.95995628  1  0  0.100589  0  0.943693  0  0  0.113968  0  0.998065  0  0  0.117109  0  0.997116  0  0  0.105247  0.111718  0  0.998906  0
H  H31  1  0.20566754  0.35615570  0.45996993  1  0  0.100677  0  0.94368  0  0  0.114024  0  0.998088  0  0  0.117166  0  0.997139  0  0  0.105265  0.111773  0  0.998931  0
H  H32  1  0.67915812  0.25468900  0.93148936  1  0  0.087686  0  0.964942  0  0  0.09168  0  1.03643  0  0  0.094103  0  1.034162  0  0  0.107039  0.089811  0  1.038187  0
H  H33  1  0.82081904  0.75465933  0.43146769  1  0  0.087873  0  0.964703  0  0  0.091862  0  1.036114  0  0  0.094284  0  1.033853  0  0  0.107138  0.08999  0  1.037869  0
H  H34  1  0.32082928  0.74532402  0.06851541  1  0  0.087773  0  0.964784  0  0  0.09176  0  1.036272  0  0  0.094185  0  1.034003  0  0  0.107065  0.089889  0  1.03803  0
H  H35  1  0.17917396  0.24531829  0.56852267  1  0  0.087788  0  0.964804  0  0  0.091779  0  1.036271  0  0  0.094201  0  1.034006  0  0  0.107106  0.089909  0  1.038027  0
C  C36  1  0.78814131  0.22167894  0.40906248  1  0  0.126706  0  3.694472  0  0  0.096778  0  3.939877  0  0  0.103991  0  3.959082  0  0  0.044894  0.092201  0  3.926798  0
C  C37  1  0.71185381  0.72170610  0.90905862  1  0  0.126454  0  3.694896  0  0  0.096716  0  3.940212  0  0  0.103914  0  3.959422  0  0  0.044894  0.09213  0  3.927126  0
C  C38  1  0.21184188  0.77831438  0.59094374  1  0  0.126563  0  3.694793  0  0  0.096658  0  3.940193  0  0  0.103844  0  3.959402  0  0  0.04487  0.092086  0  3.927104  0
C  C39  1  0.28813920  0.27831172  0.09094469  1  0  0.1266  0  3.694677  0  0  0.096812  0  3.940029  0  0  0.104004  0  3.959232  0  0  0.045027  0.092224  0  3.926952  0
C  C40  1  0.78999040  0.28239115  0.34663584  1  0  -0.164531  0  3.723754  0  0  -0.18327  0  3.972961  0  0  -0.191396  0  3.994501  0  0  -0.085405  -0.178058  0  3.958486  0
C  C41  1  0.71001132  0.78240667  0.84663008  1  0  -0.164367  0  3.723678  0  0  -0.183039  0  3.972865  0  0  -0.19115  0  3.994397  0  0  -0.085354  -0.177829  0  3.958393  0
C  C42  1  0.20998438  0.71760304  0.65336282  1  0  -0.164553  0  3.723934  0  0  -0.183248  0  3.973108  0  0  -0.191371  0  3.994653  0  0  -0.085476  -0.178037  0  3.958634  0
C  C43  1  0.28997467  0.21759868  0.15337249  1  0  -0.164534  0  3.723432  0  0  -0.183222  0  3.972615  0  0  -0.191341  0  3.994158  0  0  -0.085382  -0.178013  0  3.958151  0
C  C44  1  0.82821780  0.22558183  0.24094742  1  0  0.092634  0  3.774376  0  0  0.102962  0  4.010978  0  0  0.107747  0  4.03217  0  0  0.009433  0.099911  0  3.996539  0
C  C45  1  0.67179529  0.72557708  0.74093474  1  0  0.092689  0  3.774511  0  0  0.103006  0  4.011151  0  0  0.107779  0  4.032333  0  0  0.009509  0.099959  0  3.996709  0
C  C46  1  0.17177801  0.77442149  0.75905953  1  0  0.092519  0  3.774552  0  0  0.102893  0  4.011164  0  0  0.107676  0  4.032352  0  0  0.009453  0.099837  0  3.996725  0
C  C47  1  0.32819911  0.27443012  0.25906978  1  0  0.092566  0  3.774545  0  0  0.10286  0  4.011168  0  0  0.107637  0  4.032348  0  0  0.009391  0.099809  0  3.996735  0
C  C48  1  0.87190193  0.10886521  0.20444553  1  0  -0.161262  0  3.713867  0  0  -0.179477  0  3.961399  0  0  -0.187541  0  3.982403  0  0  -0.083276  -0.174275  0  3.947301  0
C  C49  1  0.62806644  0.60887884  0.70445197  1  0  -0.161171  0  3.714094  0  0  -0.179433  0  3.961682  0  0  -0.187491  0  3.982682  0  0  -0.083349  -0.174231  0  3.947585  0
C  C50  1  0.12809108  0.89112883  0.79555167  1  0  -0.161068  0  3.713756  0  0  -0.179306  0  3.961276  0  0  -0.187365  0  3.982276  0  0  -0.08322  -0.174098  0  3.947185  0
C  C51  1  0.37191395  0.39113122  0.29555622  1  0  -0.160897  0  3.714049  0  0  -0.179128  0  3.961584  0  0  -0.187188  0  3.982593  0  0  -0.083258  -0.173926  0  3.947482  0
C  C52  1  0.87430072  0.05432829  0.27198700  1  0  0.140473  0  3.682648  0  0  0.108722  0  3.929471  0  0  0.116651  0  3.948197  0  0  0.048146  0.103543  0  3.916876  0
C  C53  1  0.62569549  0.55434729  0.77199571  1  0  0.13994  0  3.683068  0  0  0.108384  0  3.93002  0  0  0.11632  0  3.948739  0  0  0.047902  0.103192  0  3.917424  0
C  C54  1  0.12569649  0.94567009  0.72801215  1  0  0.140204  0  3.682676  0  0  0.108541  0  3.9295  0  0  0.116462  0  3.948211  0  0  0.04803  0.103358  0  3.916908  0
C  C55  1  0.37430873  0.44566431  0.22801930  1  0  0.140118  0  3.682926  0  0  0.108495  0  3.929763  0  0  0.116419  0  3.948478  0  0  0.048052  0.103305  0  3.917162  0
C  C56  1  0.86262551  0.45565624  0.13809433  1  0  0.128391  0  3.702686  0  0  0.097353  0  3.953572  0  0  0.104963  0  3.971  0  0  0.038511  0.092145  0  3.942163  0
C  C57  1  0.63736284  0.95563823  0.63806536  1  0  0.128689  0  3.702513  0  0  0.097586  0  3.953453  0  0  0.10519  0  3.970861  0  0  0.038418  0.092372  0  3.942049  0
C  C58  1  0.13739974  0.54433865  0.86190312  1  0  0.128458  0  3.702592  0  0  0.097403  0  3.953498  0  0  0.105014  0  3.970927  0  0  0.038406  0.092192  0  3.942098  0
C  C59  1  0.36262315  0.04435197  0.36191088  1  0  0.128545  0  3.702742  0  0  0.097594  0  3.953595  0  0  0.105201  0  3.971008  0  0  0.038594  0.092383  0  3.942182  0
C  C60  1  0.87757239  0.40059911  0.20478980  1  0  -0.153594  0  3.694172  0  0  -0.172258  0  3.94004  0  0  -0.180566  0  3.96286  0  0  -0.085293  -0.166789  0  3.924646  0
C  C61  1  0.62239439  0.90058627  0.70475251  1  0  -0.153261  0  3.694194  0  0  -0.171679  0  3.940044  0  0  -0.179981  0  3.962856  0  0  -0.084986  -0.166228  0  3.924681  0
C  C62  1  0.12241641  0.59940391  0.79521423  1  0  -0.153591  0  3.694285  0  0  -0.172182  0  3.940135  0  0  -0.180495  0  3.962969  0  0  -0.085179  -0.166713  0  3.924739  0
C  C63  1  0.37756636  0.09941313  0.29523275  1  0  -0.1533  0  3.694415  0  0  -0.17179  0  3.940197  0  0  -0.180091  0  3.962998  0  0  -0.085107  -0.166338  0  3.92483  0
C  C64  1  0.82094401  0.28620384  0.17155877  1  0  0.084065  0  3.784434  0  0  0.092812  0  4.022387  0  0  0.09658  0  4.044908  0  0  0.005458  0.090532  0  4.00682  0
C  C65  1  0.67903262  0.78619365  0.67154660  1  0  0.083771  0  3.784277  0  0  0.092554  0  4.022199  0  0  0.09633  0  4.044715  0  0  0.005362  0.090267  0  4.006638  0
C  C66  1  0.17903357  0.71379601  0.82843867  1  0  0.084132  0  3.784167  0  0  0.092772  0  4.022279  0  0  0.096539  0  4.044795  0  0  0.005428  0.090495  0  4.006713  0
C  C67  1  0.32094356  0.21381224  0.32845329  1  0  0.083901  0  3.784464  0  0  0.092727  0  4.022291  0  0  0.096509  0  4.044799  0  0  0.005359  0.090441  0  4.006731  0
C  C68  1  0.75493475  0.23208216  0.07002034  1  0  -0.161831  0  3.711476  0  0  -0.179049  0  3.956913  0  0  -0.186989  0  3.978751  0  0  -0.086199  -0.173896  0  3.942189  0
C  C69  1  0.74505627  0.73206931  0.57000473  1  0  -0.161729  0  3.711991  0  0  -0.178996  0  3.95747  0  0  -0.186934  0  3.979304  0  0  -0.086357  -0.173845  0  3.942744  0
C  C70  1  0.24506106  0.76792225  0.92998125  1  0  -0.161879  0  3.711371  0  0  -0.179075  0  3.956891  0  0  -0.187007  0  3.978716  0  0  -0.086239  -0.173925  0  3.942167  0
C  C71  1  0.25493113  0.26792309  0.42999271  1  0  -0.16204  0  3.711787  0  0  -0.179268  0  3.95724  0  0  -0.187215  0  3.97908  0  0  -0.086314  -0.174115  0  3.94252  0
C  C72  1  0.74091569  0.29339701  0.00826188  1  0  0.142042  0  3.67983  0  0  0.112056  0  3.924871  0  0  0.119494  0  3.943427  0  0  0.046482  0.107064  0  3.912509  0
C  C73  1  0.75906679  0.79336551  0.50824365  1  0  0.141847  0  3.680543  0  0  0.111926  0  3.925456  0  0  0.119362  0  3.944018  0  0  0.046424  0.106938  0  3.913081  0
C  C74  1  0.25908292  0.70660973  0.99173825  1  0  0.14204  0  3.680207  0  0  0.112077  0  3.925249  0  0  0.119516  0  3.943807  0  0  0.046483  0.107087  0  3.912883  0
C  C75  1  0.24091359  0.20660955  0.49174598  1  0  0.142055  0  3.680054  0  0  0.112133  0  3.925067  0  0  0.119572  0  3.943629  0  0  0.046453  0.107141  0  3.912704  0
Br  Br76  1  0.17511982  0.74673440  0.29778443  1  0  1.194611  0  3.995292  0  0  1.146607  0  4.554249  0  0  1.19082  0  4.521638  0  0  0.741248  1.114284  0  4.575286  0
Br  Br77  1  0.32491077  0.24677838  0.79781469  1  0  1.194304  0  3.995033  0  0  1.146349  0  4.55394  0  0  1.190562  0  4.521327  0  0  0.74096  1.114038  0  4.574968  0
Br  Br78  1  0.82490683  0.25324236  0.70220568  1  0  1.194508  0  3.995139  0  0  1.146559  0  4.554004  0  0  1.190771  0  4.521393  0  0  0.741067  1.114242  0  4.575039  0
Br  Br79  1  0.67512430  0.75325159  0.20220204  1  0  1.194548  0  3.994926  0  0  1.146511  0  4.553884  0  0  1.190727  0  4.521263  0  0  0.741094  1.114198  0  4.574915  0
N  N80  1  0.82885604  0.10905330  0.37240785  1  0  -0.287314  0  3.323162  0  0  -0.196391  0  3.594794  0  0  -0.216611  0  3.613503  0  0  -0.344597  -0.183003  0  3.582054  0
N  N81  1  0.67117731  0.60907415  0.87241032  1  0  -0.287006  0  3.323731  0  0  -0.196322  0  3.595429  0  0  -0.21655  0  3.614168  0  0  -0.344446  -0.182901  0  3.582665  0
N  N82  1  0.17115099  0.89094189  0.62759252  1  0  -0.287304  0  3.323428  0  0  -0.19644  0  3.595073  0  0  -0.216625  0  3.613757  0  0  -0.34453  -0.183053  0  3.582334  0
N  N83  1  0.32884654  0.39093483  0.12759542  1  0  -0.287213  0  3.323524  0  0  -0.196541  0  3.595323  0  0  -0.216734  0  3.61401  0  0  -0.344657  -0.183124  0  3.582567  0
N  N84  1  0.79186999  0.40402304  0.04211188  1  0  -0.286149  0  3.328354  0  0  -0.195698  0  3.600974  0  0  -0.215337  0  3.617651  0  0  -0.345545  -0.182646  0  3.589793  0
N  N85  1  0.70812503  0.90399464  0.54208006  1  0  -0.286165  0  3.328492  0  0  -0.195624  0  3.601092  0  0  -0.215263  0  3.617766  0  0  -0.345383  -0.182566  0  3.589896  0
N  N86  1  0.20815246  0.59598331  0.95789240  1  0  -0.286189  0  3.328314  0  0  -0.195784  0  3.601003  0  0  -0.215425  0  3.617684  0  0  -0.34551  -0.182729  0  3.58982  0
N  N87  1  0.29187358  0.09598207  0.45789372  1  0  -0.286241  0  3.328319  0  0  -0.195912  0  3.60105  0  0  -0.21554  0  3.617703  0  0  -0.345575  -0.182857  0  3.589862  0
O  O88  1  0.03576126  0.86466033  0.34665443  1  0  -0.699701  0  1.707722  0  0  -0.655978  0  2.018668  0  0  -0.676898  0  1.996323  0  0  -0.41435  -0.640466  0  2.032996  0
O  O89  1  0.46430160  0.36469441  0.84671049  1  0  -0.699576  0  1.707589  0  0  -0.655916  0  2.018609  0  0  -0.676829  0  1.996258  0  0  -0.414295  -0.640417  0  2.032955  0
O  O90  1  0.96426118  0.13531107  0.65330009  1  0  -0.699532  0  1.707637  0  0  -0.655877  0  2.018672  0  0  -0.67679  0  1.996319  0  0  -0.414248  -0.640367  0  2.033007  0
O  O91  1  0.53573909  0.63533695  0.15335133  1  0  -0.69971  0  1.707557  0  0  -0.655988  0  2.018525  0  0  -0.676907  0  1.996188  0  0  -0.41429  -0.640474  0  2.032849  0
O  O92  1  0.36846425  0.78519611  0.37292346  1  0  -0.653162  0  1.586226  0  0  -0.618384  0  1.860074  0  0  -0.638367  0  1.842449  0  0  -0.405033  -0.603646  0  1.871368  0
O  O93  1  0.13154032  0.28525004  0.87292269  1  0  -0.652974  0  1.586107  0  0  -0.618324  0  1.860132  0  0  -0.638321  0  1.842512  0  0  -0.40484  -0.603578  0  1.871422  0
O  O94  1  0.63150212  0.21480034  0.62711274  1  0  -0.653219  0  1.586164  0  0  -0.61842  0  1.859975  0  0  -0.638409  0  1.842359  0  0  -0.404961  -0.603672  0  1.871261  0
O  O95  1  0.86846250  0.71476253  0.12706989  1  0  -0.653171  0  1.586231  0  0  -0.61835  0  1.860025  0  0  -0.638338  0  1.842396  0  0  -0.404924  -0.603618  0  1.871328  0
O  O96  1  0.06845710  0.64663164  0.32812125  1  0  -0.643011  0  1.54265  0  0  -0.607929  0  1.793613  0  0  -0.627516  0  1.77813  0  0  -0.40357  -0.593281  0  1.803401  0
O  O97  1  0.43152076  0.14665026  0.82814903  1  0  -0.64292  0  1.542516  0  0  -0.607724  0  1.793334  0  0  -0.627313  0  1.777877  0  0  -0.403473  -0.593073  0  1.803112  0
O  O98  1  0.93153310  0.35335622  0.67186424  1  0  -0.643021  0  1.542494  0  0  -0.607931  0  1.793393  0  0  -0.627524  0  1.777924  0  0  -0.403534  -0.593283  0  1.803182  0
O  O99  1  0.56847084  0.85335277  0.17184720  1  0  -0.642973  0  1.542412  0  0  -0.607843  0  1.793325  0  0  -0.627433  0  1.777863  0  0  -0.403529  -0.593199  0  1.803113  0
