# generated using pymatgen
data_ZnH19C16NO4
_symmetry_space_group_name_H-M   'P 1'
_cell_length_a   7.91912532
_cell_length_b   8.93035008
_cell_length_c   17.20287045
_cell_angle_alpha   86.12184082
_cell_angle_beta   82.82248966
_cell_angle_gamma   83.55747416
_symmetry_Int_Tables_number   1
_chemical_formula_structural   ZnH19C16NO4
_chemical_formula_sum   'Zn2 H38 C32 N2 O8'
_cell_volume   1197.66552530
_cell_formula_units_Z   2
loop_
 _symmetry_equiv_pos_site_id
 _symmetry_equiv_pos_as_xyz
  1  'x, y, z'
loop_
 _atom_site_type_symbol
 _atom_site_label
 _atom_site_symmetry_multiplicity
 _atom_site_fract_x
 _atom_site_fract_y
 _atom_site_fract_z
 _atom_site_occupancy
 _atom_site_pbe_bader_charge
 _atom_site_pbe_bader_spin_density
 _atom_site_pbe_cm5_charge
 _atom_site_pbe_ddec_charge
 _atom_site_pbe_ddec_spin_density
 _atom_site_pbe_ddec_sum_bond_order
 _atom_site_pbe_magmom
Zn  Zn0  1  0.68181079  0.50409909  0.47943467  1  1.303196  0  0.669473  0.832834  0  2.367712  0
Zn  Zn1  1  0.31773357  0.51802229  0.51629450  1  1.302663  0  0.671353  0.834698  0  2.363718  0
H  H2  1  0.63226245  0.31935065  0.00427128  1  0.051853  0  0.10217  0.101068  0  1.017995  0
H  H3  1  0.76755891  0.62445823  0.69265563  1  0.042089  0  0.094351  0.136893  0  0.999342  0
H  H4  1  0.14032758  0.38723680  0.73370885  1  0.047744  0  0.087811  0.123135  0  1.036268  0
H  H5  1  0.29150323  0.28800188  0.66715158  1  0.065923  0  0.090308  0.13084  0  1.044065  0
H  H6  1  0.20620683  0.19471498  0.75505276  1  0.036328  0  0.088168  0.120291  0  1.022868  0
H  H7  1  0.54258181  0.72535407  0.28671386  1  0.036366  0  0.090703  0.131955  0  1.012778  0
H  H8  1  0.72353283  0.64942050  0.22611130  1  0.07141  0  0.093304  0.131468  0  0.982273  0
H  H9  1  0.57107370  0.78213313  0.18550147  1  0.042331  0  0.087351  0.116362  0  1.039181  0
H  H10  1  0.53714317  0.60731027  0.00782072  1  0.042261  0  0.086503  0.124313  0  1.036194  0
H  H11  1  0.50872656  0.75390463  0.07421839  1  0.033838  0  0.089497  0.1218  0  1.019314  0
H  H12  1  0.69887744  0.62985094  0.06747967  1  0.00322  0  0.089714  0.122694  0  0.993059  0
H  H13  1  0.24802875  0.41188640  0.00927370  1  0.04732  0  0.101793  0.098756  0  1.001884  0
H  H14  1  0.29972576  0.16233260  0.95002111  1  0.046874  0  0.089725  0.123628  0  1.021261  0
H  H15  1  0.13812478  0.29535928  0.91744903  1  0.034365  0  0.089535  0.121026  0  1.043076  0
H  H16  1  0.21398971  0.13799698  0.86185571  1  0.033601  0  0.090955  0.123162  0  1.024012  0
H  H17  1  0.74358178  0.13868141  0.92381071  1  0.035888  0  0.085556  0.113952  0  1.029413  0
H  H18  1  0.91129001  0.13287931  0.84594280  1  0.036568  0  0.088485  0.118883  0  0.996343  0
H  H19  1  0.95536990  0.15004112  0.94369510  1  0.027552  0  0.085883  0.115939  0  1.025771  0
H  H20  1  0.94323821  0.39887455  0.84908962  1  0.038028  0  0.092544  0.088424  0  1.02143  0
H  H21  1  0.82958266  0.41501953  0.94305171  1  0.028375  0  0.089804  0.080979  0  1.000379  0
H  H22  1  0.42975878  0.06384575  0.09043865  1  0.027416  0  0.081233  0.105245  0  1.026007  0
H  H23  1  0.38812756  0.00872264  0.19144848  1  0.006388  0  0.084519  0.11032  0  1.02306  0
H  H24  1  0.95139475  0.51132672  0.58134832  1  0.45538  0  0.32427  0.263656  0  0.93029  0
H  H25  1  0.25411849  0.95835462  0.12408963  1  0.028565  0  0.085784  0.113615  0  0.999454  0
H  H26  1  0.10481835  0.17651968  0.19743076  1  0.041891  0  0.093532  0.088719  0  0.984479  0
H  H27  1  0.15303788  0.23080362  0.09758735  1  0.004998  0  0.087884  0.079203  0  1.000156  0
H  H28  1  0.35054873  0.89681191  0.62737428  1  0.027843  0  0.090579  0.129016  0  0.996031  0
H  H29  1  0.40362149  0.08695370  0.61815374  1  0.05673  0  0.091839  0.13147  0  1.025888  0
H  H30  1  0.22994378  0.03669504  0.57339987  1  0.04665  0  0.097183  0.141216  0  0.977041  0
H  H31  1  0.67100460  0.11157911  0.34895925  1  0.04667  0  0.090965  0.128198  0  0.994135  0
H  H32  1  0.82271430  0.01643303  0.40687150  1  0.040004  0  0.095915  0.13865  0  0.982462  0
H  H33  1  0.66840682  0.91372264  0.37355483  1  0.053306  0  0.090103  0.130774  0  1.020898  0
H  H34  1  0.05018511  0.50969104  0.42194407  1  0.492747  0  0.324464  0.277529  0  0.934274  0
H  H35  1  0.26265133  0.12421018  0.29970367  1  0.033976  0  0.092126  0.129048  0  1.008525  0
H  H36  1  0.29519721  0.24630081  0.37188033  1  0.074262  0  0.08955  0.133753  0  1.03185  0
H  H37  1  0.10240982  0.26991710  0.32852819  1  0.023049  0  0.091202  0.126931  0  0.99097  0
H  H38  1  0.87852337  0.58023845  0.77586274  1  0.040219  0  0.092329  0.127406  0  1.001597  0
H  H39  1  0.90984400  0.45700915  0.69761762  1  -0.009831  0  0.088231  0.114956  0  1.035195  0
C  C40  1  0.49135579  0.79852120  0.49605123  1  1.558329  0  0.221373  0.605161  0  4.145731  0
C  C41  1  0.66781277  0.44773270  0.77166135  1  0.012243  0  -0.01044  0.097647  0  3.94426  0
C  C42  1  0.30618196  0.32264579  0.17323753  1  -0.031363  0  -0.016407  0.001232  0  3.920102  0
C  C43  1  0.67112053  0.39348285  0.84995356  1  -0.060418  0  -0.013528  0.008551  0  3.903088  0
C  C44  1  0.38706831  0.41382932  0.11272126  1  -0.010644  0  -0.016325  -0.006499  0  3.994464  0
C  C45  1  0.52083318  0.34592907  0.89318983  1  0.008044  0  -0.011421  0.011966  0  4.010759  0
C  C46  1  0.47823241  0.53257794  0.13002824  1  0.012761  0  -0.015811  0.052809  0  3.924347  0
C  C47  1  0.38841369  0.30926588  0.85302416  1  0.01839  0  -0.017476  0.052064  0  3.937275  0
C  C48  1  0.48988064  0.55846015  0.20900945  1  -0.011978  0  -0.010591  0.091566  0  3.943346  0
C  C49  1  0.39092355  0.34684063  0.77201948  1  -0.044849  0  -0.008692  0.099155  0  3.92348  0
C  C50  1  0.37393171  0.38579365  0.02981019  1  -0.104325  0  -0.081898  -0.100969  0  3.971025  0
C  C51  1  0.56004081  0.22139866  0.48764059  1  1.550355  0  0.217328  0.598837  0  4.136917  0
C  C52  1  0.51142040  0.34125411  0.97917237  1  -0.032356  0  -0.092441  -0.136555  0  4.00368  0
C  C53  1  0.24205323  0.24189144  0.31644868  1  -0.066466  0  -0.242526  -0.40831  0  3.973538  0
C  C54  1  0.81347224  0.53176837  0.73235255  1  -0.024098  0  -0.240045  -0.403482  0  3.992177  0
C  C55  1  0.25106589  0.30112370  0.72957685  1  -0.090799  0  -0.246546  -0.404477  0  3.973118  0
C  C56  1  0.58554523  0.68576505  0.22794756  1  -0.093759  0  -0.243235  -0.401719  0  3.9803  0
C  C57  1  0.55955966  0.63540223  0.06627953  1  -0.057048  0  -0.243557  -0.399821  0  3.991738  0
C  C58  1  0.25335553  0.22172353  0.89765853  1  -0.052615  0  -0.244292  -0.407445  0  4.002908  0
C  C59  1  0.83464512  0.35908524  0.88761285  1  -0.023475  0  -0.164065  -0.150546  0  3.970926  0
C  C60  1  0.86375265  0.18529429  0.90159701  1  -0.097394  0  -0.245969  -0.362789  0  3.944655  0
C  C61  1  0.21130358  0.19620369  0.15174570  1  -0.007049  0  -0.161729  -0.131517  0  3.980248  0
C  C62  1  0.47883744  0.96103862  0.51439442  1  -0.04549  0  -0.010052  -0.002183  0  3.878487  0
C  C63  1  0.32732148  0.04807642  0.13869763  1  -0.057809  0  -0.243714  -0.352095  0  3.963684  0
C  C64  1  0.35988372  0.99775082  0.58757052  1  -0.027363  0  -0.241069  -0.38864  0  3.989804  0
C  C65  1  0.68861100  0.02192846  0.39522873  1  -0.048032  0  -0.241367  -0.387457  0  3.993398  0
C  C66  1  0.56961156  0.05970036  0.46822968  1  0.030894  0  -0.01423  -0.013958  0  3.892821  0
C  C67  1  0.42655372  0.49347355  0.35249079  1  1.553972  0  0.220668  0.624735  0  4.132624  0
C  C68  1  0.51844110  0.48016530  0.64869065  1  1.550334  0  0.217249  0.616114  0  4.125899  0
C  C69  1  0.41116709  0.46506234  0.26888114  1  -0.043611  0  -0.026096  -0.163595  0  3.952482  0
C  C70  1  0.52466334  0.42705565  0.73302818  1  -0.028276  0  -0.026105  -0.166494  0  3.918321  0
C  C71  1  0.31996779  0.34614822  0.25219890  1  0.016235  0  -0.011996  0.090804  0  3.957535  0
N  N72  1  0.03742508  0.51225652  0.53027143  1  -0.398792  0  -0.218639  -0.106587  0  3.093594  0
N  N73  1  0.95956462  0.50975541  0.47209817  1  -0.396975  0  -0.213171  -0.095818  0  3.083319  0
O  O74  1  0.64103106  0.72790954  0.48226789  1  -1.165207  0  -0.3224  -0.554933  0  2.34541  0
O  O75  1  0.41542166  0.29121507  0.51221362  1  -1.179937  0  -0.31477  -0.566383  0  2.34359  0
O  O76  1  0.35041302  0.74156841  0.49918011  1  -1.161345  0  -0.319657  -0.542009  0  2.312986  0
O  O77  1  0.70187056  0.27958175  0.47518502  1  -1.152426  0  -0.323087  -0.535728  0  2.313002  0
O  O78  1  0.57467272  0.49942053  0.37206806  1  -1.159851  0  -0.307685  -0.544972  0  2.299072  0
O  O79  1  0.37054022  0.52499030  0.62769413  1  -1.164022  0  -0.323124  -0.549299  0  2.33244  0
O  O80  1  0.28733813  0.50998968  0.39972093  1  -1.182265  0  -0.320406  -0.576797  0  2.366111  0
O  O81  1  0.65801725  0.47616671  0.60230204  1  -1.18958  0  -0.318753  -0.572372  0  2.340145  0
