# generated using pymatgen
data_HgH12C20(NCl)2
_symmetry_space_group_name_H-M   'P 1'
_cell_length_a   4.88782015
_cell_length_b   12.28671692
_cell_length_c   15.28384107
_cell_angle_alpha   98.37928592
_cell_angle_beta   90.00029780
_cell_angle_gamma   90.00003365
_symmetry_Int_Tables_number   1
_chemical_formula_structural   HgH12C20(NCl)2
_chemical_formula_sum   'Hg2 H24 C40 N4 Cl4'
_cell_volume   908.07684659
_cell_formula_units_Z   2
loop_
 _symmetry_equiv_pos_site_id
 _symmetry_equiv_pos_as_xyz
  1  'x, y, z'
loop_
 _atom_site_type_symbol
 _atom_site_label
 _atom_site_symmetry_multiplicity
 _atom_site_fract_x
 _atom_site_fract_y
 _atom_site_fract_z
 _atom_site_occupancy
 _atom_site_pbe_bader_spin_density
 _atom_site_pbe_cm5_charge
 _atom_site_pbe_ddec_charge
 _atom_site_pbe_ddec_spin_density
 _atom_site_pbe_ddec_sum_bond_order
 _atom_site_pbe_magmom
Hg  Hg0  1  0.02010132  0.49999947  0.75000087  1  0  0.51768  0.553996  0  2.599232  0
Hg  Hg1  1  0.97989934  0.50000087  0.24999987  1  0  0.517681  0.553996  0  2.599207  0
H  H2  1  0.71018456  0.53761349  0.56496050  1  0  0.103271  0.080836  0  1.030748  0
H  H3  1  0.71017934  0.46238500  0.93503906  1  0  0.103276  0.080868  0  1.030699  0
H  H4  1  0.28981610  0.46238439  0.43504060  1  0  0.10331  0.080895  0  1.030662  0
H  H5  1  0.28981928  0.53761452  0.06496027  1  0  0.103283  0.080848  0  1.030727  0
H  H6  1  0.29939389  0.84354969  0.76515018  1  0  0.107463  0.118466  0  1.006742  0
H  H7  1  0.29939314  0.15644691  0.73484783  1  0  0.107477  0.118468  0  1.006811  0
H  H8  1  0.70060882  0.15645064  0.23484794  1  0  0.107451  0.118407  0  1.006754  0
H  H9  1  0.70060752  0.84355178  0.26515140  1  0  0.10748  0.118476  0  1.006814  0
H  H10  1  0.34608729  0.65044340  0.50530438  1  0  0.099761  0.118095  0  1.028499  0
H  H11  1  0.34608492  0.34955406  0.99469380  1  0  0.099794  0.118161  0  1.028453  0
H  H12  1  0.65391542  0.34955448  0.49469541  1  0  0.099782  0.118133  0  1.028454  0
H  H13  1  0.65391574  0.65044545  0.00530488  1  0  0.099775  0.118129  0  1.028477  0
H  H14  1  0.66250289  0.72032411  0.81405031  1  0  0.103932  0.077667  0  1.031405  0
H  H15  1  0.66250153  0.27967517  0.68594926  1  0  0.103917  0.077619  0  1.031427  0
H  H16  1  0.33749777  0.27967623  0.18594911  1  0  0.10393  0.077639  0  1.031423  0
H  H17  1  0.33749914  0.72032517  0.31405017  1  0  0.103933  0.077671  0  1.0314  0
H  H18  1  0.66182255  0.82131606  0.41819992  1  0  0.096436  0.107328  0  1.039851  0
H  H19  1  0.66181729  0.17868634  0.08180263  1  0  0.096435  0.107303  0  1.039847  0
H  H20  1  0.33817812  0.17868428  0.58180147  1  0  0.096428  0.107302  0  1.039903  0
H  H21  1  0.33817928  0.82131647  0.91819839  1  0  0.096447  0.107309  0  1.039863  0
H  H22  1  0.70215063  0.07135218  0.64669557  1  0  0.103984  0.106714  0  1.005814  0
H  H23  1  0.70215090  0.92864960  0.85330566  1  0  0.104003  0.106742  0  1.005797  0
H  H24  1  0.29784799  0.92864817  0.35330581  1  0  0.103998  0.106734  0  1.005798  0
H  H25  1  0.29784568  0.07135239  0.14669527  1  0  0.103973  0.106698  0  1.005794  0
C  C26  1  0.08707703  0.82254593  0.60027528  1  0  -0.037573  -0.092135  0  4.0611  0
C  C27  1  0.08707695  0.17745139  0.89972311  1  0  -0.037544  -0.092045  0  4.061038  0
C  C28  1  0.91292568  0.17745195  0.39972517  1  0  -0.03757  -0.092154  0  4.061115  0
C  C29  1  0.91292372  0.82254894  0.10027566  1  0  -0.037544  -0.092087  0  4.061036  0
C  C30  1  0.61120832  0.60563185  0.60703867  1  0  0.039948  0.091246  0  3.976305  0
C  C31  1  0.61120436  0.39436658  0.89296072  1  0  0.039945  0.091217  0  3.976413  0
C  C32  1  0.38879439  0.39436685  0.39296187  1  0  0.039892  0.091162  0  3.976376  0
C  C33  1  0.38879631  0.60563293  0.10703796  1  0  0.039935  0.091248  0  3.97636  0
C  C34  1  0.29219116  0.75660916  0.63085044  1  0  0.016795  0.176207  0  4.09033  0
C  C35  1  0.29219068  0.24338826  0.86914765  1  0  0.016834  0.176244  0  4.090325  0
C  C36  1  0.70780951  0.24339035  0.36914889  1  0  0.016814  0.176209  0  4.09025  0
C  C37  1  0.70780794  0.75661207  0.13085112  1  0  0.016799  0.17621  0  4.090304  0
C  C38  1  0.38602308  0.77664832  0.71893465  1  0  -0.083779  -0.17833  0  3.926208  0
C  C39  1  0.38602114  0.22334916  0.78106426  1  0  -0.083769  -0.17838  0  3.926298  0
C  C40  1  0.61397963  0.22335119  0.28106468  1  0  -0.083764  -0.178254  0  3.926045  0
C  C41  1  0.61397953  0.77665036  0.21893573  1  0  -0.083785  -0.178367  0  3.926277  0
C  C42  1  0.91017382  0.87825025  0.57204490  1  0  -0.029405  -0.076221  0  4.075772  0
C  C43  1  0.91017207  0.12175082  0.92795725  1  0  -0.029435  -0.076266  0  4.075831  0
C  C44  1  0.08982071  0.12175009  0.42795518  1  0  -0.029413  -0.076186  0  4.075802  0
C  C45  1  0.08982450  0.87825035  0.07204292  1  0  -0.029438  -0.076231  0  4.07581  0
C  C46  1  0.70511897  0.93963203  0.53635154  1  0  0.002632  0.132514  0  4.104129  0
C  C47  1  0.70511976  0.06036975  0.96365035  1  0  0.002633  0.132503  0  4.104012  0
C  C48  1  0.29487760  0.06036668  0.46365032  1  0  0.002646  0.132531  0  4.104025  0
C  C49  1  0.29487476  0.93963388  0.03634945  1  0  0.002612  0.132441  0  4.104107  0
C  C50  1  0.41093886  0.66861572  0.57403085  1  0  -0.077177  -0.155749  0  3.88208  0
C  C51  1  0.41093534  0.33138259  0.92596753  1  0  -0.077245  -0.155848  0  3.882225  0
C  C52  1  0.58906385  0.33138297  0.42596904  1  0  -0.077216  -0.155781  0  3.882188  0
C  C53  1  0.58906327  0.66861774  0.07403123  1  0  -0.077197  -0.155793  0  3.88224  0
C  C54  1  0.58614928  0.70892925  0.74618859  1  0  0.032929  0.073279  0  4.014986  0
C  C55  1  0.58614699  0.29106916  0.75381010  1  0  0.032982  0.073438  0  4.014771  0
C  C56  1  0.41385139  0.29107109  0.25381084  1  0  0.032938  0.073327  0  4.014924  0
C  C57  1  0.41385368  0.70893035  0.24618857  1  0  0.032935  0.073308  0  4.014914  0
C  C58  1  0.58997900  0.89995974  0.45299679  1  0  -0.078932  -0.114284  0  3.927703  0
C  C59  1  0.58997716  0.10004263  0.04700433  1  0  -0.078942  -0.114305  0  3.927623  0
C  C60  1  0.41001757  0.10004061  0.54700526  1  0  -0.078922  -0.114279  0  3.927732  0
C  C61  1  0.41001737  0.89996101  0.95299612  1  0  -0.078918  -0.114205  0  3.927701  0
C  C62  1  0.61167417  0.04058200  0.58266507  1  0  -0.080441  -0.118699  0  3.948224  0
C  C63  1  0.61167348  0.95941889  0.91733591  1  0  -0.080474  -0.118785  0  3.948201  0
C  C64  1  0.38832445  0.95941752  0.41733688  1  0  -0.080464  -0.118745  0  3.948219  0
C  C65  1  0.38832105  0.04058391  0.08266380  1  0  -0.080425  -0.118632  0  3.948105  0
N  N66  1  0.69636559  0.62469839  0.69153914  1  0  -0.31884  -0.227636  0  3.526321  0
N  N67  1  0.69636432  0.37530008  0.80846040  1  0  -0.318883  -0.227708  0  3.5262  0
N  N68  1  0.30363507  0.37530031  0.30846141  1  0  -0.318831  -0.227658  0  3.526375  0
N  N69  1  0.30363635  0.62470025  0.19153903  1  0  -0.318842  -0.227664  0  3.526271  0
Cl  Cl70  1  0.11833613  0.38698668  0.61120886  1  0  -0.259858  -0.396294  0  1.253385  0
Cl  Cl71  1  0.11833651  0.61301314  0.88879249  1  0  -0.259845  -0.396282  0  1.253347  0
Cl  Cl72  1  0.88166044  0.61301366  0.38879122  1  0  -0.259844  -0.396276  0  1.253349  0
Cl  Cl73  1  0.88166211  0.38698803  0.11120769  1  0  -0.259857  -0.396303  0  1.253364  0
