# generated using pymatgen
data_ErH4C9N2ClO8
_symmetry_space_group_name_H-M   'P 1'
_cell_length_a   7.00112186
_cell_length_b   8.07228594
_cell_length_c   11.21107915
_cell_angle_alpha   101.29317133
_cell_angle_beta   109.20971348
_cell_angle_gamma   97.20048029
_symmetry_Int_Tables_number   1
_chemical_formula_structural   ErH4C9N2ClO8
_chemical_formula_sum   'Er2 H8 C18 N4 Cl2 O16'
_cell_volume   574.27932058
_cell_formula_units_Z   2
loop_
 _symmetry_equiv_pos_site_id
 _symmetry_equiv_pos_as_xyz
  1  'x, y, z'
loop_
 _atom_site_type_symbol
 _atom_site_label
 _atom_site_symmetry_multiplicity
 _atom_site_fract_x
 _atom_site_fract_y
 _atom_site_fract_z
 _atom_site_occupancy
 _atom_site_hle17_bader_spin_density
 _atom_site_hle17_ddec_charge
 _atom_site_hle17_ddec_spin_density
 _atom_site_hle17_ddec_sum_bond_order
 _atom_site_hle17_magmom
 _atom_site_hse06_10hf_bader_spin_density
 _atom_site_hse06_10hf_ddec_charge
 _atom_site_hse06_10hf_ddec_spin_density
 _atom_site_hse06_10hf_ddec_sum_bond_order
 _atom_site_hse06_10hf_magmom
 _atom_site_hse06_bader_spin_density
 _atom_site_hse06_ddec_charge
 _atom_site_hse06_ddec_spin_density
 _atom_site_hse06_ddec_sum_bond_order
 _atom_site_hse06_magmom
 _atom_site_pbe_bader_spin_density
 _atom_site_pbe_cm5_charge
 _atom_site_pbe_ddec_charge
 _atom_site_pbe_ddec_spin_density
 _atom_site_pbe_ddec_sum_bond_order
 _atom_site_pbe_magmom
Er  Er0  1  0.14633566  0.32823376  0.05635585  1  0  2.303205  0  1.62902  0  0  2.249403  0  1.947295  0  0  2.29651  0  1.906255  0  0  1.540488  2.136855  0  2.118449  0
Er  Er1  1  0.85366989  0.67176921  0.94364524  1  0  2.303215  0  1.628945  0  0  2.249393  0  1.947219  0  0  2.296498  0  1.906174  0  0  1.540437  2.136839  0  2.118386  0
H  H2  1  0.46192781  0.83873721  0.74861171  1  0  0.311205  0  0.901269  0  0  0.293548  0  0.961082  0  0  0.300977  0  0.955192  0  0  0.320927  0.288117  0  0.965448  0
H  H3  1  0.53806262  0.16125903  0.25138461  1  0  0.311219  0  0.901148  0  0  0.29352  0  0.961018  0  0  0.300955  0  0.955127  0  0  0.320904  0.288089  0  0.965381  0
H  H4  1  0.33495010  0.64503970  0.47645200  1  0  0.139936  0  0.916711  0  0  0.153329  0  0.96482  0  0  0.157173  0  0.961777  0  0  0.121945  0.150256  0  0.967613  0
H  H5  1  0.66503725  0.35495521  0.52354977  1  0  0.139919  0  0.916726  0  0  0.153328  0  0.964825  0  0  0.157172  0  0.961784  0  0  0.121964  0.150256  0  0.967615  0
H  H6  1  0.43390991  0.13244879  0.86320038  1  0  0.091621  0  0.925355  0  0  0.102135  0  0.983395  0  0  0.104554  0  0.980367  0  0  0.133942  0.10015  0  0.98597  0
H  H7  1  0.56610264  0.86755174  0.13680082  1  0  0.091686  0  0.925299  0  0  0.102163  0  0.983387  0  0  0.104579  0  0.980362  0  0  0.133965  0.100184  0  0.98595  0
H  H8  1  0.16297032  0.21461035  0.41220054  1  0  0.132087  0  0.910571  0  0  0.144969  0  0.961348  0  0  0.148622  0  0.959379  0  0  0.119047  0.142137  0  0.963319  0
H  H9  1  0.83703485  0.78539132  0.58779761  1  0  0.132064  0  0.910594  0  0  0.144991  0  0.96131  0  0  0.148643  0  0.95934  0  0  0.119059  0.142156  0  0.963283  0
C  C10  1  0.09003129  0.00146429  0.19162859  1  0  0.763216  0  3.790587  0  0  0.715793  0  4.091162  0  0  0.752819  0  4.075664  0  0  0.247411  0.689866  0  4.095666  0
C  C11  1  0.90997665  0.99854258  0.80837440  1  0  0.763067  0  3.790995  0  0  0.715879  0  4.091135  0  0  0.752924  0  4.075608  0  0  0.247444  0.689923  0  4.095695  0
C  C12  1  0.16803144  0.95496103  0.31950179  1  0  -0.07388  0  3.681296  0  0  -0.065959  0  3.925411  0  0  -0.070811  0  3.947604  0  0  -0.01078  -0.06354  0  3.912855  0
C  C13  1  0.83196841  0.04504311  0.68050104  1  0  -0.073882  0  3.681309  0  0  -0.066054  0  3.925396  0  0  -0.070919  0  3.947601  0  0  -0.010798  -0.063641  0  3.912845  0
C  C14  1  0.21477587  0.79127926  0.33708149  1  0  -0.081824  0  3.696237  0  0  -0.070484  0  3.93764  0  0  -0.080258  0  3.962642  0  0  -0.015257  -0.065078  0  3.923182  0
C  C15  1  0.78522770  0.20872110  0.66292152  1  0  -0.08174  0  3.696402  0  0  -0.070417  0  3.937768  0  0  -0.080188  0  3.962774  0  0  -0.01527  -0.064976  0  3.923274  0
C  C16  1  0.20651423  0.64143501  0.23439526  1  0  0.692824  0  3.846628  0  0  0.646093  0  4.152156  0  0  0.681429  0  4.141801  0  0  0.207307  0.622306  0  4.148909  0
C  C17  1  0.79349202  0.35856412  0.76560631  1  0  0.692457  0  3.846663  0  0  0.645817  0  4.152068  0  0  0.681158  0  4.141714  0  0  0.207147  0.62202  0  4.14882  0
C  C18  1  0.29118650  0.76682758  0.46370009  1  0  -0.102805  0  3.662795  0  0  -0.133479  0  3.911838  0  0  -0.13154  0  3.927859  0  0  -0.067168  -0.134578  0  3.901638  0
C  C19  1  0.70880922  0.23317135  0.53630209  1  0  -0.102727  0  3.662772  0  0  -0.133442  0  3.911822  0  0  -0.131504  0  3.927841  0  0  -0.067165  -0.134561  0  3.901619  0
C  C20  1  0.31327129  0.90149031  0.56800842  1  0  0.150962  0  3.815289  0  0  0.141241  0  4.064335  0  0  0.143742  0  4.087231  0  0  0.098005  0.139561  0  4.048649  0
C  C21  1  0.68672260  0.09850730  0.43199233  1  0  0.150828  0  3.815481  0  0  0.141127  0  4.06446  0  0  0.143633  0  4.087364  0  0  0.097996  0.13946  0  4.048763  0
C  C22  1  0.38168463  0.08516995  0.75784709  1  0  0.270812  0  3.648966  0  0  0.212848  0  3.941191  0  0  0.227804  0  3.951173  0  0  0.158398  0.20266  0  3.935366  0
C  C23  1  0.61831009  0.91482509  0.24214989  1  0  0.270707  0  3.648886  0  0  0.212731  0  3.941141  0  0  0.227695  0  3.951125  0  0  0.158327  0.202542  0  3.93532  0
C  C24  1  0.26421909  0.06338084  0.55215452  1  0  0.149467  0  3.834989  0  0  0.153564  0  4.086986  0  0  0.157699  0  4.109298  0  0  0.097489  0.150784  0  4.07179  0
C  C25  1  0.73577741  0.93662195  0.44784658  1  0  0.149515  0  3.834969  0  0  0.153615  0  4.086927  0  0  0.157753  0  4.109232  0  0  0.097508  0.150833  0  4.071727  0
C  C26  1  0.19472950  0.08987786  0.42678549  1  0  -0.117152  0  3.662587  0  0  -0.150294  0  3.916646  0  0  -0.15208  0  3.934373  0  0  -0.073367  -0.149343  0  3.905569  0
C  C27  1  0.80526399  0.91012487  0.57321591  1  0  -0.117017  0  3.662446  0  0  -0.150189  0  3.916499  0  0  -0.151974  0  3.934229  0  0  -0.073328  -0.149239  0  3.905421  0
N  N28  1  0.38709152  0.92034744  0.70095450  1  0  -0.352385  0  3.404375  0  0  -0.294067  0  3.644201  0  0  -0.311971  0  3.658351  0  0  -0.388166  -0.282102  0  3.635556  0
N  N29  1  0.61290283  0.07964504  0.29904739  1  0  -0.352258  0  3.404292  0  0  -0.293878  0  3.64408  0  0  -0.311799  0  3.658244  0  0  -0.388057  -0.281917  0  3.635431  0
N  N30  1  0.30707348  0.17499359  0.67254238  1  0  -0.385044  0  2.940555  0  0  -0.365914  0  3.223733  0  0  -0.379939  0  3.238031  0  0  -0.338987  -0.35661  0  3.214458  0
N  N31  1  0.69292677  0.82500542  0.32745979  1  0  -0.385059  0  2.940478  0  0  -0.365944  0  3.223651  0  0  -0.379968  0  3.237945  0  0  -0.338997  -0.356639  0  3.214375  0
Cl  Cl32  1  0.71131624  0.40250651  0.15083776  1  0  1.484876  0  6.049885  0  0  1.412409  0  6.63165  0  0  1.466719  0  6.605487  0  0  0.790903  1.372851  0  6.642795  0
Cl  Cl33  1  0.28868622  0.59748996  0.84915734  1  0  1.484741  0  6.050274  0  0  1.412231  0  6.632078  0  0  1.466548  0  6.605917  0  0  0.790792  1.372681  0  6.64322  0
O  O34  1  0.18269893  0.14336208  0.18447936  1  0  -0.739052  0  2.058872  0  0  -0.703757  0  2.317139  0  0  -0.729386  0  2.304124  0  0  -0.404537  -0.67428  0  2.328025  0
O  O35  1  0.81730543  0.85664859  0.81552705  1  0  -0.739008  0  2.059002  0  0  -0.703789  0  2.317126  0  0  -0.729422  0  2.304103  0  0  -0.404578  -0.674303  0  2.328027  0
O  O36  1  0.93037911  0.90703738  0.09869809  1  0  -0.76204  0  2.068023  0  0  -0.730388  0  2.334979  0  0  -0.755089  0  2.319489  0  0  -0.435718  -0.699494  0  2.346925  0
O  O37  1  0.06963757  0.09296838  0.90130376  1  0  -0.762013  0  2.068193  0  0  -0.730461  0  2.335053  0  0  -0.755166  0  2.319552  0  0  -0.435732  -0.699537  0  2.346979  0
O  O38  1  0.12444330  0.63001199  0.10874500  1  0  -0.914901  0  2.218206  0  0  -0.873668  0  2.484454  0  0  -0.901434  0  2.474693  0  0  -0.48572  -0.833998  0  2.489332  0
O  O39  1  0.87555853  0.36998706  0.89125927  1  0  -0.914734  0  2.218174  0  0  -0.873522  0  2.484373  0  0  -0.901288  0  2.47461  0  0  -0.485628  -0.833855  0  2.489256  0
O  O40  1  0.27784147  0.51215814  0.26518386  1  0  -0.676159  0  1.971525  0  0  -0.648186  0  2.212841  0  0  -0.670156  0  2.201952  0  0  -0.380642  -0.623478  0  2.22089  0
O  O41  1  0.72215959  0.48785244  0.73481477  1  0  -0.676066  0  1.971276  0  0  -0.648109  0  2.212526  0  0  -0.670086  0  2.201631  0  0  -0.380598  -0.623409  0  2.220581  0
O  O42  1  0.70597409  0.54626075  0.08945515  1  0  -0.607838  0  2.006133  0  0  -0.592165  0  2.293727  0  0  -0.609209  0  2.279545  0  0  -0.312497  -0.569866  0  2.301519  0
O  O43  1  0.29402127  0.45374331  0.91054859  1  0  -0.60771  0  2.006037  0  0  -0.592089  0  2.293754  0  0  -0.609137  0  2.27958  0  0  -0.312477  -0.569794  0  2.301544  0
O  O44  1  0.83554793  0.28726350  0.10740070  1  0  -0.607066  0  1.939518  0  0  -0.58563  0  2.207368  0  0  -0.601998  0  2.19277  0  0  -0.337048  -0.564462  0  2.218639  0
O  O45  1  0.16445391  0.71273808  0.89258877  1  0  -0.607066  0  1.939634  0  0  -0.585581  0  2.207463  0  0  -0.601953  0  2.19287  0  0  -0.336985  -0.5644  0  2.218695  0
O  O46  1  0.78712162  0.45935992  0.28940814  1  0  -0.424928  0  1.857189  0  0  -0.393851  0  2.081207  0  0  -0.410656  0  2.071367  0  0  -0.232152  -0.383175  0  2.089003  0
O  O47  1  0.21287912  0.54062111  0.71058800  1  0  -0.424943  0  1.857287  0  0  -0.393876  0  2.081352  0  0  -0.410704  0  2.071531  0  0  -0.232211  -0.383193  0  2.089121  0
O  O48  1  0.49802075  0.29680873  0.10210108  1  0  -0.645211  0  1.906454  0  0  -0.61751  0  2.173498  0  0  -0.633539  0  2.15571  0  0  -0.353828  -0.595568  0  2.187309  0
O  O49  1  0.50197869  0.70318125  0.89788984  1  0  -0.645123  0  1.906562  0  0  -0.617427  0  2.173654  0  0  -0.633433  0  2.155841  0  0  -0.353713  -0.59549  0  2.187463  0
