# generated using pymatgen
data_Hg2H15C6N3Cl4
_symmetry_space_group_name_H-M   'P 1'
_cell_length_a   9.26337501
_cell_length_b   12.17686149
_cell_length_c   12.42286234
_cell_angle_alpha   90.00000439
_cell_angle_beta   90.00002245
_cell_angle_gamma   94.04435545
_symmetry_Int_Tables_number   1
_chemical_formula_structural   Hg2H15C6N3Cl4
_chemical_formula_sum   'Hg8 H60 C24 N12 Cl16'
_cell_volume   1397.79484271
_cell_formula_units_Z   4
loop_
 _symmetry_equiv_pos_site_id
 _symmetry_equiv_pos_as_xyz
  1  'x, y, z'
loop_
 _atom_site_type_symbol
 _atom_site_label
 _atom_site_symmetry_multiplicity
 _atom_site_fract_x
 _atom_site_fract_y
 _atom_site_fract_z
 _atom_site_occupancy
 _atom_site_pbe_bader_spin_density
 _atom_site_pbe_cm5_charge
 _atom_site_pbe_ddec_charge
 _atom_site_pbe_ddec_spin_density
 _atom_site_pbe_ddec_sum_bond_order
 _atom_site_pbe_magmom
Hg  Hg0  1  0.62739495  0.38533807  0.05480793  1  0  0.528384  0.56495  0  2.510291  0
Hg  Hg1  1  0.37260468  0.11466123  0.55480778  1  0  0.528394  0.564983  0  2.510258  0
Hg  Hg2  1  0.37260647  0.61466018  0.94519207  1  0  0.528393  0.564977  0  2.510233  0
Hg  Hg3  1  0.62739373  0.88533948  0.44519141  1  0  0.528399  0.565  0  2.510224  0
Hg  Hg4  1  0.76587657  0.48754932  0.74278708  1  0  0.481666  0.573605  0  2.577706  0
Hg  Hg5  1  0.23412323  0.01245082  0.24278708  1  0  0.481664  0.573614  0  2.577711  0
Hg  Hg6  1  0.23412061  0.51244974  0.25721292  1  0  0.481657  0.573587  0  2.577708  0
Hg  Hg7  1  0.76587734  0.98754990  0.75721292  1  0  0.481664  0.5736  0  2.577723  0
H  H8  1  0.08838143  0.30988461  0.28156154  1  0  0.267307  0.233407  0  1.001455  0
H  H9  1  0.91161955  0.19011635  0.78156157  1  0  0.26732  0.233432  0  1.001466  0
H  H10  1  0.91161914  0.69011610  0.71843926  1  0  0.267306  0.233449  0  1.001435  0
H  H11  1  0.08838217  0.80988519  0.21843923  1  0  0.267336  0.233508  0  1.001396  0
H  H12  1  0.42340193  0.21072380  0.03529709  1  0  0.27011  0.275221  0  0.986727  0
H  H13  1  0.57660078  0.28927384  0.53529621  1  0  0.270173  0.275291  0  0.986629  0
H  H14  1  0.57660173  0.78927526  0.96470452  1  0  0.270163  0.275273  0  0.986668  0
H  H15  1  0.42339864  0.71072605  0.46470378  1  0  0.270176  0.275283  0  0.986645  0
H  H16  1  0.53550052  0.21238624  0.93074855  1  0  0.279011  0.276223  0  0.970436  0
H  H17  1  0.46450147  0.28761310  0.43074944  1  0  0.279002  0.276207  0  0.970469  0
H  H18  1  0.46450098  0.78761283  0.06925064  1  0  0.279004  0.276208  0  0.970472  0
H  H19  1  0.53549902  0.71238679  0.56925056  1  0  0.279002  0.2762  0  0.970474  0
H  H20  1  0.89269585  0.20682152  0.04055923  1  0  0.097472  0.095736  0  1.00048  0
H  H21  1  0.10730594  0.29317777  0.54055822  1  0  0.097481  0.095744  0  1.0005  0
H  H22  1  0.10730673  0.79317755  0.95944157  1  0  0.09748  0.095746  0  1.000455  0
H  H23  1  0.89269247  0.70682294  0.45944178  1  0  0.097473  0.095721  0  1.000495  0
H  H24  1  0.95351627  0.16340411  0.16824398  1  0  0.089709  0.06906  0  1.016054  0
H  H25  1  0.04648558  0.33659519  0.66824537  1  0  0.089703  0.069068  0  1.016069  0
H  H26  1  0.04648623  0.83659413  0.83175521  1  0  0.089701  0.069053  0  1.016076  0
H  H27  1  0.95351384  0.66340470  0.33175543  1  0  0.089699  0.06906  0  1.016075  0
H  H28  1  0.12464722  0.30526287  0.09294962  1  0  0.090402  0.093519  0  1.021197  0
H  H29  1  0.87535366  0.19473808  0.59294883  1  0  0.090399  0.093486  0  1.021239  0
H  H30  1  0.87535450  0.69473867  0.90705118  1  0  0.090397  0.093483  0  1.02125  0
H  H31  1  0.12464576  0.80526181  0.40705197  1  0  0.090408  0.093493  0  1.021217  0
H  H32  1  0.98732068  0.39864534  0.07623702  1  0  0.093346  0.084245  0  0.999717  0
H  H33  1  0.01267889  0.10135314  0.57623758  1  0  0.093341  0.084244  0  0.999755  0
H  H34  1  0.01267758  0.60135373  0.92376298  1  0  0.093359  0.084246  0  0.999769  0
H  H35  1  0.98732053  0.89864675  0.42376322  1  0  0.09336  0.084247  0  0.999716  0
H  H36  1  0.87024273  0.46917785  0.23670324  1  0  0.095405  0.077296  0  1.008842  0
H  H37  1  0.12975607  0.03082311  0.73670302  1  0  0.095394  0.077273  0  1.008874  0
H  H38  1  0.12975568  0.53082286  0.76329756  1  0  0.095386  0.077273  0  1.008885  0
H  H39  1  0.87024450  0.96917760  0.26329697  1  0  0.095388  0.07731  0  1.008862  0
H  H40  1  0.92668688  0.42912510  0.36745411  1  0  0.095775  0.09411  0  1.007423  0
H  H41  1  0.07331184  0.07087423  0.86745308  1  0  0.095773  0.094094  0  1.007435  0
H  H42  1  0.07331138  0.57087397  0.63254749  1  0  0.095774  0.094104  0  1.007428  0
H  H43  1  0.92668973  0.92912566  0.13254692  1  0  0.09579  0.094126  0  1.007451  0
H  H44  1  0.83727885  0.23671727  0.33455910  1  0  0.089063  0.084006  0  1.001626  0
H  H45  1  0.16272001  0.26328370  0.83455810  1  0  0.089055  0.083971  0  1.001662  0
H  H46  1  0.16272057  0.76328262  0.66544251  1  0  0.089069  0.084009  0  1.00164  0
H  H47  1  0.83727956  0.73671783  0.16544189  1  0  0.08907  0.084006  0  1.001615  0
H  H48  1  0.69568239  0.32670710  0.31648837  1  0  0.091253  0.092362  0  1.021964  0
H  H49  1  0.30431422  0.17329305  0.81648982  1  0  0.091257  0.092327  0  1.02198  0
H  H50  1  0.30431580  0.67329114  0.68351082  1  0  0.091246  0.092327  0  1.021987  0
H  H51  1  0.69568427  0.82670849  0.18351017  1  0  0.09124  0.092345  0  1.02195  0
H  H52  1  0.57615435  0.18343969  0.22641892  1  0  0.096385  0.089249  0  0.995516  0
H  H53  1  0.42384437  0.31656045  0.72642042  1  0  0.096365  0.089176  0  0.995628  0
H  H54  1  0.42384507  0.81656020  0.77358027  1  0  0.096394  0.089222  0  0.995578  0
H  H55  1  0.57615620  0.68344026  0.27357957  1  0  0.096378  0.089195  0  0.995616  0
H  H56  1  0.71461202  0.09194438  0.21090722  1  0  0.095622  0.08476  0  1.006508  0
H  H57  1  0.28538870  0.40805411  0.71090627  1  0  0.09563  0.084771  0  1.006481  0
H  H58  1  0.28538940  0.90805386  0.78909439  1  0  0.095637  0.084795  0  1.006458  0
H  H59  1  0.71461072  0.59194578  0.28909373  1  0  0.095632  0.084769  0  1.006472  0
H  H60  1  0.69758993  0.11082591  0.00879920  1  0  0.093671  0.07849  0  1.024378  0
H  H61  1  0.30241407  0.38917420  0.50879987  1  0  0.093667  0.078478  0  1.024326  0
H  H62  1  0.30241380  0.88917398  0.99120079  1  0  0.093664  0.078452  0  1.024336  0
H  H63  1  0.69758535  0.61082568  0.49120013  1  0  0.093658  0.078472  0  1.02436  0
H  H64  1  0.53690012  0.05665524  0.07159308  1  0  0.095703  0.08481  0  1.016178  0
H  H65  1  0.46310600  0.44334406  0.57159541  1  0  0.095725  0.084802  0  1.016214  0
H  H66  1  0.46310470  0.94334465  0.92840611  1  0  0.095702  0.084765  0  1.016184  0
H  H67  1  0.53689342  0.55665583  0.42840459  1  0  0.09572  0.084798  0  1.016219  0
C  C68  1  0.91068941  0.23309376  0.12420260  1  0  -0.080433  -0.094007  0  3.898398  0
C  C69  1  0.08931034  0.26690637  0.62420238  1  0  -0.080449  -0.094064  0  3.898393  0
C  C70  1  0.08931101  0.76690531  0.87579820  1  0  -0.080426  -0.094011  0  3.898303  0
C  C71  1  0.91068908  0.73309352  0.37579761  1  0  -0.080422  -0.093995  0  3.898338  0
C  C72  1  0.02263068  0.33079395  0.12591544  1  0  -0.084367  -0.065074  0  3.893496  0
C  C73  1  0.97737015  0.16920617  0.62591467  1  0  -0.084358  -0.065008  0  3.893533  0
C  C74  1  0.97736989  0.66920676  0.87408616  1  0  -0.084399  -0.065077  0  3.893655  0
C  C75  1  0.02263035  0.83079372  0.37408612  1  0  -0.0844  -0.065056  0  3.893501  0
C  C76  1  0.90902607  0.40084937  0.28423416  1  0  -0.080784  -0.063106  0  3.896494  0
C  C77  1  0.09097268  0.09915077  0.78423393  1  0  -0.080762  -0.063023  0  3.896458  0
C  C78  1  0.09097226  0.59915052  0.71576664  1  0  -0.080774  -0.063068  0  3.896527  0
C  C79  1  0.90902789  0.90084994  0.21576606  1  0  -0.080792  -0.063158  0  3.896643  0
C  C80  1  0.79835231  0.30261877  0.28306774  1  0  -0.082957  -0.097263  0  3.897013  0
C  C81  1  0.20164428  0.19738136  0.78306836  1  0  -0.082964  -0.097196  0  3.89691  0
C  C82  1  0.20164703  0.69738029  0.71693145  1  0  -0.08296  -0.097239  0  3.896942  0
C  C83  1  0.79835313  0.80262017  0.21693163  1  0  -0.082968  -0.097228  0  3.896976  0
C  C84  1  0.66682593  0.16347611  0.17446231  1  0  -0.080814  -0.098878  0  3.901586  0
C  C85  1  0.33317693  0.33652238  0.67446459  1  0  -0.0808  -0.098817  0  3.901635  0
C  C86  1  0.33317765  0.83652213  0.82553527  1  0  -0.080837  -0.098934  0  3.901604  0
C  C87  1  0.66682249  0.66347751  0.32553540  1  0  -0.08081  -0.098814  0  3.901613  0
C  C88  1  0.61011188  0.13109968  0.06309586  1  0  -0.083915  -0.02258  0  3.886613  0
C  C89  1  0.38989192  0.36889797  0.56309816  1  0  -0.083907  -0.022541  0  3.886522  0
C  C90  1  0.38989163  0.86889774  0.93690253  1  0  -0.083876  -0.022412  0  3.886384  0
C  C91  1  0.61010749  0.63110192  0.43690103  1  0  -0.083895  -0.022544  0  3.886518  0
N  N92  1  0.04758281  0.37210166  0.23666529  1  0  -0.460381  -0.256247  0  3.451097  0
N  N93  1  0.95241592  0.12789847  0.73666531  1  0  -0.460381  -0.256335  0  3.451159  0
N  N94  1  0.95241560  0.62789905  0.76333471  1  0  -0.460345  -0.256275  0  3.451099  0
N  N95  1  0.04758458  0.87210141  0.26333549  1  0  -0.460374  -0.256348  0  3.451174  0
N  N96  1  0.77206894  0.26005798  0.17293692  1  0  -0.328042  -0.088085  0  3.45528  0
N  N97  1  0.22793183  0.23994133  0.67293674  1  0  -0.328031  -0.088047  0  3.455128  0
N  N98  1  0.22793256  0.73994109  0.82706388  1  0  -0.328049  -0.08804  0  3.45513  0
N  N99  1  0.77206766  0.76005939  0.32706325  1  0  -0.328029  -0.088053  0  3.455143  0
N  N100  1  0.53107366  0.21931949  0.01314601  1  0  -0.594581  -0.453528  0  3.398389  0
N  N101  1  0.46892911  0.28067898  0.51314430  1  0  -0.594689  -0.453645  0  3.39836  0
N  N102  1  0.46892999  0.78067958  0.98685560  1  0  -0.594673  -0.453637  0  3.398362  0
N  N103  1  0.53107031  0.71932090  0.48685570  1  0  -0.594683  -0.453605  0  3.398334  0
Cl  Cl104  1  0.68947301  0.57709968  0.04951609  1  0  -0.242435  -0.386804  0  1.413864  0
Cl  Cl105  1  0.31052791  0.92289829  0.54951273  1  0  -0.242424  -0.386793  0  1.413805  0
Cl  Cl106  1  0.31053049  0.42289774  0.95048471  1  0  -0.242431  -0.386803  0  1.413845  0
Cl  Cl107  1  0.68946518  0.07710324  0.45048083  1  0  -0.242437  -0.386821  0  1.413844  0
Cl  Cl108  1  0.82753218  0.33855884  0.87126713  1  0  -0.270057  -0.431728  0  1.321536  0
Cl  Cl109  1  0.17246762  0.16144049  0.37126793  1  0  -0.270058  -0.431738  0  1.321543  0
Cl  Cl110  1  0.17246955  0.66144270  0.12873367  1  0  -0.270055  -0.431746  0  1.321537  0
Cl  Cl111  1  0.82752956  0.83855858  0.62873287  1  0  -0.270056  -0.431747  0  1.321556  0
Cl  Cl112  1  0.78310586  0.40556278  0.55642745  1  0  -0.279666  -0.44623  0  1.177697  0
Cl  Cl113  1  0.21689377  0.09443652  0.05642584  1  0  -0.279664  -0.446236  0  1.17769  0
Cl  Cl114  1  0.21689155  0.59443876  0.44357255  1  0  -0.279664  -0.446225  0  1.177688  0
Cl  Cl115  1  0.78310557  0.90556255  0.94357255  1  0  -0.279662  -0.446223  0  1.177685  0
Cl  Cl116  1  0.45153074  0.39807723  0.25918592  1  0  -0.281852  -0.447515  0  1.303266  0
Cl  Cl117  1  0.54846692  0.10192290  0.75918502  1  0  -0.281856  -0.44752  0  1.303261  0
Cl  Cl118  1  0.54846767  0.60192348  0.74081407  1  0  -0.281849  -0.447525  0  1.303282  0
Cl  Cl119  1  0.45153373  0.89807863  0.24081336  1  0  -0.281852  -0.447522  0  1.303264  0
