# generated using pymatgen
data_Hg2H19C20N7Cl4O
_symmetry_space_group_name_H-M   'P 1'
_cell_length_a   8.17200320
_cell_length_b   8.89008845
_cell_length_c   9.65349830
_cell_angle_alpha   100.98578572
_cell_angle_beta   112.99922797
_cell_angle_gamma   98.88710622
_symmetry_Int_Tables_number   1
_chemical_formula_structural   Hg2H19C20N7Cl4O
_chemical_formula_sum   'Hg2 H19 C20 N7 Cl4 O1'
_cell_volume   613.06860990
_cell_formula_units_Z   1
loop_
 _symmetry_equiv_pos_site_id
 _symmetry_equiv_pos_as_xyz
  1  'x, y, z'
loop_
 _atom_site_type_symbol
 _atom_site_label
 _atom_site_symmetry_multiplicity
 _atom_site_fract_x
 _atom_site_fract_y
 _atom_site_fract_z
 _atom_site_occupancy
 _atom_site_pbe_bader_spin_density
 _atom_site_pbe_cm5_charge
 _atom_site_pbe_ddec_charge
 _atom_site_pbe_ddec_spin_density
 _atom_site_pbe_ddec_sum_bond_order
 _atom_site_pbe_magmom
Hg  Hg0  1  0.20866569  0.15459070  0.84157747  1  0  0.523726  0.569665  0  2.568288  0
Hg  Hg1  1  0.74978443  0.55416147  0.21771524  1  0  0.52557  0.588581  0  2.582519  0
H  H2  1  0.43558320  0.94122814  0.59979299  1  0  0.107333  0.11869  0  1.026787  0
H  H3  1  0.09601848  0.85478719  0.45293634  1  0  0.099037  0.077157  0  1.045359  0
H  H4  1  0.10612089  0.38620674  0.31659912  1  0  0.109531  0.085235  0  1.013223  0
H  H5  1  0.44388791  0.45002003  0.45842534  1  0  0.106783  0.120507  0  1.024099  0
H  H6  1  0.09444464  0.50951336  0.71355968  1  0  0.105578  0.115734  0  1.040947  0
H  H7  1  0.41843997  0.50189852  0.82291279  1  0  0.098279  0.100318  0  1.023362  0
H  H8  1  0.66565201  0.75886258  0.96253421  1  0  0.101279  0.116332  0  1.074066  0
H  H9  1  0.56743772  0.01372205  0.97796602  1  0  0.102317  0.084919  0  1.0405  0
H  H10  1  0.78749803  0.49388995  0.83479317  1  0  0.109983  0.145734  0  1.035302  0
H  H11  1  0.75416344  0.19811061  0.76416835  1  0  0.102259  0.105298  0  1.029718  0
H  H12  1  0.74582703  0.06724449  0.50673169  1  0  0.096452  0.112349  0  1.053391  0
H  H13  1  0.74882009  0.22985260  0.32164774  1  0  0.103499  0.07726  0  1.023554  0
H  H14  1  0.19808126  0.72418568  0.12543804  1  0  0.111241  0.047877  0  0.988801  0
H  H15  1  0.88202225  0.97855634  0.03468630  1  0  0.100794  0.120214  0  1.027043  0
H  H16  1  0.06441847  0.15262234  0.14324757  1  0  0.088349  0.112332  0  1.05382  0
H  H17  1  0.96402703  0.04457068  0.24249128  1  0  0.090375  0.112979  0  1.017746  0
H  H18  1  0.41514799  0.93702132  0.25654483  1  0  0.092899  0.113776  0  1.04567  0
H  H19  1  0.35667795  0.08026515  0.37444423  1  0  0.09021  0.117204  0  1.016978  0
H  H20  1  0.36994314  0.11350727  0.20210536  1  0  0.087586  0.10455  0  1.038728  0
C  C21  1  0.36834838  0.81679112  0.53906323  1  0  -0.079052  -0.145386  0  3.91782  0
C  C22  1  0.17877977  0.76888207  0.45703568  1  0  0.035059  0.078674  0  3.973875  0
C  C23  1  0.18439429  0.50782759  0.38189737  1  0  0.048873  0.110497  0  3.940589  0
C  C24  1  0.37533132  0.54495797  0.46209561  1  0  -0.08179  -0.149929  0  3.909611  0
C  C25  1  0.47141003  0.70323398  0.54270163  1  0  0.013574  0.061568  0  3.997538  0
C  C26  1  0.67113846  0.76103255  0.62856581  1  0  0.233911  0.227158  0  3.968254  0
C  C27  1  0.96983964  0.78791916  0.73132445  1  0  0.237169  0.206273  0  3.959481  0
C  C28  1  0.15652045  0.76635724  0.78827422  1  0  0.11811  0.142256  0  4.011381  0
C  C29  1  0.20022522  0.61992390  0.77322042  1  0  -0.076419  -0.132996  0  3.908478  0
C  C30  1  0.38418804  0.61598623  0.83575696  1  0  -0.064871  -0.014233  0  3.946939  0
C  C31  1  0.52021080  0.75739011  0.91214466  1  0  -0.086477  -0.127249  0  3.953499  0
C  C32  1  0.46659614  0.89912940  0.92135774  1  0  0.048984  0.101863  0  3.930878  0
C  C33  1  0.77744331  0.50724358  0.61074091  1  0  0.212807  0.29687  0  4.024145  0
C  C34  1  0.77230232  0.42839295  0.72097817  1  0  -0.079194  -0.192679  0  3.904376  0
C  C35  1  0.75822429  0.26604980  0.68241379  1  0  -0.064482  -0.012402  0  3.953475  0
C  C36  1  0.75227683  0.19289807  0.53887889  1  0  -0.082528  -0.121689  0  3.954956  0
C  C37  1  0.75531337  0.28296666  0.43603019  1  0  0.046394  0.11125  0  3.946474  0
C  C38  1  0.08319099  0.78221392  0.10346145  1  0  0.157388  0.287557  0  4.143105  0
C  C39  1  0.00404331  0.03461692  0.14537705  1  0  -0.147093  -0.279194  0  3.892827  0
C  C40  1  0.33088982  0.02221740  0.25389378  1  0  -0.146662  -0.287522  0  3.925  0
N  N41  1  0.08774434  0.61679609  0.37898163  1  0  -0.314141  -0.222316  0  3.504691  0
N  N42  1  0.75359931  0.91457382  0.69431532  1  0  -0.197584  -0.205566  0  3.238211  0
N  N43  1  0.93677944  0.93029726  0.75567903  1  0  -0.206286  -0.180474  0  3.426429  0
N  N44  1  0.29047916  0.90406438  0.86130456  1  0  -0.302189  -0.234658  0  3.481223  0
N  N45  1  0.80373944  0.67666188  0.65087449  1  0  -0.199461  -0.114333  0  3.666313  0
N  N46  1  0.76682726  0.43907228  0.47035755  1  0  -0.314305  -0.319498  0  3.409079  0
N  N47  1  0.13796511  0.94036142  0.16227886  1  0  -0.28839  0.028553  0  3.718182  0
Cl  Cl48  1  0.70415117  0.80510627  0.30647151  1  0  -0.246786  -0.372779  0  1.330234  0
Cl  Cl49  1  0.70843036  0.30454032  0.04920207  1  0  -0.238943  -0.369337  0  1.312173  0
Cl  Cl50  1  0.25633180  0.36630016  0.06145011  1  0  -0.276136  -0.412124  0  1.261807  0
Cl  Cl51  1  0.22802415  0.18879654  0.60154216  1  0  -0.295295  -0.431002  0  1.158597  0
O  O52  1  0.91936180  0.70452014  0.02905446  1  0  -0.317264  -0.473865  0  2.299598  0
