# generated using pymatgen
data_CuH12C12(NO4)2
_symmetry_space_group_name_H-M   'P 1'
_cell_length_a   3.67497470
_cell_length_b   9.84002754
_cell_length_c   10.04705802
_cell_angle_alpha   64.53412534
_cell_angle_beta   78.60288134
_cell_angle_gamma   84.41923424
_symmetry_Int_Tables_number   1
_chemical_formula_structural   CuH12C12(NO4)2
_chemical_formula_sum   'Cu1 H12 C12 N2 O8'
_cell_volume   321.52142506
_cell_formula_units_Z   1
loop_
 _symmetry_equiv_pos_site_id
 _symmetry_equiv_pos_as_xyz
  1  'x, y, z'
loop_
 _atom_site_type_symbol
 _atom_site_label
 _atom_site_symmetry_multiplicity
 _atom_site_fract_x
 _atom_site_fract_y
 _atom_site_fract_z
 _atom_site_occupancy
 _atom_site_hle17_ddec_charge
 _atom_site_hle17_ddec_spin_density
 _atom_site_hle17_ddec_sum_bond_order
 _atom_site_hle17_magmom
 _atom_site_hse06_10hf_ddec_charge
 _atom_site_hse06_10hf_ddec_spin_density
 _atom_site_hse06_10hf_ddec_sum_bond_order
 _atom_site_hse06_10hf_magmom
 _atom_site_hse06_ddec_charge
 _atom_site_hse06_ddec_spin_density
 _atom_site_hse06_ddec_sum_bond_order
 _atom_site_hse06_magmom
 _atom_site_pbe_cm5_charge
 _atom_site_pbe_ddec_charge
 _atom_site_pbe_ddec_spin_density
 _atom_site_pbe_ddec_sum_bond_order
 _atom_site_pbe_magmom
Cu  Cu0  1  0.08277741  0.00096616  0.57783714  1  1.057288  -0.706957  1.593211  -0.54  1.067019  -0.800497  1.968907  -0.663  1.146853  -0.857706  1.91156  -0.743  0.708797  1.008175  -0.760659  2.021726  -0.612
H  H1  1  0.75373067  0.78129007  0.80676789  1  0.423281  0.000397  0.882777  0.001  0.395645  -0.000244  0.941177  0.0  0.40905  -7.9e-05  0.922196  0.0  0.288331  0.386104  -0.000476  0.954608  0.0
H  H2  1  0.50612151  0.93275164  0.78906451  1  0.415566  0.000675  0.899682  0.001  0.385122  -0.000111  0.964945  0.0  0.398153  3.8e-05  0.946236  0.0  0.284457  0.376001  -0.000259  0.977909  -0.001
H  H3  1  0.66017336  0.06835969  0.36697391  1  0.415008  0.000679  0.901002  0.001  0.384691  -0.000113  0.965901  0.0  0.397767  3.6e-05  0.94715  0.0  0.284038  0.375531  -0.000259  0.978907  -0.001
H  H4  1  0.41579204  0.22040059  0.34944272  1  0.423827  0.0004  0.881998  0.001  0.396355  -0.000241  0.94015  0.0  0.409735  -7.7e-05  0.921195  0.0  0.288344  0.386832  -0.000472  0.953564  0.0
H  H5  1  0.10397600  0.36999482  0.08582736  1  0.315835  2e-06  0.915108  0.0  0.289229  -1.9e-05  0.98423  0.0  0.299541  -1.2e-05  0.975854  0.0  0.310944  0.282435  -8.9e-05  0.989329  0.0
H  H6  1  0.06851054  0.63147086  0.06963295  1  0.315492  -4e-06  0.916018  0.0  0.288996  -2e-05  0.984878  0.0  0.29932  -1.3e-05  0.976468  0.0  0.310598  0.282208  -9.1e-05  0.989975  0.0
H  H7  1  0.41035039  0.60057836  0.52473798  1  0.096207  -0.000293  0.967571  0.0  0.107931  -0.000235  1.029691  0.0  0.110324  -0.000159  1.027639  0.0  0.1078  0.10626  -0.000333  1.030665  0.0
H  H8  1  0.75864247  0.40150765  0.63109297  1  0.097046  -0.000291  0.966789  0.0  0.108312  -0.000236  1.029585  0.0  0.110669  -0.00016  1.027569  0.0  0.108136  0.106733  -0.000334  1.030398  0.0
H  H9  1  0.18023135  0.15102593  0.04093433  1  0.115864  3.3e-05  0.93299  0.0  0.121683  2.9e-05  0.997268  0.0  0.125409  2.6e-05  0.993084  0.0  0.131688  0.118936  3.4e-05  1.000092  0.0
H  H10  1  0.98978905  0.85039714  0.11455637  1  0.116204  2.5e-05  0.933419  0.0  0.122069  2.9e-05  0.997786  0.0  0.125804  2.6e-05  0.993588  0.0  0.131701  0.119315  3.3e-05  1.000633  0.0
H  H11  1  0.67174206  0.62703193  0.69179012  1  0.14501  -1.3e-05  0.93791  0.0  0.154262  -4.3e-05  0.995173  0.0  0.158257  -1.6e-05  0.993949  0.0  0.114811  0.151254  -0.000106  0.996438  0.0
H  H12  1  0.50055501  0.37511565  0.46392639  1  0.144344  -1.2e-05  0.938014  0.0  0.153285  -4.2e-05  0.995667  0.0  0.157261  -1.6e-05  0.994551  0.0  0.114546  0.150279  -0.000106  0.996912  0.0
C  C13  1  0.09136861  0.86994729  0.37075870  1  0.662711  0.006843  3.899096  0.007  0.615469  0.001398  4.200867  0.002  0.654442  0.001785  4.193873  0.002  0.211323  0.58905  0.001047  4.204466  0.002
C  C14  1  0.07549243  0.13170547  0.78494117  1  0.662465  0.006853  3.899613  0.007  0.615281  0.001432  4.201423  0.002  0.654212  0.001814  4.194475  0.002  0.210959  0.588888  0.001081  4.205003  0.002
C  C15  1  0.33930142  0.60540824  0.42281415  1  0.009007  0.000858  3.753539  0.001  -0.020292  3.9e-05  4.003858  0.0  -0.010244  0.000184  4.021224  0.0  -0.066092  -0.026228  -0.000101  3.991376  0.0
C  C16  1  0.89048057  0.51240541  0.89679742  1  0.553057  0.000832  3.823603  0.001  0.505691  0.000267  4.112345  0.0  0.533607  0.000251  4.116168  0.0  0.223167  0.487684  0.00011  4.10915  0.0
C  C17  1  0.83065845  0.39656826  0.73290598  1  0.008318  0.000905  3.754456  0.001  -0.020692  3.6e-05  4.005114  0.0  -0.010644  0.000181  4.022467  0.0  -0.066161  -0.026651  -0.000108  3.992631  0.0
C  C18  1  0.28193625  0.48935927  0.25882123  1  0.555061  0.00082  3.82279  0.001  0.50505  0.000274  4.115701  0.0  0.532969  0.000256  4.11954  0.0  0.222805  0.487038  0.000117  4.112497  0.0
C  C19  1  0.07129235  0.25264824  0.95871232  1  0.166985  0.001949  3.615575  0.001  0.115633  0.000408  3.871932  0.0  0.129527  0.00061  3.885285  0.0  0.068058  0.106568  -3.3e-05  3.862787  0.0
C  C20  1  0.09903266  0.74894123  0.19684135  1  0.167156  0.00189  3.616281  0.001  0.115561  0.000398  3.872327  0.0  0.129464  0.000605  3.885665  0.0  0.067671  0.106491  -3.8e-05  3.863207  0.0
C  C21  1  0.78217116  0.51994747  0.76529003  1  -0.255729  -0.000524  3.681674  -0.001  -0.274078  -0.000119  3.945733  0.0  -0.288457  -0.000143  3.964571  0.0  -0.102657  -0.265412  -0.000124  3.933237  0.0
C  C22  1  0.18399381  0.74158367  0.32775929  1  -0.166482  -0.008654  3.784423  -0.01  -0.144356  -0.005002  4.03157  -0.006  -0.16276  -0.003559  4.056628  -0.004  -0.031682  -0.132813  -0.00614  4.015092  -0.007
C  C23  1  0.98505976  0.26014185  0.82794068  1  -0.166211  -0.008684  3.782818  -0.01  -0.144328  -0.004998  4.030265  -0.006  -0.162662  -0.003557  4.055297  -0.004  -0.032112  -0.132833  -0.006134  4.013826  -0.007
C  C24  1  0.38933789  0.48203957  0.39039338  1  -0.256206  -0.000485  3.679723  0.0  -0.273079  -0.00012  3.944342  0.0  -0.287476  -0.000143  3.963189  0.0  -0.102567  -0.264414  -0.000124  3.93184  0.0
N  N25  1  0.01991287  0.37405085  0.99032448  1  -0.348195  -0.000642  3.375356  -0.001  -0.280342  -0.000297  3.614905  -0.001  -0.301463  -0.000169  3.625318  0.0  -0.363745  -0.266644  -0.000359  3.607215  -0.001
N  N26  1  0.15209012  0.62756769  0.16519478  1  -0.350106  -0.000613  3.375478  -0.001  -0.281461  -0.000303  3.615855  -0.001  -0.302585  -0.000173  3.626262  0.0  -0.364047  -0.267784  -0.000364  3.608179  -0.001
O  O27  1  0.66982398  0.88011071  0.73037709  1  -0.855091  -0.061225  1.99678  -0.088  -0.834341  -0.043116  2.238426  -0.066  -0.865169  -0.032314  2.194442  -0.055  -0.586772  -0.810564  -0.050258  2.268709  -0.073
O  O28  1  0.49757364  0.12108860  0.42584621  1  -0.856141  -0.061077  1.998288  -0.088  -0.835179  -0.043021  2.239831  -0.066  -0.866052  -0.032234  2.19582  -0.055  -0.586566  -0.81143  -0.050164  2.270291  -0.073
O  O29  1  0.16416514  0.84689645  0.49924095  1  -0.60468  -0.083805  2.042967  -0.118  -0.578034  -0.051315  2.327725  -0.079  -0.620083  -0.037868  2.318753  -0.063  -0.326111  -0.5486  -0.059945  2.333217  -0.087
O  O30  1  0.00207284  0.15504089  0.65647717  1  -0.605239  -0.083727  2.042625  -0.118  -0.578969  -0.051286  2.327626  -0.079  -0.621004  -0.037836  2.318654  -0.063  -0.326708  -0.54954  -0.059913  2.333111  -0.087
O  O31  1  0.87553426  0.62297066  0.93221622  1  -0.589584  -0.001547  1.99853  -0.002  -0.528096  -0.000993  2.208205  -0.001  -0.552973  -0.000464  2.20082  -0.001  -0.302509  -0.511378  -0.001002  2.212271  -0.001
O  O32  1  0.94086647  0.98687574  0.28382710  1  -0.611102  -0.001542  1.969574  -0.004  -0.563283  -0.000487  2.190631  -0.002  -0.589262  0.000665  2.179645  0.0  -0.314459  -0.545354  -0.001734  2.196968  -0.004
O  O33  1  0.29766865  0.37877291  0.22339076  1  -0.589343  -0.001572  1.997589  -0.002  -0.527438  -0.000987  2.208785  -0.001  -0.552294  -0.00046  2.201422  -0.001  -0.301797  -0.51069  -0.000996  2.212792  -0.001
O  O34  1  0.22486863  0.01443078  0.87185327  1  -0.611625  -0.001493  1.971825  -0.004  -0.563317  -0.000465  2.19278  -0.002  -0.589238  0.000682  2.181684  0.0  -0.314191  -0.545448  -0.001705  2.199194  -0.004
