# generated using pymatgen
data_ZnH4C5N4O
_symmetry_space_group_name_H-M   'P 1'
_cell_length_a   5.84094274
_cell_length_b   10.50174841
_cell_length_c   11.28954812
_cell_angle_alpha   102.95007027
_cell_angle_beta   89.99905160
_cell_angle_gamma   89.99985903
_symmetry_Int_Tables_number   1
_chemical_formula_structural   ZnH4C5N4O
_chemical_formula_sum   'Zn4 H16 C20 N16 O4'
_cell_volume   674.88884753
_cell_formula_units_Z   4
loop_
 _symmetry_equiv_pos_site_id
 _symmetry_equiv_pos_as_xyz
  1  'x, y, z'
loop_
 _atom_site_type_symbol
 _atom_site_label
 _atom_site_symmetry_multiplicity
 _atom_site_fract_x
 _atom_site_fract_y
 _atom_site_fract_z
 _atom_site_occupancy
 _atom_site_hle17_bader_spin_density
 _atom_site_hle17_ddec_charge
 _atom_site_hle17_ddec_spin_density
 _atom_site_hle17_ddec_sum_bond_order
 _atom_site_hle17_magmom
 _atom_site_hse06_10hf_bader_spin_density
 _atom_site_hse06_10hf_ddec_charge
 _atom_site_hse06_10hf_ddec_spin_density
 _atom_site_hse06_10hf_ddec_sum_bond_order
 _atom_site_hse06_10hf_magmom
 _atom_site_hse06_bader_spin_density
 _atom_site_hse06_ddec_charge
 _atom_site_hse06_ddec_spin_density
 _atom_site_hse06_ddec_sum_bond_order
 _atom_site_hse06_magmom
 _atom_site_pbe_bader_spin_density
 _atom_site_pbe_cm5_charge
 _atom_site_pbe_ddec_charge
 _atom_site_pbe_ddec_spin_density
 _atom_site_pbe_ddec_sum_bond_order
 _atom_site_pbe_magmom
Zn  Zn0  1  0.75439908  0.48448725  0.43815591  1  0  1.011767  0  1.922303  0  0  0.839535  0  2.386759  0  0  0.879583  0  2.339494  0  0  0.709185  0.811603  0  2.418534  0
Zn  Zn1  1  0.25437229  0.01551162  0.06184514  1  0  1.011761  0  1.922209  0  0  0.839549  0  2.386637  0  0  0.879599  0  2.339375  0  0  0.709162  0.811606  0  2.418408  0
Zn  Zn2  1  0.24561785  0.51551559  0.56184284  1  0  1.011782  0  1.9222  0  0  0.83956  0  2.386639  0  0  0.879614  0  2.339373  0  0  0.709199  0.811628  0  2.418416  0
Zn  Zn3  1  0.74560013  0.98448132  0.93815382  1  0  1.011773  0  1.922247  0  0  0.839565  0  2.386694  0  0  0.879616  0  2.339429  0  0  0.709182  0.811625  0  2.418473  0
H  H4  1  0.88138864  0.23521254  0.27685270  1  0  0.0966  0  0.940628  0  0  0.104801  0  1.004337  0  0  0.107436  0  1.003222  0  0  0.115479  0.103091  0  1.004811  0
H  H5  1  0.38138967  0.26479353  0.22315261  1  0  0.096583  0  0.940588  0  0  0.104772  0  1.004312  0  0  0.107406  0  1.0032  0  0  0.115466  0.103062  0  1.004784  0
H  H6  1  0.11862658  0.76478414  0.72315073  1  0  0.096599  0  0.940617  0  0  0.104814  0  1.004321  0  0  0.10745  0  1.003205  0  0  0.115473  0.103107  0  1.004794  0
H  H7  1  0.61861357  0.73521466  0.77683771  1  0  0.096668  0  0.940745  0  0  0.10488  0  1.004445  0  0  0.107514  0  1.003331  0  0  0.115506  0.103173  0  1.004922  0
H  H8  1  0.84271162  0.29133285  0.90974738  1  0  0.113411  0  0.965625  0  0  0.120236  0  1.036638  0  0  0.123122  0  1.034238  0  0  0.105185  0.118025  0  1.038686  0
H  H9  1  0.34275144  0.20865885  0.59025229  1  0  0.113451  0  0.965688  0  0  0.120183  0  1.036823  0  0  0.123071  0  1.034425  0  0  0.105137  0.117973  0  1.038874  0
H  H10  1  0.15725395  0.70865224  0.09025051  1  0  0.113508  0  0.965564  0  0  0.120235  0  1.036718  0  0  0.123118  0  1.034324  0  0  0.105191  0.118031  0  1.038733  0
H  H11  1  0.65727919  0.79134627  0.40973993  1  0  0.113385  0  0.965641  0  0  0.120227  0  1.036655  0  0  0.123116  0  1.034259  0  0  0.105172  0.118015  0  1.038699  0
H  H12  1  0.72350801  0.52131810  0.99653944  1  0  0.103295  0  0.943559  0  0  0.115677  0  0.996836  0  0  0.117886  0  0.997592  0  0  0.107636  0.114377  0  0.996068  0
H  H13  1  0.22351848  0.97867654  0.50346482  1  0  0.10333  0  0.943444  0  0  0.115708  0  0.996732  0  0  0.117919  0  0.997483  0  0  0.107617  0.114407  0  0.995963  0
H  H14  1  0.27647126  0.47866991  0.00345918  1  0  0.10332  0  0.943577  0  0  0.115697  0  0.996856  0  0  0.11791  0  0.997604  0  0  0.107653  0.114392  0  0.996085  0
H  H15  1  0.77648990  0.02132480  0.49654420  1  0  0.103253  0  0.943898  0  0  0.115634  0  0.997158  0  0  0.117843  0  0.997913  0  0  0.107599  0.114333  0  0.996388  0
H  H16  1  0.68893168  0.59990781  0.22211980  1  0  0.078085  0  0.978967  0  0  0.079971  0  1.059196  0  0  0.082331  0  1.05684  0  0  0.109436  0.078381  0  1.060837  0
H  H17  1  0.18892001  0.90009789  0.27788281  1  0  0.078038  0  0.979088  0  0  0.079926  0  1.059304  0  0  0.082287  0  1.056944  0  0  0.109401  0.078337  0  1.06094  0
H  H18  1  0.31108011  0.40009010  0.77787862  1  0  0.078034  0  0.979033  0  0  0.079923  0  1.05927  0  0  0.082282  0  1.056915  0  0  0.109406  0.078329  0  1.060912  0
H  H19  1  0.81108323  0.09990766  0.72212105  1  0  0.078033  0  0.979036  0  0  0.079927  0  1.059276  0  0  0.082287  0  1.056919  0  0  0.109396  0.078327  0  1.060922  0
C  C20  1  0.85079003  0.29597020  0.21182434  1  0  -0.015033  0  3.671113  0  0  -0.051877  0  3.927684  0  0  -0.04946  0  3.944974  0  0  0.021149  -0.052801  0  3.915241  0
C  C21  1  0.35078241  0.20402820  0.28817844  1  0  -0.015169  0  3.671313  0  0  -0.051982  0  3.927909  0  0  -0.04957  0  3.945204  0  0  0.021107  -0.052898  0  3.915461  0
C  C22  1  0.14922177  0.70402376  0.78817398  1  0  -0.014976  0  3.671096  0  0  -0.05184  0  3.92771  0  0  -0.04942  0  3.944999  0  0  0.021187  -0.052759  0  3.915272  0
C  C23  1  0.64922082  0.79597132  0.71182747  1  0  -0.015194  0  3.670862  0  0  -0.052098  0  3.927507  0  0  -0.049686  0  3.944793  0  0  0.021092  -0.053021  0  3.915076  0
C  C24  1  0.87505710  0.24366816  0.08625313  1  0  0.312319  0  3.896025  0  0  0.305686  0  4.146976  0  0  0.314383  0  4.16606  0  0  0.076655  0.299242  0  4.13429  0
C  C25  1  0.37507942  0.25633615  0.41374825  1  0  0.312355  0  3.895772  0  0  0.305604  0  4.146883  0  0  0.314315  0  4.165956  0  0  0.07663  0.299152  0  4.134211  0
C  C26  1  0.12492731  0.75631850  0.91375313  1  0  0.312343  0  3.895975  0  0  0.305643  0  4.147019  0  0  0.314356  0  4.166087  0  0  0.0767  0.299192  0  4.134349  0
C  C27  1  0.62493237  0.74367853  0.58623039  1  0  0.312353  0  3.896376  0  0  0.305747  0  4.147292  0  0  0.314463  0  4.166361  0  0  0.076662  0.299294  0  4.134619  0
C  C28  1  0.82697174  0.32726829  0.00776555  1  0  -0.135718  0  3.692499  0  0  -0.162949  0  3.943849  0  0  -0.16432  0  3.963135  0  0  -0.086625  -0.162403  0  3.931563  0
C  C29  1  0.32698339  0.17272311  0.49224101  1  0  -0.135589  0  3.69244  0  0  -0.162709  0  3.94378  0  0  -0.164088  0  3.963067  0  0  -0.086483  -0.162161  0  3.931499  0
C  C30  1  0.17300582  0.67271578  0.99223297  1  0  -0.135746  0  3.692721  0  0  -0.162879  0  3.944055  0  0  -0.164259  0  3.963343  0  0  -0.086634  -0.162317  0  3.931763  0
C  C31  1  0.67302156  0.82727815  0.50776976  1  0  -0.135678  0  3.693103  0  0  -0.162909  0  3.944396  0  0  -0.164304  0  3.963697  0  0  -0.086594  -0.162347  0  3.932098  0
C  C32  1  0.75993866  0.45529736  0.05602422  1  0  -0.088421  0  3.775286  0  0  -0.097072  0  4.024201  0  0  -0.102088  0  4.047327  0  0  -0.084363  -0.093918  0  4.00836  0
C  C33  1  0.25993537  0.04470730  0.44397910  1  0  -0.088586  0  3.77559  0  0  -0.097249  0  4.024511  0  0  -0.102264  0  4.047641  0  0  -0.08435  -0.094092  0  4.008668  0
C  C34  1  0.24006971  0.54469448  0.94397712  1  0  -0.088476  0  3.775238  0  0  -0.097117  0  4.024153  0  0  -0.10213  0  4.047278  0  0  -0.084321  -0.093958  0  4.008305  0
C  C35  1  0.74008841  0.95530594  0.55600893  1  0  -0.08837  0  3.774683  0  0  -0.097002  0  4.02359  0  0  -0.102009  0  4.046713  0  0  -0.084209  -0.09385  0  4.007746  0
C  C36  1  0.74066053  0.50013057  0.18134935  1  0  0.086079  0  3.723037  0  0  0.046098  0  3.986524  0  0  0.051376  0  4.005065  0  0  0.0247  0.04325  0  3.973284  0
C  C37  1  0.24065562  0.99986993  0.31865419  1  0  0.086183  0  3.723102  0  0  0.046216  0  3.986538  0  0  0.051494  0  4.005081  0  0  0.024718  0.043367  0  3.97329  0
C  C38  1  0.25934955  0.49986462  0.81864396  1  0  0.086159  0  3.722956  0  0  0.04616  0  3.986465  0  0  0.05144  0  4.005012  0  0  0.02473  0.04332  0  3.973227  0
C  C39  1  0.75935275  0.00013480  0.68136631  1  0  0.086138  0  3.722795  0  0  0.046121  0  3.986316  0  0  0.051395  0  4.004861  0  0  0.024728  0.04329  0  3.973074  0
N  N40  1  0.93753755  0.38846716  0.54541268  1  0  -0.634832  0  2.815082  0  0  -0.588835  0  3.140516  0  0  -0.614223  0  3.143077  0  0  -0.330764  -0.571786  0  3.138508  0
N  N41  1  0.43751990  0.11153287  0.95459093  1  0  -0.634773  0  2.814932  0  0  -0.588796  0  3.140367  0  0  -0.614185  0  3.142927  0  0  -0.330772  -0.571748  0  3.138355  0
N  N42  1  0.06247938  0.61154144  0.45458928  1  0  -0.634769  0  2.814778  0  0  -0.588826  0  3.140235  0  0  -0.614214  0  3.142798  0  0  -0.330805  -0.571779  0  3.138222  0
N  N43  1  0.56245252  0.88845799  0.04541017  1  0  -0.634807  0  2.815076  0  0  -0.588845  0  3.140482  0  0  -0.614238  0  3.143046  0  0  -0.33072  -0.571799  0  3.138471  0
N  N44  1  0.84107406  0.36115697  0.63162031  1  0  0.420311  0  4.193855  0  0  0.453804  0  4.470258  0  0  0.46974  0  4.498766  0  0  0.095043  0.443069  0  4.451396  0
N  N45  1  0.34105563  0.13884455  0.86838092  1  0  0.420302  0  4.193906  0  0  0.453814  0  4.470288  0  0  0.469751  0  4.498795  0  0  0.095041  0.443077  0  4.451421  0
N  N46  1  0.15894116  0.63885270  0.36838013  1  0  0.420321  0  4.193762  0  0  0.45385  0  4.470141  0  0  0.469785  0  4.498653  0  0  0.095105  0.443115  0  4.451274  0
N  N47  1  0.65892364  0.86115030  0.13161940  1  0  0.420363  0  4.19403  0  0  0.45393  0  4.470345  0  0  0.469869  0  4.498851  0  0  0.095087  0.443191  0  4.451482  0
N  N48  1  0.75085107  0.33366511  0.71401912  1  0  -0.347574  0  2.405146  0  0  -0.34462  0  2.629758  0  0  -0.35118  0  2.639677  0  0  -0.158833  -0.340346  0  2.623542  0
N  N49  1  0.25083515  0.16633370  0.78598397  1  0  -0.347583  0  2.405301  0  0  -0.344633  0  2.629909  0  0  -0.35119  0  2.639829  0  0  -0.158822  -0.340363  0  2.623692  0
N  N50  1  0.24916073  0.66634158  0.28598147  1  0  -0.34762  0  2.405302  0  0  -0.344676  0  2.629903  0  0  -0.351235  0  2.639826  0  0  -0.158867  -0.340403  0  2.623684  0
N  N51  1  0.74915268  0.83366408  0.21401707  1  0  -0.347604  0  2.405275  0  0  -0.344716  0  2.629881  0  0  -0.351273  0  2.639799  0  0  -0.158883  -0.340448  0  2.623671  0
N  N52  1  0.78532011  0.42047400  0.25705100  1  0  -0.323993  0  3.41122  0  0  -0.236499  0  3.688619  0  0  -0.253664  0  3.70545  0  0  -0.343602  -0.224866  0  3.676553  0
N  N53  1  0.28531456  0.07953545  0.24295330  1  0  -0.323907  0  3.411244  0  0  -0.236392  0  3.688576  0  0  -0.253561  0  3.705415  0  0  -0.343542  -0.224755  0  3.676499  0
N  N54  1  0.21468484  0.57953057  0.74295262  1  0  -0.324022  0  3.411425  0  0  -0.23651  0  3.688836  0  0  -0.253693  0  3.705687  0  0  -0.343621  -0.224875  0  3.676772  0
N  N55  1  0.71467498  0.92047838  0.75704286  1  0  -0.323947  0  3.41172  0  0  -0.236452  0  3.689158  0  0  -0.253617  0  3.706001  0  0  -0.343649  -0.224813  0  3.67708  0
O  O56  1  0.93734253  0.11933378  0.04510622  1  0  -0.676322  0  2.21926  0  0  -0.584017  0  2.508994  0  0  -0.610981  0  2.497423  0  0  -0.360315  -0.564982  0  2.516468  0
O  O57  1  0.43737490  0.38065914  0.45490068  1  0  -0.676373  0  2.219405  0  0  -0.583957  0  2.509064  0  0  -0.610926  0  2.497499  0  0  -0.360332  -0.564924  0  2.516547  0
O  O58  1  0.06263160  0.88065572  0.95490252  1  0  -0.676426  0  2.219236  0  0  -0.584023  0  2.508858  0  0  -0.610998  0  2.49729  0  0  -0.360369  -0.56499  0  2.516341  0
O  O59  1  0.56263860  0.61934674  0.54509617  1  0  -0.676394  0  2.219539  0  0  -0.584015  0  2.509118  0  0  -0.61098  0  2.49754  0  0  -0.360342  -0.56498  0  2.5166  0
