# generated using pymatgen
data_HgH22C28S2(NO)4
_symmetry_space_group_name_H-M   'P 1'
_cell_length_a   8.49038667
_cell_length_b   12.22957466
_cell_length_c   12.81493883
_cell_angle_alpha   90.00005137
_cell_angle_beta   98.03821426
_cell_angle_gamma   89.99988585
_symmetry_Int_Tables_number   1
_chemical_formula_structural   HgH22C28S2(NO)4
_chemical_formula_sum   'Hg2 H44 C56 S4 N8 O8'
_cell_volume   1317.55067415
_cell_formula_units_Z   2
loop_
 _symmetry_equiv_pos_site_id
 _symmetry_equiv_pos_as_xyz
  1  'x, y, z'
loop_
 _atom_site_type_symbol
 _atom_site_label
 _atom_site_symmetry_multiplicity
 _atom_site_fract_x
 _atom_site_fract_y
 _atom_site_fract_z
 _atom_site_occupancy
 _atom_site_hle17_bader_spin_density
 _atom_site_hle17_ddec_charge
 _atom_site_hle17_ddec_spin_density
 _atom_site_hle17_ddec_sum_bond_order
 _atom_site_hle17_magmom
 _atom_site_hse06_10hf_bader_spin_density
 _atom_site_hse06_10hf_ddec_charge
 _atom_site_hse06_10hf_ddec_spin_density
 _atom_site_hse06_10hf_ddec_sum_bond_order
 _atom_site_hse06_10hf_magmom
 _atom_site_hse06_bader_spin_density
 _atom_site_hse06_ddec_charge
 _atom_site_hse06_ddec_spin_density
 _atom_site_hse06_ddec_sum_bond_order
 _atom_site_hse06_magmom
 _atom_site_pbe_bader_spin_density
 _atom_site_pbe_cm5_charge
 _atom_site_pbe_ddec_charge
 _atom_site_pbe_ddec_spin_density
 _atom_site_pbe_ddec_sum_bond_order
 _atom_site_pbe_magmom
Hg  Hg0  1  0.50000048  0.49999824  0.00000008  1  0  0.613562  0  2.112202  0  0  0.506624  0  2.567522  0  0  0.539567  0  2.550761  0  0  0.512782  0.483983  0  2.579  0
Hg  Hg1  1  0.49999882  0.00000152  0.50000024  1  0  0.613529  0  2.112201  0  0  0.506596  0  2.567513  0  0  0.539538  0  2.550754  0  0  0.512764  0.483949  0  2.578999  0
H  H2  1  0.49794850  0.76162258  0.76199674  1  0  0.092732  0  0.961357  0  0  0.099413  0  1.030942  0  0  0.102914  0  1.028648  0  0  0.092065  0.096955  0  1.032569  0
H  H3  1  0.50205492  0.26162643  0.73800291  1  0  0.092727  0  0.961311  0  0  0.099389  0  1.030932  0  0  0.102891  0  1.028637  0  0  0.092066  0.096934  0  1.032553  0
H  H4  1  0.50205254  0.23837518  0.23800214  1  0  0.092723  0  0.961327  0  0  0.099393  0  1.030929  0  0  0.102895  0  1.028634  0  0  0.092058  0.096937  0  1.032546  0
H  H5  1  0.49794968  0.73837787  0.26199631  1  0  0.092717  0  0.961347  0  0  0.099414  0  1.030916  0  0  0.102915  0  1.028623  0  0  0.092076  0.096961  0  1.032543  0
H  H6  1  0.54217504  0.59127152  0.66682542  1  0  0.088942  0  0.968857  0  0  0.099571  0  1.029904  0  0  0.102674  0  1.027846  0  0  0.093814  0.097375  0  1.031423  0
H  H7  1  0.45783004  0.09127062  0.83317347  1  0  0.089002  0  0.96881  0  0  0.099597  0  1.029899  0  0  0.1027  0  1.027842  0  0  0.093821  0.097405  0  1.031418  0
H  H8  1  0.45782719  0.40872951  0.33317124  1  0  0.088955  0  0.96884  0  0  0.099534  0  1.029943  0  0  0.102637  0  1.027886  0  0  0.093798  0.097341  0  1.03146  0
H  H9  1  0.54217456  0.90873041  0.16682732  1  0  0.089037  0  0.968821  0  0  0.099596  0  1.029938  0  0  0.1027  0  1.027879  0  0  0.093819  0.097403  0  1.031454  0
H  H10  1  0.73944671  0.45346042  0.74963955  1  0  0.083778  0  0.968339  0  0  0.096294  0  1.027257  0  0  0.097905  0  1.028224  0  0  0.092574  0.095143  0  1.026667  0
H  H11  1  0.26055381  0.95346015  0.75036000  1  0  0.083795  0  0.968304  0  0  0.09632  0  1.027211  0  0  0.097932  0  1.028178  0  0  0.092587  0.095168  0  1.026619  0
H  H12  1  0.26055314  0.54653980  0.25035844  1  0  0.083768  0  0.968372  0  0  0.096297  0  1.027273  0  0  0.097908  0  1.028242  0  0  0.092571  0.095144  0  1.026683  0
H  H13  1  0.73944722  0.04654088  0.24964045  1  0  0.083805  0  0.968268  0  0  0.096298  0  1.027209  0  0  0.097909  0  1.028179  0  0  0.092586  0.095148  0  1.026611  0
H  H14  1  0.88498412  0.48704211  0.92843877  1  0  0.110647  0  0.955427  0  0  0.118955  0  1.018501  0  0  0.12205  0  1.01768  0  0  0.09825  0.116724  0  1.019187  0
H  H15  1  0.11501393  0.98704433  0.57156135  1  0  0.110679  0  0.955436  0  0  0.119024  0  1.018451  0  0  0.122094  0  1.017663  0  0  0.098246  0.116796  0  1.019145  0
H  H16  1  0.11501216  0.51295729  0.07155967  1  0  0.110668  0  0.955416  0  0  0.118994  0  1.01847  0  0  0.122081  0  1.01766  0  0  0.098225  0.116763  0  1.019159  0
H  H17  1  0.88498710  0.01295834  0.42843832  1  0  0.11058  0  0.955474  0  0  0.118933  0  1.018503  0  0  0.121996  0  1.017722  0  0  0.098222  0.116708  0  1.019192  0
H  H18  1  0.99235389  0.80879449  0.18070194  1  0  0.105711  0  0.945645  0  0  0.110987  0  1.012776  0  0  0.11413  0  1.011704  0  0  0.106633  0.108773  0  1.013594  0
H  H19  1  0.00764694  0.30879502  0.31930112  1  0  0.105692  0  0.945676  0  0  0.110981  0  1.012783  0  0  0.114124  0  1.011711  0  0  0.106621  0.108763  0  1.013603  0
H  H20  1  0.00764833  0.19120736  0.81930017  1  0  0.105733  0  0.945646  0  0  0.111002  0  1.012777  0  0  0.114144  0  1.011703  0  0  0.10663  0.108783  0  1.013593  0
H  H21  1  0.99235053  0.69120683  0.68069899  1  0  0.105741  0  0.945692  0  0  0.111004  0  1.012813  0  0  0.114146  0  1.01174  0  0  0.106631  0.108787  0  1.013633  0
H  H22  1  0.17125511  0.85334289  0.34820323  1  0  0.10449  0  0.984073  0  0  0.104869  0  1.061665  0  0  0.108743  0  1.059377  0  0  0.100853  0.102072  0  1.063376  0
H  H23  1  0.82874560  0.35334539  0.15179986  1  0  0.104581  0  0.984002  0  0  0.104908  0  1.06162  0  0  0.108779  0  1.059333  0  0  0.100866  0.102109  0  1.063328  0
H  H24  1  0.82874949  0.14665487  0.65179911  1  0  0.104478  0  0.984062  0  0  0.104852  0  1.061662  0  0  0.108725  0  1.059373  0  0  0.100848  0.102056  0  1.063366  0
H  H25  1  0.17125068  0.64665482  0.84820014  1  0  0.104509  0  0.984067  0  0  0.104882  0  1.061651  0  0  0.108753  0  1.059364  0  0  0.100863  0.102087  0  1.063355  0
H  H26  1  0.08939753  0.53257060  0.46657702  1  0  0.105617  0  0.977725  0  0  0.112614  0  1.043671  0  0  0.115986  0  1.041066  0  0  0.110099  0.110117  0  1.045682  0
H  H27  1  0.91060286  0.03257370  0.03342420  1  0  0.10561  0  0.977759  0  0  0.112606  0  1.043708  0  0  0.115978  0  1.041102  0  0  0.110097  0.110103  0  1.045727  0
H  H28  1  0.91060350  0.46742634  0.53342264  1  0  0.10558  0  0.977782  0  0  0.112579  0  1.043734  0  0  0.115949  0  1.041131  0  0  0.11009  0.110078  0  1.04575  0
H  H29  1  0.08939579  0.96742570  0.96657758  1  0  0.105657  0  0.9777  0  0  0.112671  0  1.043622  0  0  0.116035  0  1.041025  0  0  0.110131  0.110174  0  1.045628  0
H  H30  1  0.89876811  0.49176642  0.30460662  1  0  0.106033  0  0.965021  0  0  0.115299  0  1.026321  0  0  0.118335  0  1.025112  0  0  0.103314  0.113096  0  1.027332  0
H  H31  1  0.10123103  0.99176796  0.19539488  1  0  0.106051  0  0.965026  0  0  0.11532  0  1.026316  0  0  0.118356  0  1.025109  0  0  0.103322  0.113111  0  1.027334  0
H  H32  1  0.10123174  0.50823461  0.69539371  1  0  0.106014  0  0.965026  0  0  0.115279  0  1.026327  0  0  0.118315  0  1.025117  0  0  0.103305  0.113074  0  1.027345  0
H  H33  1  0.89877000  0.00823389  0.80460635  1  0  0.106046  0  0.964996  0  0  0.115315  0  1.026286  0  0  0.11835  0  1.025078  0  0  0.10332  0.113112  0  1.027297  0
H  H34  1  0.58460093  0.80442824  0.03204686  1  0  0.104656  0  0.96618  0  0  0.12268  0  1.034993  0  0  0.123217  0  1.036094  0  0  0.086005  0.122241  0  1.034292  0
H  H35  1  0.41539754  0.30442834  0.46795286  1  0  0.104623  0  0.966224  0  0  0.122636  0  1.035048  0  0  0.123173  0  1.036148  0  0  0.085996  0.122193  0  1.034345  0
H  H36  1  0.41539654  0.19557279  0.96795247  1  0  0.104628  0  0.966192  0  0  0.12264  0  1.035022  0  0  0.123176  0  1.036121  0  0  0.08601  0.122199  0  1.034318  0
H  H37  1  0.58460350  0.69557350  0.53204603  1  0  0.104639  0  0.966203  0  0  0.122655  0  1.03503  0  0  0.123192  0  1.036131  0  0  0.085984  0.122216  0  1.034324  0
H  H38  1  0.55011887  0.87892186  0.91105360  1  0  0.108029  0  0.941634  0  0  0.132217  0  0.997215  0  0  0.133469  0  0.997143  0  0  0.088508  0.131277  0  0.997294  0
H  H39  1  0.44987947  0.37892565  0.58894724  1  0  0.107998  0  0.941639  0  0  0.132175  0  0.997228  0  0  0.133423  0  0.997161  0  0  0.088498  0.131238  0  0.997298  0
H  H40  1  0.44987741  0.12107590  0.08894484  1  0  0.107996  0  0.941655  0  0  0.132173  0  0.997235  0  0  0.133422  0  0.997166  0  0  0.088501  0.131231  0  0.997309  0
H  H41  1  0.55012276  0.62107783  0.41105332  1  0  0.108024  0  0.94158  0  0  0.132222  0  0.997151  0  0  0.133476  0  0.997076  0  0  0.088506  0.131277  0  0.99723  0
H  H42  1  0.74434763  0.86963853  0.98354636  1  0  0.103659  0  0.952459  0  0  0.125593  0  1.016435  0  0  0.126582  0  1.016552  0  0  0.085899  0.124876  0  1.016348  0
H  H43  1  0.25564836  0.36964252  0.51645035  1  0  0.103695  0  0.952529  0  0  0.125624  0  1.01651  0  0  0.126606  0  1.016631  0  0  0.085914  0.124904  0  1.016421  0
H  H44  1  0.25564984  0.13035923  0.01645063  1  0  0.10369  0  0.952577  0  0  0.125619  0  1.016553  0  0  0.126599  0  1.016676  0  0  0.085918  0.124899  0  1.016466  0
H  H45  1  0.74435030  0.63036015  0.48354831  1  0  0.103668  0  0.95257  0  0  0.125607  0  1.016538  0  0  0.126593  0  1.016658  0  0  0.085904  0.12489  0  1.016448  0
C  C46  1  0.77317955  0.64336652  0.94681014  1  0  0.144925  0  3.859756  0  0  0.149006  0  4.101822  0  0  0.154652  0  4.124718  0  0  0.074045  0.145113  0  4.086178  0
C  C47  1  0.22681706  0.14336977  0.55319034  1  0  0.145064  0  3.859658  0  0  0.149164  0  4.101716  0  0  0.154815  0  4.124603  0  0  0.074123  0.145281  0  4.086062  0
C  C48  1  0.22681792  0.35663042  0.05318841  1  0  0.145003  0  3.859511  0  0  0.149107  0  4.101574  0  0  0.154757  0  4.124466  0  0  0.074106  0.145216  0  4.085928  0
C  C49  1  0.77318397  0.85663372  0.44681011  1  0  0.145077  0  3.859467  0  0  0.149125  0  4.101595  0  0  0.154774  0  4.124483  0  0  0.074113  0.145235  0  4.085952  0
C  C50  1  0.66367864  0.72267759  0.89977041  1  0  0.050608  0  3.735929  0  0  0.076592  0  3.969224  0  0  0.074103  0  3.994592  0  0  -0.020739  0.078237  0  3.951993  0
C  C51  1  0.33631537  0.22267991  0.60023067  1  0  0.050439  0  3.736061  0  0  0.076406  0  3.969365  0  0  0.073915  0  3.994731  0  0  -0.02085  0.078052  0  3.952124  0
C  C52  1  0.33631882  0.27731935  0.10023126  1  0  0.050469  0  3.736066  0  0  0.076444  0  3.969366  0  0  0.073953  0  3.994731  0  0  -0.020812  0.078087  0  3.952131  0
C  C53  1  0.66368210  0.77732112  0.39976867  1  0  0.050487  0  3.735891  0  0  0.076475  0  3.969225  0  0  0.073986  0  3.994595  0  0  -0.02079  0.078126  0  3.951993  0
C  C54  1  0.58384849  0.70185022  0.79857622  1  0  -0.122895  0  3.765318  0  0  -0.145045  0  4.019779  0  0  -0.147169  0  4.041333  0  0  -0.102167  -0.143405  0  4.00494  0
C  C55  1  0.41615153  0.20185170  0.70142384  1  0  -0.122832  0  3.76515  0  0  -0.144962  0  4.01962  0  0  -0.147086  0  4.041176  0  0  -0.10213  -0.143321  0  4.004778  0
C  C56  1  0.41615017  0.29814836  0.20142322  1  0  -0.12289  0  3.765279  0  0  -0.145026  0  4.019733  0  0  -0.147147  0  4.041284  0  0  -0.102147  -0.143378  0  4.004878  0
C  C57  1  0.58385070  0.79815014  0.29857516  1  0  -0.122868  0  3.765301  0  0  -0.145031  0  4.019747  0  0  -0.147153  0  4.041297  0  0  -0.102174  -0.143396  0  4.004914  0
C  C58  1  0.61043416  0.60628266  0.74391774  1  0  -0.08625  0  3.807036  0  0  -0.10389  0  4.065822  0  0  -0.105678  0  4.08593  0  0  -0.110417  -0.102599  0  4.051994  0
C  C59  1  0.38956850  0.10628424  0.75608327  1  0  -0.086365  0  3.806954  0  0  -0.10398  0  4.065737  0  0  -0.105766  0  4.085845  0  0  -0.110472  -0.102694  0  4.051914  0
C  C60  1  0.38956807  0.39371591  0.25608204  1  0  -0.086202  0  3.806941  0  0  -0.103799  0  4.065708  0  0  -0.105584  0  4.085813  0  0  -0.110418  -0.102513  0  4.051882  0
C  C61  1  0.61043492  0.89371679  0.24391740  1  0  -0.086353  0  3.807136  0  0  -0.103936  0  4.065907  0  0  -0.105722  0  4.086015  0  0  -0.110443  -0.10265  0  4.052084  0
C  C62  1  0.71956764  0.52933553  0.79030428  1  0  -0.070145  0  3.816877  0  0  -0.085005  0  4.068608  0  0  -0.085854  0  4.09022  0  0  -0.107693  -0.084295  0  4.053709  0
C  C63  1  0.28043286  0.02933803  0.70969490  1  0  -0.070027  0  3.816841  0  0  -0.084886  0  4.068563  0  0  -0.085735  0  4.09017  0  0  -0.107629  -0.084171  0  4.053665  0
C  C64  1  0.28043459  0.47066223  0.20969628  1  0  -0.070081  0  3.816869  0  0  -0.084942  0  4.068601  0  0  -0.085791  0  4.090211  0  0  -0.107618  -0.084232  0  4.053707  0
C  C65  1  0.71956818  0.97066300  0.29030399  1  0  -0.070156  0  3.816878  0  0  -0.084992  0  4.068604  0  0  -0.085842  0  4.090208  0  0  -0.107678  -0.084277  0  4.053694  0
C  C66  1  0.80110698  0.54757246  0.89114960  1  0  -0.174482  0  3.759451  0  0  -0.187562  0  4.006115  0  0  -0.192585  0  4.026406  0  0  -0.111218  -0.183978  0  3.992205  0
C  C67  1  0.19888870  0.04757416  0.60884992  1  0  -0.174669  0  3.759532  0  0  -0.187787  0  4.006207  0  0  -0.192794  0  4.026515  0  0  -0.111259  -0.184212  0  3.99231  0
C  C68  1  0.19888929  0.45242611  0.10884962  1  0  -0.174622  0  3.759394  0  0  -0.187744  0  4.006096  0  0  -0.192764  0  4.026396  0  0  -0.111266  -0.184164  0  3.992192  0
C  C69  1  0.80111234  0.95242850  0.39114897  1  0  -0.174437  0  3.759384  0  0  -0.187541  0  4.006041  0  0  -0.192543  0  4.026354  0  0  -0.111199  -0.183969  0  3.992142  0
C  C70  1  0.82390600  0.62415775  0.13311453  1  0  0.22863  0  3.774853  0  0  0.217047  0  4.056522  0  0  0.235543  0  4.067729  0  0  0.145976  0.204281  0  4.048631  0
C  C71  1  0.17609177  0.12415972  0.36688575  1  0  0.228554  0  3.774948  0  0  0.217008  0  4.056565  0  0  0.235523  0  4.067747  0  0  0.145993  0.20424  0  4.048672  0
C  C72  1  0.17609504  0.37584083  0.86688436  1  0  0.228561  0  3.775063  0  0  0.216991  0  4.056707  0  0  0.235501  0  4.067897  0  0  0.14598  0.204226  0  4.048805  0
C  C73  1  0.82390570  0.87584294  0.63311358  1  0  0.228632  0  3.774914  0  0  0.217051  0  4.056568  0  0  0.235552  0  4.067771  0  0  0.146011  0.20429  0  4.048669  0
C  C74  1  0.93309464  0.64847500  0.23224945  1  0  0.06137  0  3.698087  0  0  0.072183  0  3.935544  0  0  0.070936  0  3.95658  0  0  0.011917  0.073073  0  3.921366  0
C  C75  1  0.06690782  0.14847622  0.26775207  1  0  0.061436  0  3.698122  0  0  0.072216  0  3.935596  0  0  0.070965  0  3.956624  0  0  0.011887  0.073105  0  3.921411  0
C  C76  1  0.06690878  0.35152521  0.76775122  1  0  0.061374  0  3.698175  0  0  0.072161  0  3.935643  0  0  0.070908  0  3.956678  0  0  0.011879  0.07305  0  3.921459  0
C  C77  1  0.93309083  0.85152481  0.73224816  1  0  0.061415  0  3.698171  0  0  0.072206  0  3.935619  0  0  0.070957  0  3.956653  0  0  0.01191  0.073092  0  3.921443  0
C  C78  1  0.01248892  0.74937040  0.24432979  1  0  -0.062182  0  3.665339  0  0  -0.083493  0  3.917066  0  0  -0.086278  0  3.937712  0  0  -0.070298  -0.0817  0  3.903184  0
C  C79  1  0.98751088  0.24937279  0.25567235  1  0  -0.062167  0  3.665226  0  0  -0.083471  0  3.916904  0  0  -0.086255  0  3.937546  0  0  -0.070247  -0.081677  0  3.903013  0
C  C80  1  0.98751330  0.25062899  0.75567077  1  0  -0.062252  0  3.665284  0  0  -0.083516  0  3.916949  0  0  -0.0863  0  3.937592  0  0  -0.070295  -0.081718  0  3.903053  0
C  C81  1  0.01248540  0.75062824  0.74432844  1  0  -0.062178  0  3.665361  0  0  -0.083446  0  3.917035  0  0  -0.086227  0  3.937671  0  0  -0.070247  -0.081649  0  3.903147  0
C  C82  1  0.11203323  0.77431810  0.33696421  1  0  -0.072532  0  3.691584  0  0  -0.095882  0  3.945322  0  0  -0.095779  0  3.963728  0  0  -0.071592  -0.095763  0  3.932921  0
C  C83  1  0.88796770  0.27432053  0.16303805  1  0  -0.072728  0  3.691591  0  0  -0.096002  0  3.945324  0  0  -0.095903  0  3.963745  0  0  -0.0717  -0.095881  0  3.932911  0
C  C84  1  0.88797019  0.22567966  0.66303646  1  0  -0.072533  0  3.691526  0  0  -0.095881  0  3.945275  0  0  -0.095782  0  3.963695  0  0  -0.071616  -0.095765  0  3.93287  0
C  C85  1  0.11202858  0.72567968  0.83696273  1  0  -0.072665  0  3.691683  0  0  -0.096025  0  3.945412  0  0  -0.09592  0  3.963823  0  0  -0.071679  -0.095909  0  3.933011  0
C  C86  1  0.13471305  0.69518127  0.41621965  1  0  0.075459  0  3.715885  0  0  0.064937  0  3.966449  0  0  0.062356  0  3.989103  0  0  0.07803  0.066405  0  3.951248  0
C  C87  1  0.86528928  0.19518284  0.08378268  1  0  0.075571  0  3.71591  0  0  0.064957  0  3.966465  0  0  0.062373  0  3.989118  0  0  0.078063  0.066431  0  3.951254  0
C  C88  1  0.86529037  0.30481731  0.58378180  1  0  0.075583  0  3.71586  0  0  0.064967  0  3.96644  0  0  0.062381  0  3.989093  0  0  0.078078  0.06644  0  3.951237  0
C  C89  1  0.13470818  0.80481573  0.91621822  1  0  0.075655  0  3.715929  0  0  0.065107  0  3.966437  0  0  0.062526  0  3.989087  0  0  0.078089  0.066576  0  3.951237  0
C  C90  1  0.06225064  0.59284987  0.40447220  1  0  -0.09705  0  3.744927  0  0  -0.122721  0  4.001915  0  0  -0.122729  0  4.020219  0  0  -0.079427  -0.122462  0  3.989551  0
C  C91  1  0.93774959  0.09285218  0.09552906  1  0  -0.096952  0  3.744891  0  0  -0.12262  0  4.001895  0  0  -0.122624  0  4.020197  0  0  -0.0794  -0.122365  0  3.989534  0
C  C92  1  0.93775040  0.40714870  0.59552824  1  0  -0.096945  0  3.744835  0  0  -0.122612  0  4.001835  0  0  -0.122616  0  4.020141  0  0  -0.079394  -0.122356  0  3.989479  0
C  C93  1  0.06224906  0.90714722  0.90447195  1  0  -0.097171  0  3.745025  0  0  -0.122874  0  4.00204  0  0  -0.122876  0  4.020348  0  0  -0.079484  -0.122618  0  3.989676  0
C  C94  1  0.95891376  0.57049520  0.31335539  1  0  -0.081515  0  3.700928  0  0  -0.100002  0  3.947528  0  0  -0.102877  0  3.967744  0  0  -0.079316  -0.098125  0  3.933914  0
C  C95  1  0.04108772  0.07049638  0.18664597  1  0  -0.081654  0  3.701038  0  0  -0.100137  0  3.947644  0  0  -0.103013  0  3.967859  0  0  -0.07936  -0.098255  0  3.93403  0
C  C96  1  0.04108846  0.42950501  0.68664517  1  0  -0.081564  0  3.700929  0  0  -0.100041  0  3.947529  0  0  -0.102916  0  3.967744  0  0  -0.079325  -0.098165  0  3.933924  0
C  C97  1  0.95891212  0.92950383  0.81335514  1  0  -0.081569  0  3.701041  0  0  -0.100049  0  3.947644  0  0  -0.102923  0  3.967858  0  0  -0.079349  -0.098171  0  3.934031  0
C  C98  1  0.63329929  0.82441380  0.95928428  1  0  -0.316337  0  3.735681  0  0  -0.399016  0  3.971849  0  0  -0.400486  0  3.982622  0  0  -0.244797  -0.397679  0  3.964333  0
C  C99  1  0.36669683  0.32441766  0.54071474  1  0  -0.316252  0  3.735798  0  0  -0.398899  0  3.971923  0  0  -0.400361  0  3.982707  0  0  -0.244766  -0.397578  0  3.964421  0
C  C100  1  0.36669580  0.17558314  0.04071483  1  0  -0.316225  0  3.735848  0  0  -0.398872  0  3.971963  0  0  -0.40033  0  3.982748  0  0  -0.244784  -0.397546  0  3.964464  0
C  C101  1  0.63330302  0.67558746  0.45928325  1  0  -0.316333  0  3.73589  0  0  -0.399017  0  3.972053  0  0  -0.400486  0  3.982827  0  0  -0.244801  -0.397681  0  3.964527  0
S  S102  1  0.65927440  0.54617724  0.16095917  1  0  -0.281858  0  2.238368  0  0  -0.239775  0  2.60203  0  0  -0.262845  0  2.601267  0  0  -0.113164  -0.22368  0  2.602266  0
S  S103  1  0.34072239  0.04617733  0.33904251  1  0  -0.281813  0  2.238361  0  0  -0.239746  0  2.602019  0  0  -0.262822  0  2.601249  0  0  -0.113157  -0.22365  0  2.602253  0
S  S104  1  0.34072901  0.45381888  0.83904072  1  0  -0.281813  0  2.238402  0  0  -0.239747  0  2.602079  0  0  -0.262819  0  2.601308  0  0  -0.113166  -0.223653  0  2.602311  0
S  S105  1  0.65927626  0.95382534  0.66095927  1  0  -0.281845  0  2.238349  0  0  -0.239768  0  2.60202  0  0  -0.262839  0  2.601258  0  0  -0.113156  -0.223672  0  2.602254  0
N  N106  1  0.85997826  0.66268478  0.04613554  1  0  -0.365557  0  3.121154  0  0  -0.330994  0  3.394468  0  0  -0.350521  0  3.412358  0  0  -0.311691  -0.317275  0  3.381767  0
N  N107  1  0.14001822  0.16268770  0.45386465  1  0  -0.365464  0  3.121057  0  0  -0.330928  0  3.394363  0  0  -0.35046  0  3.412242  0  0  -0.311678  -0.317211  0  3.381659  0
N  N108  1  0.14001921  0.33731380  0.95386301  1  0  -0.36549  0  3.121106  0  0  -0.330941  0  3.394415  0  0  -0.350472  0  3.412299  0  0  -0.311697  -0.31722  0  3.381704  0
N  N109  1  0.85998044  0.83731578  0.54613557  1  0  -0.365538  0  3.121163  0  0  -0.330974  0  3.394487  0  0  -0.350501  0  3.412374  0  0  -0.311691  -0.317256  0  3.381784  0
N  N110  1  0.23480722  0.71871518  0.51600661  1  0  0.472641  0  3.948108  0  0  0.516385  0  4.224204  0  0  0.536949  0  4.233124  0  0  0.057886  0.502664  0  4.218155  0
N  N111  1  0.76519275  0.21871563  0.98399502  1  0  0.472455  0  3.948097  0  0  0.516397  0  4.223965  0  0  0.536966  0  4.232877  0  0  0.05794  0.502665  0  4.217927  0
N  N112  1  0.76519381  0.28128503  0.48399461  1  0  0.472452  0  3.948291  0  0  0.516423  0  4.224118  0  0  0.536995  0  4.23303  0  0  0.057899  0.502688  0  4.218084  0
N  N113  1  0.23480591  0.78128376  0.01600520  1  0  0.472466  0  3.948145  0  0  0.516351  0  4.224059  0  0  0.536916  0  4.232976  0  0  0.057906  0.502623  0  4.218021  0
O  O114  1  0.25730552  0.64426371  0.58274324  1  0  -0.359716  0  1.758678  0  0  -0.342398  0  1.957445  0  0  -0.354149  0  1.954698  0  0  -0.128416  -0.334667  0  1.959493  0
O  O115  1  0.74269345  0.14426331  0.91726136  1  0  -0.359641  0  1.758616  0  0  -0.342392  0  1.957302  0  0  -0.354143  0  1.954549  0  0  -0.128459  -0.334658  0  1.959352  0
O  O116  1  0.74269670  0.35573650  0.41725966  1  0  -0.359659  0  1.758696  0  0  -0.342423  0  1.957379  0  0  -0.354174  0  1.954625  0  0  -0.128436  -0.334679  0  1.959425  0
O  O117  1  0.25730639  0.85573526  0.08273976  1  0  -0.359624  0  1.758615  0  0  -0.342373  0  1.957344  0  0  -0.354124  0  1.954593  0  0  -0.128434  -0.334631  0  1.959387  0
O  O118  1  0.29193996  0.81191463  0.53001703  1  0  -0.364207  0  1.830148  0  0  -0.352179  0  2.059434  0  0  -0.363384  0  2.054995  0  0  -0.131315  -0.344782  0  2.062597  0
O  O119  1  0.70806213  0.31191515  0.96998333  1  0  -0.364164  0  1.830259  0  0  -0.352202  0  2.059472  0  0  -0.363409  0  2.055034  0  0  -0.131322  -0.344801  0  2.06263  0
O  O120  1  0.70806226  0.18808558  0.46998275  1  0  -0.364163  0  1.830281  0  0  -0.352216  0  2.059498  0  0  -0.363419  0  2.055043  0  0  -0.131327  -0.344814  0  2.062655  0
O  O121  1  0.29193771  0.68808507  0.03001623  1  0  -0.364189  0  1.830283  0  0  -0.352203  0  2.059507  0  0  -0.363411  0  2.055077  0  0  -0.13132  -0.344805  0  2.062673  0
