# generated using pymatgen
data_AgH3(CN2)2
_symmetry_space_group_name_H-M   'P 1'
_cell_length_a   7.80700915
_cell_length_b   7.56010202
_cell_length_c   7.56003715
_cell_angle_alpha   99.70473561
_cell_angle_beta   97.33431398
_cell_angle_gamma   97.33465146
_symmetry_Int_Tables_number   1
_chemical_formula_structural   AgH3(CN2)2
_chemical_formula_sum   'Ag4 H12 C8 N16'
_cell_volume   431.11399975
_cell_formula_units_Z   4
loop_
 _symmetry_equiv_pos_site_id
 _symmetry_equiv_pos_as_xyz
  1  'x, y, z'
loop_
 _atom_site_type_symbol
 _atom_site_label
 _atom_site_symmetry_multiplicity
 _atom_site_fract_x
 _atom_site_fract_y
 _atom_site_fract_z
 _atom_site_occupancy
 _atom_site_hle17_bader_spin_density
 _atom_site_hle17_ddec_charge
 _atom_site_hle17_ddec_spin_density
 _atom_site_hle17_ddec_sum_bond_order
 _atom_site_hle17_magmom
 _atom_site_hse06_10hf_bader_spin_density
 _atom_site_hse06_10hf_ddec_charge
 _atom_site_hse06_10hf_ddec_spin_density
 _atom_site_hse06_10hf_ddec_sum_bond_order
 _atom_site_hse06_10hf_magmom
 _atom_site_hse06_bader_spin_density
 _atom_site_hse06_ddec_charge
 _atom_site_hse06_ddec_spin_density
 _atom_site_hse06_ddec_sum_bond_order
 _atom_site_hse06_magmom
 _atom_site_pbe_bader_spin_density
 _atom_site_pbe_cm5_charge
 _atom_site_pbe_ddec_charge
 _atom_site_pbe_ddec_spin_density
 _atom_site_pbe_ddec_sum_bond_order
 _atom_site_pbe_magmom
Ag  Ag0  1  0.86792512  0.78342614  0.00723741  1  0  0.434872  0  1.654802  0  0  0.282554  0  2.157539  0  0  0.31117  0  2.108389  0  0  0.445901  0.263091  0  2.191366  0
Ag  Ag1  1  0.63208073  0.99276956  0.21656957  1  0  0.434792  0  1.654802  0  0  0.282459  0  2.157538  0  0  0.311074  0  2.108388  0  0  0.445858  0.262991  0  2.191366  0
Ag  Ag2  1  0.13207752  0.21657270  0.99276201  1  0  0.434854  0  1.654764  0  0  0.282497  0  2.157542  0  0  0.311111  0  2.108391  0  0  0.445903  0.26303  0  2.191371  0
Ag  Ag3  1  0.36791804  0.00722930  0.78343070  1  0  0.434794  0  1.654821  0  0  0.282484  0  2.157533  0  0  0.311102  0  2.108382  0  0  0.445871  0.263017  0  2.191365  0
H  H4  1  0.40591766  0.22644481  0.41716088  1  0  0.073992  0  0.971926  0  0  0.088139  0  1.035654  0  0  0.090319  0  1.031793  0  0  0.121152  0.086425  0  1.038632  0
H  H5  1  0.09408468  0.58283863  0.77356275  1  0  0.073997  0  0.971992  0  0  0.088179  0  1.035664  0  0  0.090356  0  1.031807  0  0  0.121155  0.086465  0  1.038641  0
H  H6  1  0.59408863  0.77355263  0.58283614  1  0  0.073997  0  0.971927  0  0  0.088126  0  1.035678  0  0  0.090302  0  1.03182  0  0  0.121172  0.086412  0  1.038654  0
H  H7  1  0.90591045  0.41716163  0.22643990  1  0  0.073976  0  0.972052  0  0  0.088145  0  1.035734  0  0  0.090324  0  1.031874  0  0  0.121162  0.086433  0  1.038706  0
H  H8  1  0.91753238  0.68969918  0.38811302  1  0  0.297223  0  0.912351  0  0  0.288993  0  0.973435  0  0  0.294575  0  0.968163  0  0  0.296152  0.284972  0  0.977243  0
H  H9  1  0.58247458  0.61188313  0.31030365  1  0  0.297206  0  0.91225  0  0  0.288972  0  0.973351  0  0  0.294555  0  0.968078  0  0  0.296112  0.284953  0  0.977149  0
H  H10  1  0.08246769  0.31029969  0.61188740  1  0  0.297213  0  0.912372  0  0  0.288978  0  0.973469  0  0  0.294561  0  0.968195  0  0  0.296134  0.284958  0  0.977274  0
H  H11  1  0.41752676  0.38811571  0.68969561  1  0  0.297194  0  0.912331  0  0  0.288961  0  0.973428  0  0  0.294543  0  0.968157  0  0  0.29612  0.284943  0  0.977224  0
H  H12  1  0.03759567  0.76033760  0.59309905  1  0  0.310053  0  0.909178  0  0  0.299324  0  0.97169  0  0  0.304482  0  0.967878  0  0  0.29803  0.295639  0  0.974434  0
H  H13  1  0.46240631  0.40689736  0.23966426  1  0  0.31001  0  0.909205  0  0  0.299288  0  0.971707  0  0  0.304448  0  0.967893  0  0  0.298015  0.295604  0  0.974451  0
H  H14  1  0.96240788  0.23965856  0.40690141  1  0  0.310121  0  0.909222  0  0  0.299382  0  0.971734  0  0  0.304544  0  0.96792  0  0  0.298052  0.295698  0  0.974477  0
H  H15  1  0.53758990  0.59310152  0.76033701  1  0  0.310039  0  0.909145  0  0  0.299316  0  0.971644  0  0  0.304476  0  0.967834  0  0  0.298007  0.295632  0  0.974389  0
C  C16  1  0.12075493  0.88151857  0.39749748  1  0  0.553633  0  3.837565  0  0  0.514815  0  4.105052  0  0  0.535456  0  4.118569  0  0  0.303922  0.500889  0  4.09557  0
C  C17  1  0.37925137  0.60249855  0.11848689  1  0  0.553694  0  3.837549  0  0  0.514732  0  4.105208  0  0  0.535374  0  4.118726  0  0  0.303955  0.500805  0  4.095729  0
C  C18  1  0.87924532  0.11848163  0.60250184  1  0  0.553665  0  3.837494  0  0  0.514823  0  4.105004  0  0  0.535463  0  4.118525  0  0  0.303929  0.500897  0  4.095524  0
C  C19  1  0.62074760  0.39750167  0.88151360  1  0  0.553725  0  3.837528  0  0  0.514774  0  4.105179  0  0  0.535415  0  4.118699  0  0  0.303959  0.500845  0  4.095704  0
C  C20  1  0.29805882  0.11470917  0.38258753  1  0  0.156467  0  3.831071  0  0  0.106205  0  4.102764  0  0  0.12005  0  4.115914  0  0  0.108421  0.097045  0  4.093808  0
C  C21  1  0.20194017  0.61741139  0.88529582  1  0  0.156501  0  3.830754  0  0  0.106217  0  4.102449  0  0  0.120063  0  4.115603  0  0  0.108426  0.097057  0  4.093498  0
C  C22  1  0.70194422  0.88529242  0.61741366  1  0  0.15651  0  3.831043  0  0  0.106261  0  4.102746  0  0  0.120107  0  4.115896  0  0  0.108406  0.0971  0  4.093794  0
C  C23  1  0.79805495  0.38258888  0.11470684  1  0  0.156491  0  3.830953  0  0  0.106215  0  4.102661  0  0  0.120059  0  4.115812  0  0  0.108354  0.097057  0  4.093705  0
N  N24  1  0.06984910  0.92758407  0.23749220  1  0  -0.380082  0  3.173112  0  0  -0.308617  0  3.470327  0  0  -0.328458  0  3.484618  0  0  -0.294302  -0.295309  0  3.460551  0
N  N25  1  0.43015603  0.76250724  0.07241792  1  0  -0.379969  0  3.172894  0  0  -0.30843  0  3.470092  0  0  -0.328271  0  3.484384  0  0  -0.294249  -0.29512  0  3.460316  0
N  N26  1  0.93015264  0.07241749  0.76250750  1  0  -0.379969  0  3.173032  0  0  -0.308464  0  3.470205  0  0  -0.328305  0  3.4845  0  0  -0.294235  -0.295156  0  3.460431  0
N  N27  1  0.56984381  0.23749021  0.92757962  1  0  -0.380027  0  3.172903  0  0  -0.308487  0  3.470089  0  0  -0.328328  0  3.484381  0  0  -0.29427  -0.295177  0  3.460316  0
N  N28  1  0.18550581  0.08001965  0.22865569  1  0  -0.270013  0  3.286072  0  0  -0.202911  0  3.593667  0  0  -0.218155  0  3.608679  0  0  -0.28796  -0.19262  0  3.583325  0
N  N29  1  0.31449554  0.77134418  0.91998693  1  0  -0.270148  0  3.285923  0  0  -0.203079  0  3.593563  0  0  -0.218325  0  3.608576  0  0  -0.287996  -0.19279  0  3.583226  0
N  N30  1  0.81449483  0.91998326  0.77134408  1  0  -0.270109  0  3.286153  0  0  -0.203049  0  3.593794  0  0  -0.218293  0  3.608804  0  0  -0.288014  -0.19276  0  3.583457  0
N  N31  1  0.68550212  0.22865601  0.08001207  1  0  -0.270059  0  3.286031  0  0  -0.20298  0  3.593646  0  0  -0.218225  0  3.608658  0  0  -0.287924  -0.192691  0  3.583307  0
N  N32  1  0.26324376  0.99500708  0.49361016  1  0  -0.493818  0  3.22733  0  0  -0.410298  0  3.525096  0  0  -0.434827  0  3.534768  0  0  -0.388338  -0.393686  0  3.518122  0
N  N33  1  0.23675815  0.50638876  0.00499990  1  0  -0.493903  0  3.227178  0  0  -0.4103  0  3.524962  0  0  -0.43483  0  3.534636  0  0  -0.388377  -0.39369  0  3.517991  0
N  N34  1  0.73675778  0.00499312  0.50638932  1  0  -0.493863  0  3.227321  0  0  -0.410307  0  3.525064  0  0  -0.434836  0  3.534737  0  0  -0.388327  -0.393694  0  3.518091  0
N  N35  1  0.76323717  0.49361286  0.99500299  1  0  -0.493929  0  3.227268  0  0  -0.410335  0  3.525049  0  0  -0.434865  0  3.534725  0  0  -0.388348  -0.393724  0  3.518078  0
N  N36  1  0.04031191  0.73407728  0.45694339  1  0  -0.682288  0  3.020361  0  0  -0.658177  0  3.247506  0  0  -0.674582  0  3.244461  0  0  -0.602986  -0.646419  0  3.249284  0
N  N37  1  0.45968919  0.54305802  0.26592396  1  0  -0.682205  0  3.020384  0  0  -0.658048  0  3.247565  0  0  -0.674454  0  3.244522  0  0  -0.60291  -0.646288  0  3.249343  0
N  N38  1  0.95968723  0.26592424  0.54305466  1  0  -0.682401  0  3.020413  0  0  -0.658275  0  3.24756  0  0  -0.674684  0  3.244514  0  0  -0.603012  -0.646515  0  3.249339  0
N  N39  1  0.54030978  0.45694220  0.73407653  1  0  -0.682237  0  3.02038  0  0  -0.65808  0  3.247558  0  0  -0.674489  0  3.244516  0  0  -0.602917  -0.64632  0  3.249338  0
