# generated using pymatgen
data_SmH15C26(NO5)2
_symmetry_space_group_name_H-M   'P 1'
_cell_length_a   7.67799467
_cell_length_b   10.73112999
_cell_length_c   14.42800000
_cell_angle_alpha   75.35428408
_cell_angle_beta   84.56675705
_cell_angle_gamma   75.88955423
_symmetry_Int_Tables_number   1
_chemical_formula_structural   SmH15C26(NO5)2
_chemical_formula_sum   'Sm2 H30 C52 N4 O20'
_cell_volume   1114.75360298
_cell_formula_units_Z   2
loop_
 _symmetry_equiv_pos_site_id
 _symmetry_equiv_pos_as_xyz
  1  'x, y, z'
loop_
 _atom_site_type_symbol
 _atom_site_label
 _atom_site_symmetry_multiplicity
 _atom_site_fract_x
 _atom_site_fract_y
 _atom_site_fract_z
 _atom_site_occupancy
 _atom_site_hle17_bader_spin_density
 _atom_site_hle17_ddec_charge
 _atom_site_hle17_ddec_spin_density
 _atom_site_hle17_ddec_sum_bond_order
 _atom_site_hle17_magmom
 _atom_site_hse06_10hf_bader_spin_density
 _atom_site_hse06_10hf_ddec_charge
 _atom_site_hse06_10hf_ddec_spin_density
 _atom_site_hse06_10hf_ddec_sum_bond_order
 _atom_site_hse06_10hf_magmom
 _atom_site_hse06_bader_spin_density
 _atom_site_hse06_ddec_charge
 _atom_site_hse06_ddec_spin_density
 _atom_site_hse06_ddec_sum_bond_order
 _atom_site_hse06_magmom
 _atom_site_pbe_bader_charge
 _atom_site_pbe_bader_spin_density
 _atom_site_pbe_cm5_charge
 _atom_site_pbe_ddec_charge
 _atom_site_pbe_ddec_spin_density
 _atom_site_pbe_ddec_sum_bond_order
 _atom_site_pbe_magmom
Sm  Sm0  1  0.69903701  0.08770466  0.33475705  1  0  2.286695  0  1.655158  0  0  2.139288  0  2.12552  0  0  2.243258  0  1.969881  0  2.238194  0  1.514162  2.104377  0  2.159571  0
Sm  Sm1  1  0.30096426  0.91229570  0.66524337  1  0  2.286693  0  1.65511  0  0  2.139274  0  2.12549  0  0  2.243255  0  1.969831  0  2.238155  0  1.514162  2.104361  0  2.159543  0
H  H2  1  0.99679843  0.22520872  0.10852832  1  0  0.396843  0  0.928861  0  0  0.366342  0  0.992965  0  0  0.379486  0  0.974838  0  0.642477  0  0.296203  0.357352  0  1.005269  0
H  H3  1  0.00320446  0.77479066  0.89147013  1  0  0.396828  0  0.928875  0  0  0.36632  0  0.992996  0  0  0.379465  0  0.974867  0  0.642438  0  0.29619  0.357331  0  1.0053  0
H  H4  1  0.11867765  0.78407406  0.19606001  1  0  0.119913  0  0.967438  0  0  0.126064  0  1.036061  0  0  0.129925  0  1.033467  0  0.12486  0  0.11337  0.12332  0  1.037862  0
H  H5  1  0.88132262  0.21592531  0.80393996  1  0  0.11992  0  0.967439  0  0  0.126068  0  1.036061  0  0  0.129929  0  1.033468  0  0.124852  0  0.113367  0.123324  0  1.037863  0
H  H6  1  0.46166918  0.80427517  0.94016000  1  0  0.12593  0  0.951368  0  0  0.137368  0  1.007577  0  0  0.140722  0  1.005888  0  0.122019  0  0.116819  0.134928  0  1.008965  0
H  H7  1  0.53833301  0.19572223  0.05983954  1  0  0.125958  0  0.951364  0  0  0.137391  0  1.007569  0  0  0.140745  0  1.005878  0  0.122063  0  0.116818  0.13495  0  1.008958  0
H  H8  1  0.35680422  0.04655356  0.90183334  1  0  0.118412  0  0.945551  0  0  0.125389  0  1.006609  0  0  0.129512  0  1.004177  0  0.147338  0  0.115429  0.122445  0  1.008363  0
H  H9  1  0.64319797  0.95344384  0.09816551  1  0  0.118354  0  0.945585  0  0  0.125341  0  1.006647  0  0  0.129462  0  1.004216  0  0.147352  0  0.115431  0.122395  0  1.008404  0
H  H10  1  0.09045263  0.61279597  0.12715468  1  0  0.10728  0  0.964342  0  0  0.113433  0  1.030645  0  0  0.116971  0  1.026701  0  0.174072  0  0.125781  0.110887  0  1.033423  0
H  H11  1  0.90954865  0.38720440  0.87284574  1  0  0.107294  0  0.964315  0  0  0.113453  0  1.030601  0  0  0.11699  0  1.02666  0  0.174069  0  0.125785  0.110907  0  1.033379  0
H  H12  1  0.18326172  0.36889281  0.19366176  1  0  0.142741  0  0.922587  0  0  0.15524  0  0.97198  0  0  0.159041  0  0.971406  0  0.1023  0  0.119917  0.152493  0  0.972607  0
H  H13  1  0.81673563  0.63110755  0.80634094  1  0  0.142778  0  0.922628  0  0  0.155276  0  0.972011  0  0  0.159075  0  0.971439  0  0.102336  0  0.119942  0.152529  0  0.972638  0
H  H14  1  0.73802470  0.39986026  0.13486603  1  0  0.14572  0  0.92755  0  0  0.15838  0  0.978193  0  0  0.16241  0  0.976997  0  0.110388  0  0.122111  0.15555  0  0.97923  0
H  H15  1  0.26197196  0.60013813  0.86513361  1  0  0.145773  0  0.92748  0  0  0.158437  0  0.978114  0  0  0.162467  0  0.976917  0  0.110845  0  0.122166  0.155607  0  0.979151  0
H  H16  1  0.62679719  0.64176804  0.07477177  1  0  0.108585  0  0.982759  0  0  0.115628  0  1.047325  0  0  0.118809  0  1.044338  0  0.180448  0  0.125128  0.113244  0  1.049534  0
H  H17  1  0.37320439  0.35823134  0.92522674  1  0  0.108603  0  0.982755  0  0  0.115646  0  1.047317  0  0  0.118829  0  1.044327  0  0.180489  0  0.12514  0.113262  0  1.049528  0
H  H18  1  0.41761435  0.38646145  0.43711668  1  0  0.128489  0  0.9381  0  0  0.137693  0  0.998822  0  0  0.141804  0  0.996453  0  0.088229  0  0.11707  0.134724  0  1.000631  0
H  H19  1  0.58238369  0.61354090  0.56288354  1  0  0.128492  0  0.938076  0  0  0.137695  0  0.998792  0  0  0.141808  0  0.996427  0  0.088203  0  0.117067  0.134724  0  1.000604  0
H  H20  1  0.94412536  0.68544181  0.33269208  1  0  0.126553  0  0.941623  0  0  0.136008  0  1.003463  0  0  0.140012  0  1.000474  0  0.139777  0  0.117513  0.133149  0  1.005658  0
H  H21  1  0.05587300  0.31455955  0.66730692  1  0  0.126546  0  0.941604  0  0  0.136005  0  1.003429  0  0  0.140009  0  1.00044  0  0.139806  0  0.117507  0.133146  0  1.005624  0
H  H22  1  0.78742875  0.50506728  0.33893921  1  0  0.094289  0  0.988256  0  0  0.103815  0  1.052287  0  0  0.106579  0  1.050703  0  0.085464  0  0.102546  0.101808  0  1.053379  0
H  H23  1  0.21256991  0.49493309  0.66106065  1  0  0.094314  0  0.988209  0  0  0.103838  0  1.052246  0  0  0.106603  0  1.050662  0  0.085485  0  0.102568  0.101831  0  1.053338  0
H  H24  1  0.50719818  0.53617916  0.30835992  1  0  0.098481  0  0.956663  0  0  0.107529  0  1.022924  0  0  0.110267  0  1.020191  0  0.112961  0  0.125586  0.105302  0  1.025236  0
H  H25  1  0.49279917  0.46382121  0.69164139  1  0  0.098464  0  0.95666  0  0  0.107527  0  1.022906  0  0  0.110283  0  1.020152  0  0.112625  0  0.125592  0.105298  0  1.025218  0
H  H26  1  0.66708420  0.72214115  0.25613698  1  0  0.145747  0  0.940966  0  0  0.156563  0  0.996855  0  0  0.160583  0  0.99504  0  0.129571  0  0.118405  0.153779  0  0.998094  0
H  H27  1  0.33291638  0.27785724  0.74386454  1  0  0.145761  0  0.940919  0  0  0.156576  0  0.996818  0  0  0.160597  0  0.995001  0  0.129558  0  0.118396  0.153794  0  0.998055  0
H  H28  1  0.22430880  0.96265898  0.38917663  1  0  0.160892  0  0.93967  0  0  0.168178  0  0.997718  0  0  0.17319  0  0.995235  0  0.179786  0  0.129349  0.16478  0  0.999412  0
H  H29  1  0.77569148  0.03734039  0.61082334  1  0  0.160897  0  0.939652  0  0  0.168162  0  0.997722  0  0  0.173173  0  0.995243  0  0.179789  0  0.129346  0.164764  0  0.999415  0
H  H30  1  0.07571783  0.77512998  0.42696654  1  0  0.105826  0  0.963639  0  0  0.111488  0  1.032593  0  0  0.114965  0  1.028865  0  0.169152  0  0.130076  0.108951  0  1.035249  0
H  H31  1  0.92427922  0.22487138  0.57303321  1  0  0.10586  0  0.963592  0  0  0.111495  0  1.032572  0  0  0.114973  0  1.028841  0  0.16919  0  0.130058  0.108946  0  1.035241  0
C  C32  1  0.98309498  0.02551354  0.18645666  1  0  0.647151  0  3.891879  0  0  0.599695  0  4.184708  0  0  0.632381  0  4.183087  0  1.573124  0  0.214499  0.577035  0  4.189034  0
C  C33  1  0.01690730  0.97448781  0.81354283  1  0  0.647254  0  3.89172  0  0  0.599807  0  4.184539  0  0  0.632494  0  4.182918  0  1.572858  0  0.214561  0.577147  0  4.188866  0
C  C34  1  0.11761798  0.97865169  0.11215288  1  0  -0.052431  0  3.677456  0  0  -0.032617  0  3.904978  0  0  -0.037322  0  3.926784  0  0.003944  0  -0.004762  -0.029338  0  3.889993  0
C  C35  1  0.88238260  0.02134670  0.88784587  1  0  -0.052505  0  3.677405  0  0  -0.032683  0  3.90495  0  0  -0.037391  0  3.926758  0  0.00395  0  -0.004788  -0.029399  0  3.889966  0
C  C36  1  0.17524491  0.84057781  0.13189211  1  0  -0.140068  0  3.71022  0  0  -0.17647  0  3.967906  0  0  -0.179389  0  3.988591  0  -0.01978  0  -0.079919  -0.174265  0  3.953589  0
C  C37  1  0.82475536  0.15942157  0.86810785  1  0  -0.140101  0  3.710196  0  0  -0.176479  0  3.967876  0  0  -0.179401  0  3.988564  0  -0.019792  0  -0.079915  -0.174276  0  3.953559  0
C  C38  1  0.29894291  0.77713822  0.07235308  1  0  0.17902  0  3.759389  0  0  0.171598  0  4.014332  0  0  0.176894  0  4.03609  0  0.333613  0  0.100034  0.167971  0  3.999628  0
C  C39  1  0.70105837  0.22286215  0.92764596  1  0  0.179217  0  3.759234  0  0  0.171756  0  4.014208  0  0  0.177053  0  4.035967  0  0.333581  0  0.100139  0.168129  0  3.999506  0
C  C40  1  0.36776057  0.85115916  0.98942063  1  0  -0.11159  0  3.675778  0  0  -0.140044  0  3.937269  0  0  -0.141599  0  3.954228  0  -0.034375  0  -0.073701  -0.139101  0  3.925865  0
C  C41  1  0.63223739  0.14883923  0.01057618  1  0  -0.111703  0  3.675704  0  0  -0.140125  0  3.937197  0  0  -0.14168  0  3.954155  0  -0.034325  0  -0.073731  -0.139183  0  3.925792  0
C  C42  1  0.30877315  0.98798358  0.96798395  1  0  -0.042779  0  3.716753  0  0  -0.066422  0  3.973569  0  0  -0.067203  0  3.993357  0  -0.01912  0  -0.070728  -0.065804  0  3.960252  0
C  C43  1  0.69122612  0.01201481  0.03201418  1  0  -0.042695  0  3.716688  0  0  -0.066342  0  3.973523  0  0  -0.067126  0  3.993314  0  -0.019208  0  -0.070766  -0.065719  0  3.960202  0
C  C44  1  0.18567981  0.05525824  0.02749032  1  0  -0.090477  0  3.684674  0  0  -0.078254  0  3.919505  0  0  -0.084638  0  3.942838  0  -0.032788  0  -0.008483  -0.074236  0  3.904087  0
C  C45  1  0.81432107  0.94473916  0.97250860  1  0  -0.090391  0  3.684602  0  0  -0.078243  0  3.919504  0  0  -0.084622  0  3.942838  0  -0.032706  0  -0.008459  -0.074236  0  3.904102  0
C  C46  1  0.13913313  0.20395205  0.98918095  1  0  0.634271  0  3.846886  0  0  0.5834  0  4.156237  0  0  0.616033  0  4.147924  0  1.556908  0  0.220914  0.561131  0  4.161539  0
C  C47  1  0.86087037  0.79604535  0.01081853  1  0  0.634097  0  3.847222  0  0  0.583291  0  4.156503  0  0  0.615922  0  4.148197  0  1.557291  0  0.220868  0.561026  0  4.161801  0
C  C48  1  0.23116197  0.56021076  0.13213962  1  0  0.095764  0  3.655354  0  0  0.052581  0  3.913512  0  0  0.064388  0  3.927014  0  0.278247  0  0.046195  0.044807  0  3.904332  0
C  C49  1  0.76883800  0.43978960  0.86786226  1  0  0.095718  0  3.655287  0  0  0.052519  0  3.913467  0  0  0.064337  0  3.926952  0  0.278275  0  0.046172  0.044745  0  3.904286  0
C  C50  1  0.28392755  0.42668460  0.16785507  1  0  -0.235411  0  3.67505  0  0  -0.254234  0  3.932066  0  0  -0.26773  0  3.950667  0  0.058941  0  -0.093524  -0.245375  0  3.919405  0
C  C51  1  0.71607341  0.57331675  0.83214587  1  0  -0.235422  0  3.675053  0  0  -0.254261  0  3.932051  0  0  -0.267758  0  3.950651  0  0.058888  0  -0.093547  -0.245402  0  3.91939  0
C  C52  1  0.47040652  0.36101023  0.17406264  1  0  0.455924  0  3.880488  0  0  0.441052  0  4.147489  0  0  0.46553  0  4.154793  0  0.825042  0  0.123413  0.425043  0  4.143309  0
C  C53  1  0.52959245  0.63898915  0.82593809  1  0  0.455904  0  3.880486  0  0  0.441095  0  4.147395  0  0  0.465573  0  4.154701  0  0.825031  0  0.123423  0.425086  0  4.143213  0
C  C54  1  0.59434097  0.44293650  0.13415492  1  0  -0.243644  0  3.672714  0  0  -0.264474  0  3.934223  0  0  -0.2775  0  3.95178  0  0.034636  0  -0.094339  -0.256283  0  3.922361  0
C  C55  1  0.40565730  0.55706089  0.86584621  1  0  -0.243697  0  3.672874  0  0  -0.264548  0  3.934364  0  0  -0.277573  0  3.951923  0  0.034089  0  -0.094385  -0.256357  0  3.922502  0
C  C56  1  0.53488965  0.57611345  0.09869855  1  0  0.085692  0  3.667818  0  0  0.041283  0  3.930038  0  0  0.052486  0  3.944685  0  0.292864  0  0.043773  0.03445  0  3.919523  0
C  C57  1  0.46511031  0.42388692  0.90130125  1  0  0.085692  0  3.667954  0  0  0.041281  0  3.930177  0  0  0.052481  0  3.944828  0  0.292955  0  0.043768  0.034446  0  3.919663  0
C  C58  1  0.28997661  0.17503439  0.46772258  1  0  0.742568  0  3.846467  0  0  0.698917  0  4.133093  0  0  0.734655  0  4.122798  0  1.653953  0  0.247056  0.674485  0  4.14186  0
C  C59  1  0.71002113  0.82496894  0.53227816  1  0  0.742702  0  3.846015  0  0  0.699138  0  4.132494  0  0  0.734863  0  4.122217  0  1.656859  0  0.247133  0.674673  0  4.141327  0
C  C60  1  0.18705175  0.31331701  0.42267527  1  0  -0.02234  0  3.655965  0  0  -0.008937  0  3.885727  0  0  -0.010236  0  3.90304  0  0.007929  0  0.009271  -0.007921  0  3.873539  0
C  C61  1  0.81294498  0.68668533  0.57732431  1  0  -0.022457  0  3.656033  0  0  -0.009085  0  3.885768  0  0  -0.010382  0  3.903085  0  0.007882  0  0.009252  -0.00805  0  3.873572  0
C  C62  1  0.27783846  0.41383682  0.41641872  1  0  -0.162837  0  3.688557  0  0  -0.193673  0  3.94209  0  0  -0.197954  0  3.961042  0  0.036809  0  -0.081058  -0.19085  0  3.929082  0
C  C63  1  0.72215828  0.58616553  0.58358156  1  0  -0.162776  0  3.688464  0  0  -0.193586  0  3.941994  0  0  -0.197873  0  3.960956  0  0.036788  0  -0.081016  -0.190764  0  3.928979  0
C  C64  1  0.19107228  0.54640239  0.38397917  1  0  0.1769  0  3.78572  0  0  0.167373  0  4.0418  0  0  0.173572  0  4.064961  0  0.268177  0  0.094786  0.163468  0  4.025795  0
C  C65  1  0.80892446  0.45359996  0.61602042  1  0  0.176892  0  3.785669  0  0  0.167305  0  4.04182  0  0  0.173503  0  4.064986  0  0.268187  0  0.094778  0.1634  0  4.025814  0
C  C66  1  0.01158174  0.58170585  0.35842894  1  0  -0.152479  0  3.730875  0  0  -0.178092  0  3.994282  0  0  -0.182386  0  4.013807  0  -0.007304  0  -0.088226  -0.175217  0  3.980822  0
C  C67  1  0.98841792  0.41829551  0.64157068  1  0  -0.152484  0  3.730953  0  0  -0.17805  0  3.994329  0  0  -0.182347  0  4.013859  0  -0.007356  0  -0.088236  -0.175175  0  3.980869  0
C  C68  1  0.92445962  0.48143535  0.36204420  1  0  -0.042106  0  3.741201  0  0  -0.064907  0  3.989423  0  0  -0.06375  0  4.009089  0  -0.044534  0  -0.07915  -0.065391  0  3.975562  0
C  C69  1  0.07553903  0.51856502  0.63795428  1  0  -0.042156  0  3.74129  0  0  -0.064981  0  3.989516  0  0  -0.063824  0  4.009184  0  -0.044482  0  -0.079202  -0.065466  0  3.975656  0
C  C70  1  0.00857547  0.34725230  0.39220994  1  0  -0.079019  0  3.700554  0  0  -0.065783  0  3.933129  0  0  -0.072304  0  3.953119  0  -0.07699  0  -0.012317  -0.061343  0  3.918982  0
C  C71  1  0.99142419  0.65274905  0.60778968  1  0  -0.078938  0  3.700505  0  0  -0.065674  0  3.933034  0  0  -0.072196  0  3.953024  0  -0.07696  0  -0.012282  -0.061236  0  3.918884  0
C  C72  1  0.90288953  0.25019399  0.38290035  1  0  0.62541  0  3.963857  0  0  0.581853  0  4.259518  0  0  0.614123  0  4.258714  0  1.56446  0  0.187318  0.559474  0  4.263228  0
C  C73  1  0.09711044  0.74980638  0.61710014  1  0  0.625376  0  3.963999  0  0  0.581819  0  4.259639  0  0  0.614089  0  4.258839  0  1.564891  0  0.187312  0.559439  0  4.263348  0
C  C74  1  0.45412384  0.63256872  0.32431457  1  0  0.08322  0  3.68274  0  0  0.038451  0  3.942366  0  0  0.050119  0  3.956273  0  0.292784  0  0.039865  0.030978  0  3.932879  0
C  C75  1  0.54587351  0.36743165  0.67568605  1  0  0.08333  0  3.682817  0  0  0.038557  0  3.942424  0  0  0.050212  0  3.956325  0  0.293108  0  0.03988  0.031083  0  3.932941  0
C  C76  1  0.54042241  0.73401053  0.29743085  1  0  -0.247722  0  3.668606  0  0  -0.265343  0  3.922644  0  0  -0.278261  0  3.940254  0  0.037605  0  -0.096603  -0.25664  0  3.910201  0
C  C77  1  0.45957786  0.26598884  0.70257050  1  0  -0.247767  0  3.668629  0  0  -0.265403  0  3.922666  0  0  -0.278324  0  3.94028  0  0.037599  0  -0.096592  -0.256687  0  3.910213  0
C  C78  1  0.46159583  0.86007950  0.31851465  1  0  0.473992  0  3.860704  0  0  0.462472  0  4.115719  0  0  0.487096  0  4.123435  0  0.814731  0  0.130525  0.446076  0  4.111561  0
C  C79  1  0.53840445  0.13991988  0.68148739  1  0  0.473963  0  3.860832  0  0  0.462461  0  4.115805  0  0  0.487089  0  4.123514  0  0.814732  0  0.130529  0.446052  0  4.111673  0
C  C80  1  0.29263449  0.87001484  0.37070465  1  0  -0.228909  0  3.626991  0  0  -0.248787  0  3.882571  0  0  -0.261616  0  3.898751  0  0.008347  0  -0.080916  -0.240853  0  3.871841  0
C  C81  1  0.70736547  0.12998553  0.62929653  1  0  -0.228914  0  3.627055  0  0  -0.248756  0  3.882607  0  0  -0.261586  0  3.898786  0  0.008305  0  -0.080902  -0.240819  0  3.871879  0
C  C82  1  0.20945225  0.76680518  0.39284558  1  0  0.111009  0  3.638005  0  0  0.067919  0  3.896308  0  0  0.079161  0  3.910533  0  0.314894  0  0.054288  0.060427  0  3.887521  0
C  C83  1  0.79054610  0.23319617  0.60715480  1  0  0.111025  0  3.638006  0  0  0.067934  0  3.896333  0  0  0.079175  0  3.910556  0  0.314947  0  0.054295  0.06045  0  3.88755  0
N  N84  1  0.35535111  0.63554744  0.09896632  1  0  -0.089574  0  3.589363  0  0  0.000304  0  3.798784  0  0  -0.017525  0  3.826194  0  -1.307261  0  -0.219968  0.01228  0  3.779914  0
N  N85  1  0.64464916  0.36445193  0.90103434  1  0  -0.089644  0  3.589356  0  0  0.00024  0  3.798797  0  0  -0.017591  0  3.826208  0  -1.307265  0  -0.220021  0.012216  0  3.779927  0
N  N86  1  0.28855341  0.64817165  0.37068859  1  0  -0.092793  0  3.578967  0  0  -0.00103  0  3.787089  0  0  -0.01859  0  3.81232  0  -1.273703  0  -0.222145  0.010368  0  3.769618  0
N  N87  1  0.71144363  0.35182970  0.62931117  1  0  -0.092913  0  3.579074  0  0  -0.001128  0  3.787218  0  0  -0.018685  0  3.812446  0  -1.27369  0  -0.222162  0.01027  0  3.769746  0
O  O88  1  0.21886314  0.11117337  0.54171563  1  0  -0.713267  0  2.000586  0  0  -0.666137  0  2.25317  0  0  -0.699513  0  2.238576  0  -1.197262  0  -0.380489  -0.648141  0  2.260788  0
O  O89  1  0.78113529  0.88883195  0.45828608  1  0  -0.713358  0  2.000391  0  0  -0.666254  0  2.25291  0  0  -0.699621  0  2.238317  0  -1.200095  0  -0.380624  -0.64825  0  2.260554  0
O  O90  1  0.44566273  0.13757430  0.43272992  1  0  -0.752091  0  2.070673  0  0  -0.707239  0  2.339213  0  0  -0.741201  0  2.322682  0  -1.212435  0  -0.403714  -0.689721  0  2.348314  0
O  O91  1  0.55433331  0.86242607  0.56727076  1  0  -0.752053  0  2.070387  0  0  -0.707235  0  2.3389  0  0  -0.741188  0  2.322363  0  -1.212537  0  -0.403657  -0.689707  0  2.348021  0
O  O92  1  0.97679216  0.12842741  0.39112596  1  0  -0.663015  0  1.965072  0  0  -0.618492  0  2.200636  0  0  -0.647169  0  2.191983  0  -1.175721  0  -0.356037  -0.602302  0  2.205451  0
O  O93  1  0.02320750  0.87157395  0.60887367  1  0  -0.663016  0  1.965098  0  0  -0.618501  0  2.20067  0  0  -0.64718  0  2.192019  0  -1.175757  0  -0.356038  -0.60231  0  2.205485  0
O  O94  1  0.73605798  0.29605110  0.36271691  1  0  -0.728249  0  1.96927  0  0  -0.68495  0  2.217893  0  0  -0.715852  0  2.209335  0  -1.197846  0  -0.398582  -0.667255  0  2.222917  0
O  O95  1  0.26394068  0.70394927  0.63728364  1  0  -0.72825  0  1.969355  0  0  -0.684946  0  2.217963  0  0  -0.715851  0  2.209408  0  -1.198222  0  -0.398587  -0.667251  0  2.222986  0
O  O96  1  0.53653539  0.95764036  0.28995142  1  0  -0.690805  0  2.045958  0  0  -0.640104  0  2.294534  0  0  -0.671708  0  2.281777  0  -1.186403  0  -0.420848  -0.623758  0  2.300748  0
O  O97  1  0.46346781  0.04235802  0.71005135  1  0  -0.690783  0  2.04603  0  0  -0.640091  0  2.2946  0  0  -0.671699  0  2.28184  0  -1.18642  0  -0.420853  -0.623742  0  2.300824  0
O  O98  1  0.92777363  0.14929035  0.18578561  1  0  -0.667031  0  2.083443  0  0  -0.6117  0  2.309529  0  0  -0.641444  0  2.298482  0  -1.185738  0  -0.33459  -0.594479  0  2.316753  0
O  O99  1  0.07222895  0.85071002  0.81421266  1  0  -0.667085  0  2.083366  0  0  -0.611761  0  2.309463  0  0  -0.641508  0  2.298415  0  -1.185774  0  -0.334629  -0.594541  0  2.316688  0
O  O100  1  0.92341325  0.94040314  0.25049064  1  0  -0.661767  0  2.017871  0  0  -0.619105  0  2.268545  0  0  -0.648039  0  2.259696  0  -1.184136  0  -0.355457  -0.60332  0  2.274102  0
O  O101  1  0.07658964  0.05959624  0.74950988  1  0  -0.661819  0  2.01785  0  0  -0.619149  0  2.268496  0  0  -0.648083  0  2.259648  0  -1.183868  0  -0.355505  -0.603364  0  2.274055  0
O  O102  1  0.04616098  0.28124751  0.04297890  1  0  -0.558659  0  2.076474  0  0  -0.510781  0  2.287756  0  0  -0.532748  0  2.270606  0  -1.180596  0  -0.336297  -0.495388  0  2.2993  0
O  O103  1  0.95384483  0.71875088  0.95702028  1  0  -0.558602  0  2.076547  0  0  -0.510724  0  2.287797  0  0  -0.532688  0  2.270646  0  -1.180625  0  -0.336266  -0.495328  0  2.299333  0
O  O104  1  0.19071684  0.25281064  0.90679961  1  0  -0.561291  0  1.9393  0  0  -0.520556  0  2.162161  0  0  -0.540439  0  2.153168  0  -1.17024  0  -0.29772  -0.50686  0  2.168009  0
O  O105  1  0.80929059  0.74718676  0.09319968  1  0  -0.561193  0  1.939484  0  0  -0.520481  0  2.162315  0  0  -0.540359  0  2.153321  0  -1.17055  0  -0.297659  -0.506784  0  2.168162  0
O  O106  1  0.52043427  0.23731850  0.21231392  1  0  -0.692971  0  2.048941  0  0  -0.647184  0  2.303521  0  0  -0.677875  0  2.290668  0  -1.197849  0  -0.411822  -0.631253  0  2.30993  0
O  O107  1  0.47956439  0.76268186  0.78768664  1  0  -0.692972  0  2.048849  0  0  -0.647208  0  2.303404  0  0  -0.6779  0  2.290548  0  -1.197801  0  -0.411832  -0.631275  0  2.30981  0
