# generated using pymatgen
data_CdPH13C19NO6
_symmetry_space_group_name_H-M   'P 1'
_cell_length_a   9.71286539
_cell_length_b   9.72895531
_cell_length_c   10.04455326
_cell_angle_alpha   74.79109897
_cell_angle_beta   87.86685739
_cell_angle_gamma   76.96758048
_symmetry_Int_Tables_number   1
_chemical_formula_structural   CdPH13C19NO6
_chemical_formula_sum   'Cd2 P2 H26 C38 N2 O12'
_cell_volume   892.09164619
_cell_formula_units_Z   2
loop_
 _symmetry_equiv_pos_site_id
 _symmetry_equiv_pos_as_xyz
  1  'x, y, z'
loop_
 _atom_site_type_symbol
 _atom_site_label
 _atom_site_symmetry_multiplicity
 _atom_site_fract_x
 _atom_site_fract_y
 _atom_site_fract_z
 _atom_site_occupancy
 _atom_site_pbe_bader_spin_density
 _atom_site_pbe_cm5_charge
 _atom_site_pbe_ddec_charge
 _atom_site_pbe_ddec_spin_density
 _atom_site_pbe_ddec_sum_bond_order
 _atom_site_pbe_magmom
Cd  Cd0  1  0.27290044  0.04668246  0.89736368  1  0  0.805533  1.053141  0  2.145319  0
Cd  Cd1  1  0.72709880  0.95331775  0.10263692  1  0  0.805541  1.053152  0  2.145288  0
P  P2  1  0.07840204  0.76891092  0.12311320  1  0  0.301054  1.042138  0  5.177112  0
P  P3  1  0.92159926  0.23108929  0.87688731  1  0  0.301107  1.042221  0  5.176947  0
H  H4  1  0.14785817  0.81358827  0.87667406  1  0  0.302004  0.362007  0  0.976937  0
H  H5  1  0.85214107  0.18641195  0.12332654  1  0  0.302002  0.362015  0  0.976924  0
H  H6  1  0.01698408  0.62481534  0.39963887  1  0  0.105115  0.103073  0  0.992952  0
H  H7  1  0.98301722  0.37518487  0.60036066  1  0  0.105114  0.103103  0  0.992963  0
H  H8  1  0.04980651  0.66820044  0.62855457  1  0  0.103976  0.102536  0  1.028222  0
H  H9  1  0.95019503  0.33179868  0.37144522  1  0  0.103979  0.102528  0  1.028241  0
H  H10  1  0.22871683  0.03530136  0.43267349  1  0  0.105186  0.107173  0  0.999202  0
H  H11  1  0.77128241  0.96469886  0.56732710  1  0  0.105186  0.107175  0  0.999193  0
H  H12  1  0.20406112  0.98843715  0.20391328  1  0  0.102606  0.11222  0  1.063472  0
H  H13  1  0.79593812  0.01156306  0.79608732  1  0  0.102628  0.112266  0  1.063445  0
H  H14  1  0.99681462  0.48919481  0.14252863  1  0  0.101527  0.10137  0  1.022111  0
H  H15  1  0.00318438  0.51080649  0.85747070  1  0  0.101527  0.101365  0  1.022099  0
H  H16  1  0.13989988  0.24486962  0.13442708  1  0  0.102651  0.108785  0  1.033346  0
H  H17  1  0.86009936  0.75513059  0.86557153  1  0  0.102659  0.108788  0  1.033366  0
H  H18  1  0.52078079  0.40101438  0.12674858  1  0  0.100304  0.103293  0  1.033854  0
H  H19  1  0.47921845  0.59898583  0.87325202  1  0  0.10033  0.103316  0  1.033849  0
H  H20  1  0.37817251  0.64901095  0.12767621  1  0  0.102592  0.10492  0  1.006881  0
H  H21  1  0.62182800  0.35098817  0.87232561  1  0  0.102578  0.104918  0  1.006831  0
H  H22  1  0.45614263  0.08336970  0.62505354  1  0  0.120645  0.093344  0  0.980408  0
H  H23  1  0.54385661  0.91663052  0.37494506  1  0  0.12065  0.093351  0  0.980421  0
H  H24  1  0.55392475  0.26674047  0.45197061  1  0  0.108382  0.115024  0  1.021731  0
H  H25  1  0.44607449  0.73325974  0.54802899  1  0  0.108385  0.11504  0  1.021708  0
H  H26  1  0.35914913  0.58375091  0.67504187  1  0  0.108625  0.112408  0  1.034739  0
H  H27  1  0.64085138  0.41624821  0.32495796  1  0  0.10862  0.112391  0  1.03476  0
H  H28  1  0.26553957  0.38777894  0.83404315  1  0  0.119262  0.095765  0  0.999757  0
H  H29  1  0.73446070  0.61222127  0.16595641  1  0  0.119267  0.095774  0  0.999731  0
C  C30  1  0.10812504  0.80400937  0.28676448  1  0  -0.018381  -0.14911  0  3.974603  0
C  C31  1  0.89187626  0.19599085  0.71323404  1  0  -0.018385  -0.149073  0  3.974573  0
C  C32  1  0.06562356  0.71339149  0.40701121  1  0  -0.078354  -0.061834  0  3.972186  0
C  C33  1  0.93437877  0.28660872  0.59298927  1  0  -0.078363  -0.061933  0  3.972212  0
C  C34  1  0.08369359  0.73715947  0.53509905  1  0  -0.081635  -0.091108  0  3.96438  0
C  C35  1  0.91630771  0.26284074  0.46490048  1  0  -0.081643  -0.091092  0  3.964292  0
C  C36  1  0.14346751  0.85325034  0.54390540  1  0  -0.018975  -0.056523  0  4.006138  0
C  C37  1  0.85653403  0.14674878  0.45609539  1  0  -0.018947  -0.056443  0  4.006032  0
C  C38  1  0.18441488  0.94445440  0.42390493  1  0  -0.079157  -0.084234  0  3.960203  0
C  C39  1  0.81558563  0.05554472  0.57609589  1  0  -0.07916  -0.084244  0  3.960182  0
C  C40  1  0.16818382  0.91920516  0.29587497  1  0  -0.083741  -0.070753  0  3.960079  0
C  C41  1  0.83181646  0.08079505  0.70412559  1  0  -0.083762  -0.070817  0  3.960119  0
C  C42  1  0.16226572  0.88381403  0.67856510  1  0  0.231205  0.581129  0  4.119153  0
C  C43  1  0.83773479  0.11618509  0.32143572  1  0  0.231221  0.581168  0  4.119176  0
C  C44  1  0.17805788  0.58435261  0.13634968  1  0  -0.028092  -0.167942  0  3.990542  0
C  C45  1  0.82194215  0.41564870  0.86365061  1  0  -0.028101  -0.167989  0  3.990454  0
C  C46  1  0.11185071  0.46930525  0.14102528  1  0  -0.083336  -0.070707  0  3.979453  0
C  C47  1  0.88814853  0.53069496  0.85897432  1  0  -0.083323  -0.070644  0  3.979393  0
C  C48  1  0.19210972  0.33205204  0.13701567  1  0  -0.083826  -0.087794  0  3.947453  0
C  C49  1  0.80788849  0.66794817  0.86298497  1  0  -0.083855  -0.087855  0  3.947524  0
C  C50  1  0.33974293  0.30812728  0.13076833  1  0  -0.022821  -0.045224  0  3.970612  0
C  C51  1  0.66025631  0.69187294  0.86923227  1  0  -0.022837  -0.045201  0  3.97066  0
C  C52  1  0.40603240  0.42193862  0.13188328  1  0  -0.089828  -0.103509  0  3.985358  0
C  C53  1  0.59396787  0.57806160  0.86811727  1  0  -0.089854  -0.103578  0  3.985372  0
C  C54  1  0.32621511  0.55931916  0.13328993  1  0  -0.084493  -0.069977  0  3.986236  0
C  C55  1  0.67378517  0.44068105  0.86671261  1  0  -0.084489  -0.06995  0  3.986164  0
C  C56  1  0.42943384  0.16494057  0.11638443  1  0  0.207105  0.58311  0  4.219905  0
C  C57  1  0.57056643  0.83505964  0.88361613  1  0  0.207105  0.583079  0  4.219948  0
C  C58  1  0.43734659  0.19627754  0.63146635  1  0  0.05341  0.109027  0  3.947946  0
C  C59  1  0.56265185  0.80372158  0.36853257  1  0  0.053426  0.109026  0  3.94799  0
C  C60  1  0.49223852  0.30014304  0.53525352  1  0  -0.075379  -0.159421  0  3.919859  0
C  C61  1  0.50775993  0.69985608  0.46474540  1  0  -0.075401  -0.15945  0  3.919856  0
C  C62  1  0.46912075  0.44375508  0.54833354  1  0  0.016921  0.10887  0  3.943764  0
C  C63  1  0.53087872  0.55624404  0.45166534  1  0  0.016949  0.108877  0  3.943759  0
C  C64  1  0.38474488  0.47514391  0.65801990  1  0  -0.075705  -0.164369  0  3.940813  0
C  C65  1  0.61525539  0.52485631  0.34197866  1  0  -0.075718  -0.164373  0  3.940852  0
C  C66  1  0.33195051  0.36572332  0.74867755  1  0  0.050947  0.100964  0  3.938182  0
C  C67  1  0.66804872  0.63427690  0.25132205  1  0  0.050944  0.100965  0  3.938209  0
N  N68  1  0.35917232  0.22760949  0.73715361  1  0  -0.322201  -0.244782  0  3.502989  0
N  N69  1  0.64082692  0.77239072  0.26284599  1  0  -0.322191  -0.244774  0  3.503034  0
O  O70  1  0.19530226  0.99797857  0.68537530  1  0  -0.289062  -0.51918  0  2.27426  0
O  O71  1  0.80469825  0.00202055  0.31462453  1  0  -0.289074  -0.519212  0  2.27425  0
O  O72  1  0.14106323  0.78010808  0.78765825  1  0  -0.325768  -0.472773  0  2.302892  0
O  O73  1  0.85893727  0.21989104  0.21234257  1  0  -0.325774  -0.47281  0  2.302913  0
O  O74  1  0.56235260  0.14874898  0.13096834  1  0  -0.32684  -0.562615  0  2.303535  0
O  O75  1  0.43764641  0.85125233  0.86903298  1  0  -0.326819  -0.562595  0  2.303572  0
O  O76  1  0.37028064  0.06971376  0.09194469  1  0  -0.33936  -0.597455  0  2.343576  0
O  O77  1  0.62971963  0.93028646  0.90805587  1  0  -0.33937  -0.597446  0  2.343592  0
O  O78  1  0.92273750  0.77257037  0.10613543  1  0  -0.373049  -0.713464  0  2.300972  0
O  O79  1  0.07726428  0.22742766  0.89386562  1  0  -0.373085  -0.713515  0  2.301034  0
O  O80  1  0.14565561  0.86803416  0.00674047  1  0  -0.369053  -0.707516  0  2.323342  0
O  O81  1  0.85434442  0.13196715  0.99325982  1  0  -0.369063  -0.707536  0  2.323266  0
