# generated using pymatgen
data_MnH10C16(NO)4
_symmetry_space_group_name_H-M   'P 1'
_cell_length_a   7.46341093
_cell_length_b   14.15703086
_cell_length_c   17.99120291
_cell_angle_alpha   90.01822554
_cell_angle_beta   89.99946431
_cell_angle_gamma   90.00204683
_symmetry_Int_Tables_number   1
_chemical_formula_structural   MnH10C16(NO)4
_chemical_formula_sum   'Mn4 H40 C64 N16 O16'
_cell_volume   1900.94570449
_cell_formula_units_Z   4
loop_
 _symmetry_equiv_pos_site_id
 _symmetry_equiv_pos_as_xyz
  1  'x, y, z'
loop_
 _atom_site_type_symbol
 _atom_site_label
 _atom_site_symmetry_multiplicity
 _atom_site_fract_x
 _atom_site_fract_y
 _atom_site_fract_z
 _atom_site_occupancy
 _atom_site_hle17_ddec_charge
 _atom_site_hle17_ddec_spin_density
 _atom_site_hle17_ddec_sum_bond_order
 _atom_site_hle17_magmom
 _atom_site_hse06_10hf_ddec_charge
 _atom_site_hse06_10hf_ddec_spin_density
 _atom_site_hse06_10hf_ddec_sum_bond_order
 _atom_site_hse06_10hf_magmom
 _atom_site_hse06_ddec_charge
 _atom_site_hse06_ddec_spin_density
 _atom_site_hse06_ddec_sum_bond_order
 _atom_site_hse06_magmom
 _atom_site_pbe_cm5_charge
 _atom_site_pbe_ddec_charge
 _atom_site_pbe_ddec_spin_density
 _atom_site_pbe_ddec_sum_bond_order
 _atom_site_pbe_magmom
Mn  Mn0  1  0.48219658  0.25717624  0.52316691  1  1.13982  4.788273  1.834311  4.673  0.973291  4.701634  2.347064  4.521  1.032179  4.752909  2.272891  4.59  0.612588  0.928413  4.642485  2.402704  4.445
Mn  Mn1  1  0.01839437  0.74266905  0.02307802  1  1.139427  4.792275  1.832038  4.674  0.97263  4.709192  2.343393  4.526  1.031669  4.757351  2.269579  4.593  0.611732  0.927544  4.655769  2.398582  4.455
Mn  Mn2  1  0.51839157  0.75733857  0.97692395  1  1.139306  4.792294  1.832136  4.674  0.972508  4.709166  2.343537  4.526  1.031536  4.757338  2.269735  4.593  0.611672  0.927457  4.655705  2.398676  4.455
Mn  Mn3  1  0.98219454  0.24281196  0.47683149  1  1.140003  -4.792063  1.834265  -4.673  0.973508  -4.700811  2.346999  -4.521  1.032385  -4.756735  2.272756  -4.59  0.612644  0.928653  -4.636829  2.402707  -4.444
H  H4  1  0.13847263  0.74443428  0.83176269  1  0.133205  -0.00026  0.928899  0.0  0.140048  0.000116  0.991949  0.0  0.143478  -7.3e-05  0.988089  0.0  0.153477  0.137398  0.000331  0.994944  0.0
H  H5  1  0.36140937  0.25532957  0.33197347  1  0.133401  -8.2e-05  0.929391  0.0  0.140116  -6.8e-05  0.992555  0.0  0.143548  4e-06  0.988701  0.0  0.153365  0.137487  -0.000146  0.995523  0.0
H  H6  1  0.86139383  0.24465987  0.66802985  1  0.133339  8e-05  0.929404  0.0  0.139995  7.3e-05  0.992659  0.0  0.143424  -1e-06  0.988805  0.0  0.153341  0.137365  0.000155  0.995624  0.0
H  H7  1  0.63849170  0.75556996  0.16823603  1  0.133354  -0.000254  0.928997  0.0  0.140148  0.000112  0.992027  0.0  0.143573  -7.5e-05  0.988174  0.0  0.15354  0.137501  0.000325  0.995026  0.0
H  H8  1  0.08838246  0.48910531  0.58250570  1  0.114929  8.8e-05  0.939136  0.0  0.122062  0.000138  1.001734  0.0  0.125797  0.000134  0.999448  0.0  0.109826  0.119181  0.000145  1.003653  0.0
H  H9  1  0.41187757  0.51090171  0.08245395  1  0.114881  -0.000447  0.939122  0.0  0.122047  -0.000434  1.001695  0.0  0.125784  -0.000454  0.999402  0.0  0.109804  0.119191  -0.000398  1.00358  0.0
H  H10  1  0.91193056  0.98907733  0.91754480  1  0.114816  -0.000445  0.939179  0.0  0.122046  -0.000433  1.001722  0.0  0.125789  -0.000455  0.999414  0.0  0.109754  0.119187  -0.000397  1.003609  0.0
H  H11  1  0.58836344  0.01090792  0.41750315  1  0.114989  -7.9e-05  0.939133  0.0  0.122156  -0.000135  1.001692  0.0  0.125894  -0.000132  0.999395  0.0  0.109816  0.119269  -0.000142  1.00362  0.0
H  H12  1  0.57706494  0.74909825  0.78953788  1  0.125605  -0.000169  0.90937  0.0  0.136217  0.000134  0.967355  0.0  0.139161  1.4e-05  0.963473  0.0  0.156957  0.133983  0.000268  0.970326  0.0
H  H13  1  0.92272677  0.25103090  0.28948107  1  0.126003  0.000493  0.909565  0.0  0.136444  0.000407  0.967702  0.0  0.139334  0.000379  0.963901  0.0  0.157027  0.134288  0.000433  0.970579  0.0
H  H14  1  0.42271204  0.24895899  0.71051090  1  0.12601  -0.000494  0.909613  0.0  0.136414  -0.000401  0.967778  0.0  0.139306  -0.000378  0.963976  0.0  0.157027  0.134207  -0.000418  0.97072  0.0
H  H15  1  0.07707753  0.75092884  0.21045552  1  0.125809  -0.000166  0.909394  0.0  0.13628  0.00014  0.967513  0.0  0.139245  1.8e-05  0.963606  0.0  0.156937  0.134036  0.000274  0.970498  0.0
H  H16  1  0.85666300  0.95498095  0.50656312  1  0.096  7.9e-05  0.949925  0.0  0.105615  4.8e-05  1.012041  0.0  0.108706  6.9e-05  1.009675  0.0  0.103445  0.103305  2.6e-05  1.013839  0.0
H  H17  1  0.64343914  0.04484029  0.00664037  1  0.096231  -0.000244  0.950146  0.0  0.106055  -0.000206  1.011952  0.0  0.109148  -0.000238  1.009591  0.0  0.103504  0.103799  -0.000162  1.013683  0.0
H  H18  1  0.14342263  0.45514856  0.99336047  1  0.096343  -0.00025  0.950065  0.0  0.106101  -0.000208  1.011932  0.0  0.109196  -0.000238  1.009573  0.0  0.103533  0.103851  -0.000164  1.013659  0.0
H  H19  1  0.35667285  0.54503661  0.49343974  1  0.096052  -7.6e-05  0.9498  0.0  0.105604  -3.9e-05  1.01201  0.0  0.108709  -6.3e-05  1.009618  0.0  0.103467  0.103295  -1.2e-05  1.013801  0.0
H  H20  1  0.15067738  0.64155864  0.65174570  1  0.100787  3e-05  0.938614  0.0  0.112769  6.1e-05  0.995297  0.0  0.116192  4.1e-05  0.993368  0.0  0.105573  0.110212  8.6e-05  0.996938  0.0
H  H21  1  0.34914030  0.35860635  0.15176167  1  0.100874  7.1e-05  0.938461  0.0  0.112804  4.1e-05  0.995247  0.0  0.116183  3e-05  0.993374  0.0  0.105369  0.110274  5.4e-05  0.996838  0.0
H  H22  1  0.84917007  0.14136873  0.84823780  1  0.100743  7.4e-05  0.93837  0.0  0.112721  4.9e-05  0.995128  0.0  0.116144  3.8e-05  0.993205  0.0  0.105308  0.110173  6.2e-05  0.996739  0.0
H  H23  1  0.65067392  0.85846207  0.34825686  1  0.100761  -4.2e-05  0.938598  0.0  0.112734  -5.1e-05  0.995301  0.0  0.116159  -3.9e-05  0.993367  0.0  0.105542  0.110183  -6.3e-05  0.996944  0.0
H  H24  1  0.58338575  0.68938535  0.67137710  1  0.096071  -1.5e-05  0.947619  0.0  0.109613  3e-05  1.003104  0.0  0.112618  9e-06  1.001644  0.0  0.105309  0.107301  7e-05  1.004517  0.0
H  H25  1  0.91634427  0.31045094  0.17144249  1  0.096328  6.9e-05  0.947361  0.0  0.109807  5.7e-05  1.00292  0.0  0.112742  4.1e-05  1.001541  0.0  0.105201  0.107553  7.7e-05  1.004262  0.0
H  H26  1  0.41637114  0.18955366  0.82855061  1  0.096322  4.4e-05  0.947263  0.0  0.109824  6e-06  1.002826  0.0  0.11276  4e-06  1.001445  0.0  0.105199  0.107568  1.3e-05  1.004168  0.0
H  H27  1  0.08338365  0.81061007  0.32861794  1  0.0961  2.8e-05  0.947568  0.0  0.109642  4.4e-05  1.003046  0.0  0.112647  3.3e-05  1.001586  0.0  0.105295  0.107331  4.8e-05  1.004457  0.0
H  H28  1  0.52437057  0.53213562  0.61148216  1  0.10362  -0.000124  0.940706  0.0  0.11479  -0.000137  0.997591  0.0  0.118384  -0.000163  0.994975  0.0  0.107373  0.112049  -0.000105  0.999683  0.0
H  H29  1  0.97574130  0.46754790  0.11147994  1  0.104422  -0.000226  0.940169  0.0  0.115113  -0.000149  0.997611  0.0  0.118725  -0.00019  0.994977  0.0  0.107386  0.112397  -9.4e-05  0.999684  0.0
H  H30  1  0.47578172  0.03246137  0.88851071  1  0.104276  -0.000226  0.940231  0.0  0.114935  -0.000151  0.997699  0.0  0.11854  -0.000192  0.995073  0.0  0.107286  0.112217  -9.7e-05  0.999767  0.0
H  H31  1  0.02436165  0.96785798  0.38851367  1  0.103627  0.000126  0.940754  0.0  0.114787  0.000136  0.997642  0.0  0.118378  0.000164  0.99503  0.0  0.107377  0.112046  0.000104  0.999738  0.0
H  H32  1  0.70802710  0.06687296  0.71896002  1  0.088186  1.2e-05  0.953052  0.0  0.096603  7.8e-05  1.017631  0.0  0.100274  1.3e-05  1.014448  0.0  0.097407  0.093839  0.000149  1.020059  0.0
H  H33  1  0.79160540  0.93316837  0.21910336  1  0.088177  -0.000115  0.952916  0.0  0.096384  3.7e-05  1.017789  0.0  0.10005  -4.1e-05  1.014581  0.0  0.097358  0.093692  0.000131  1.020158  0.0
H  H34  1  0.29158755  0.56683242  0.78089809  1  0.088209  -0.000114  0.952812  0.0  0.096392  4e-05  1.017705  0.0  0.100056  -3.6e-05  1.014499  0.0  0.0974  0.093701  0.000128  1.020069  0.0
H  H35  1  0.20803029  0.43312982  0.28104557  1  0.088084  -4e-06  0.953127  0.0  0.096469  -6.8e-05  1.017756  0.0  0.100157  -9e-06  1.014556  0.0  0.097371  0.093703  -0.000129  1.020178  0.0
H  H36  1  0.92358093  0.79914495  0.56458852  1  0.102895  1.5e-05  0.952155  0.0  0.114651  5.4e-05  1.007071  0.0  0.117807  3.4e-05  1.006481  0.0  0.102817  0.112482  7.7e-05  1.007533  0.0
H  H37  1  0.57610188  0.20066512  0.06463834  1  0.103043  4.4e-05  0.952191  0.0  0.114727  4.5e-05  1.007141  0.0  0.117885  3.1e-05  1.006551  0.0  0.102902  0.112547  6.9e-05  1.007606  0.0
H  H38  1  0.07610028  0.29932103  0.93535832  1  0.102962  4.2e-05  0.952242  0.0  0.114606  4.4e-05  1.007244  0.0  0.117765  3e-05  1.006654  0.0  0.102826  0.112428  6.8e-05  1.007708  0.0
H  H39  1  0.42357845  0.70086892  0.43540630  1  0.102789  -2e-05  0.952268  0.0  0.114571  -5.5e-05  1.007162  0.0  0.117725  -3.6e-05  1.006573  0.0  0.102828  0.112404  -7.7e-05  1.007625  0.0
H  H40  1  0.79297601  0.91713992  0.77980372  1  0.100254  -7.9e-05  0.970917  0.0  0.109346  -5.9e-05  1.03335  0.0  0.112464  -6.5e-05  1.032573  0.0  0.102329  0.107067  -4.4e-05  1.034101  0.0
H  H41  1  0.70636036  0.08291469  0.27991079  1  0.099579  4.6e-05  0.971624  0.0  0.108915  1.5e-05  1.033751  0.0  0.112033  1.6e-05  1.033  0.0  0.102126  0.106623  1.3e-05  1.034521  0.0
H  H42  1  0.20635942  0.41708241  0.72008870  1  0.099623  2.7e-05  0.971591  0.0  0.108951  3.2e-05  1.033719  0.0  0.112067  1.8e-05  1.032968  0.0  0.102138  0.106658  5e-05  1.034482  0.0
H  H43  1  0.29297707  0.58286442  0.22019661  1  0.100209  -1.9e-05  0.970966  0.0  0.109311  -5e-06  1.03339  0.0  0.112428  -2.7e-05  1.032612  0.0  0.102362  0.107028  2.8e-05  1.034143  0.0
C  C44  1  0.99408938  0.74452448  0.83950925  1  0.159326  0.002868  3.585092  0.004  0.091293  0.005662  3.860589  0.006  0.103722  0.004364  3.872059  0.005  0.177604  0.08312  0.007081  3.85283  0.007
C  C45  1  0.50581511  0.25530494  0.33964360  1  0.15908  0.001189  3.586053  0.002  0.090941  0.00275  3.861398  0.003  0.103381  0.00228  3.872884  0.003  0.177387  0.082763  0.003222  3.853611  0.004
C  C46  1  0.00579048  0.24468271  0.66035778  1  0.159384  -0.001174  3.585995  -0.002  0.091298  -0.002687  3.861359  -0.003  0.103747  -0.002252  3.872833  -0.003  0.177485  0.083124  -0.003065  3.853569  -0.004
C  C47  1  0.49412348  0.75548579  0.16049196  1  0.159437  0.002819  3.585527  0.004  0.091437  0.005656  3.860992  0.006  0.103878  0.004357  3.872459  0.005  0.177769  0.08325  0.007075  3.853247  0.007
C  C48  1  0.80319400  0.50200565  0.59461849  1  -0.04661  7.3e-05  3.736463  0.0  -0.023038  -0.000172  3.962784  0.0  -0.029771  -0.000198  3.984513  0.0  -0.009837  -0.019499  -5.6e-05  3.949601  0.0
C  C49  1  0.69699328  0.49781867  0.09457378  1  -0.046032  0.000324  3.736109  0.001  -0.022833  0.000865  3.963046  0.001  -0.029597  4e-05  3.98491  0.0  -0.009614  -0.019258  0.002043  3.949709  0.001
C  C50  1  0.19702593  0.00218461  0.90542351  1  -0.045824  0.000251  3.735927  0.001  -0.022623  0.000743  3.962858  0.001  -0.029384  -3.6e-05  3.984722  0.0  -0.00963  -0.01908  0.001837  3.949565  0.001
C  C51  1  0.30317870  0.99799253  0.40538347  1  -0.046961  0.000196  3.736708  0.0  -0.023453  0.00044  3.963176  0.0  -0.030189  0.000366  3.984906  0.0  -0.009966  -0.019872  0.000516  3.949924  0.0
C  C52  1  0.76548731  0.40856876  0.55830024  1  0.659038  -0.000132  3.912649  -0.001  0.606977  -4e-05  4.209184  0.0  0.643101  0.000193  4.201364  0.0  0.219344  0.581713  -0.000381  4.213581  -0.001
C  C53  1  0.73487361  0.59124583  0.05826543  1  0.659526  0.008007  3.913421  0.008  0.607334  0.014764  4.210418  0.014  0.643388  0.01114  4.202643  0.011  0.218947  0.582206  0.018801  4.214729  0.016
C  C54  1  0.23490470  0.90875883  0.94174236  1  0.658983  0.008018  3.91382  0.008  0.606792  0.014761  4.21084  0.014  0.642844  0.011146  4.203079  0.011  0.21876  0.581681  0.018786  4.215119  0.016
C  C55  1  0.26546794  0.09142452  0.44170679  1  0.659183  0.000123  3.912329  0.0  0.607143  6e-05  4.20888  0.0  0.64327  -0.000192  4.201062  0.0  0.219303  0.581868  0.000436  4.213299  0.001
C  C56  1  0.73086835  0.11317064  0.57380483  1  0.6495  -0.00446  3.92006  -0.006  0.596115  -0.006069  4.22049  -0.007  0.632539  -0.004407  4.212044  -0.006  0.208595  0.570541  -0.008011  4.225261  -0.009
C  C57  1  0.76969589  0.88674139  0.07400001  1  0.649687  0.010737  3.919785  0.009  0.596745  0.018523  4.220218  0.014  0.633024  0.014022  4.211885  0.011  0.209129  0.571328  0.023336  4.224907  0.018
C  C58  1  0.26965651  0.61325686  0.92600708  1  0.649407  0.010736  3.91965  0.009  0.596619  0.018537  4.219947  0.014  0.632894  0.014028  4.211618  0.011  0.2091  0.571208  0.023363  4.224623  0.018
C  C59  1  0.23089200  0.38682975  0.42620123  1  0.649755  0.004457  3.91979  0.006  0.596408  0.006088  4.220234  0.007  0.632829  0.004406  4.211786  0.006  0.208697  0.57085  0.008065  4.224985  0.009
C  C60  1  0.87128041  0.67248389  0.66675605  1  0.151386  -0.000291  3.802011  0.0  0.142461  -0.000136  4.068583  0.0  0.147722  -0.000122  4.090406  0.0  0.079518  0.138423  -0.000152  4.054086  0.0
C  C61  1  0.62850465  0.32749323  0.16681070  1  0.151894  0.002397  3.802566  0.002  0.142938  0.003126  4.069135  0.003  0.148231  0.002294  4.09088  0.002  0.079712  0.138946  0.005026  4.05462  0.004
C  C62  1  0.12852894  0.17249462  0.83318464  1  0.15188  0.002311  3.802559  0.002  0.143027  0.003053  4.069003  0.003  0.148319  0.002258  4.090756  0.002  0.079791  0.13903  0.004886  4.054493  0.004
C  C63  1  0.37128069  0.82752476  0.33324231  1  0.151675  8.6e-05  3.801661  0.0  0.142632  0.000191  4.068391  0.0  0.147901  0.000106  4.090201  0.0  0.079522  0.138587  0.00033  4.053908  0.0
C  C64  1  0.97995191  0.53286109  0.60429729  1  -0.059233  0.00042  3.71626  0.0  -0.080786  0.000796  3.961791  0.001  -0.080903  0.000546  3.982013  0.0  -0.078923  -0.080879  0.001211  3.94893  0.001
C  C65  1  0.52017754  0.46709076  0.10426280  1  -0.059577  0.002414  3.715813  0.002  -0.080987  0.002988  3.961437  0.002  -0.081163  0.002294  3.981746  0.002  -0.079024  -0.080953  0.004412  3.948363  0.003
C  C66  1  0.02020979  0.03289434  0.89573463  1  -0.059416  0.002449  3.715957  0.002  -0.080917  0.003036  3.961626  0.003  -0.081104  0.002331  3.981957  0.002  -0.078891  -0.080876  0.004476  3.948537  0.004
C  C67  1  0.47994145  0.96714821  0.39570731  1  -0.059152  -0.00061  3.716158  0.0  -0.080726  -0.000851  3.961721  -0.001  -0.080845  -0.000607  3.981947  0.0  -0.078863  -0.080818  -0.001263  3.948871  -0.001
C  C68  1  0.70532894  0.74617934  0.81740477  1  0.155376  0.002747  3.612429  0.004  0.087585  0.005905  3.885252  0.006  0.100096  0.004495  3.895998  0.005  0.178553  0.079377  0.007353  3.877875  0.007
C  C69  1  0.79452646  0.25382476  0.31741087  1  0.154245  -0.002816  3.612998  -0.003  0.08651  -0.005198  3.885844  -0.005  0.099007  -0.004312  3.89667  -0.004  0.178219  0.078309  -0.006107  3.87836  -0.005
C  C70  1  0.29450546  0.24616200  0.68257937  1  0.154213  0.002831  3.612931  0.003  0.086523  0.005268  3.88572  0.005  0.099019  0.004338  3.896547  0.004  0.178244  0.078366  0.006283  3.878255  0.006
C  C71  1  0.20535575  0.75383887  0.18258645  1  0.155277  0.002774  3.612437  0.004  0.08756  0.005943  3.885179  0.006  0.100061  0.004526  3.89592  0.005  0.178614  0.079359  0.007403  3.877796  0.007
C  C72  1  0.86138454  0.84690289  0.67600296  1  0.183093  -0.000716  3.80358  -0.001  0.171698  -0.000598  4.068705  -0.001  0.180733  -0.000517  4.087547  0.0  0.089659  0.165541  -0.000819  4.05585  -0.001
C  C73  1  0.63821407  0.15307444  0.17607561  1  0.182722  0.001212  3.80349  0.001  0.171614  0.001601  4.068292  0.001  0.180637  0.00122  4.087144  0.001  0.089354  0.165421  0.00229  4.055484  0.002
C  C74  1  0.13821145  0.34691784  0.82392358  1  0.182598  0.001059  3.803777  0.001  0.171484  0.001558  4.068618  0.001  0.180487  0.001143  4.087493  0.001  0.089322  0.16531  0.002301  4.055787  0.002
C  C75  1  0.36139070  0.65310699  0.32399599  1  0.182885  0.00086  3.803637  0.001  0.171639  0.000987  4.06857  0.001  0.180668  0.000761  4.087416  0.001  0.089612  0.16548  0.001395  4.055727  0.001
C  C76  1  0.77664017  0.02076614  0.60895202  1  -0.077794  0.000294  3.768617  0.0  -0.057163  0.000131  4.002319  0.0  -0.066163  0.000157  4.024586  0.0  -0.026244  -0.051703  0.00015  3.987989  0.0
C  C77  1  0.72331902  0.97917137  0.10907325  1  -0.077183  -0.000548  3.768033  0.0  -0.05705  0.000159  4.00226  0.0  -0.066038  -0.000338  4.024647  0.0  -0.025974  -0.05157  0.000708  3.987798  0.0
C  C78  1  0.22329965  0.52082388  0.89092791  1  -0.076875  -0.000432  3.767791  0.0  -0.056801  0.000288  4.001999  0.0  -0.065781  -0.000245  4.024381  0.0  -0.025916  -0.051328  0.00088  3.987546  0.001
C  C79  1  0.27665072  0.47924147  0.39105108  1  -0.077898  -0.000244  3.768722  0.0  -0.057299  1.2e-05  4.002467  0.0  -0.0663  -8.5e-05  4.024741  0.0  -0.026232  -0.051846  8.2e-05  3.988127  0.0
C  C80  1  0.83975686  0.94489821  0.56619159  1  -0.036087  -0.000477  3.743103  0.0  -0.057973  -0.00032  3.986057  0.0  -0.054991  -0.0003  4.004888  0.0  -0.079158  -0.059749  -0.000437  3.973441  0.0
C  C81  1  0.66018451  0.05495702  0.06627575  1  -0.03699  0.001067  3.744172  0.001  -0.058859  0.001395  3.987224  0.001  -0.05589  0.001059  4.006078  0.001  -0.079495  -0.060681  0.001951  3.974556  0.002
C  C82  1  0.16016865  0.44503143  0.93372392  1  -0.03735  0.001038  3.744144  0.001  -0.059155  0.001416  3.987235  0.001  -0.056193  0.001053  4.006091  0.001  -0.079512  -0.060977  0.002005  3.974576  0.002
C  C83  1  0.33976336  0.55511479  0.43380912  1  -0.03615  0.000538  3.743416  0.0  -0.058007  0.00046  3.986424  0.0  -0.055031  0.00038  4.005237  0.0  -0.079162  -0.059772  0.000683  3.973791  0.001
C  C84  1  0.01409569  0.61735887  0.64173305  1  -0.135438  0.00016  3.755852  0.0  -0.158703  -3.3e-05  4.013788  0.0  -0.162588  3.6e-05  4.03373  0.0  -0.088374  -0.156195  -0.000193  4.000832  0.0
C  C85  1  0.48582002  0.38266928  0.14174285  1  -0.135373  -0.001416  3.754877  -0.001  -0.158514  -0.000617  4.012688  -0.001  -0.162385  -0.000868  4.032707  -0.001  -0.088035  -0.155988  -0.00046  3.999602  -0.001
C  C86  1  0.98584794  0.11730980  0.85825387  1  -0.135177  -0.001406  3.754765  -0.001  -0.158382  -0.000666  4.012537  -0.001  -0.162291  -0.00089  4.032547  -0.001  -0.087948  -0.155832  -0.000571  3.999442  -0.001
C  C87  1  0.51409231  0.88265502  0.35826838  1  -0.135438  0.000115  3.755602  0.0  -0.158638  0.000267  4.013551  0.0  -0.162533  0.000117  4.03351  0.0  -0.088263  -0.156133  0.000576  4.000604  0.0
C  C88  1  0.69408046  0.64415802  0.65403942  1  -0.146492  0.000416  3.771553  0.0  -0.168828  0.000584  4.026237  0.0  -0.173029  0.000327  4.047303  0.0  -0.092362  -0.166161  0.001087  4.012539  0.001
C  C89  1  0.80574910  0.35570164  0.15408099  1  -0.147768  -0.001308  3.772122  -0.001  -0.169962  -0.000454  4.026653  -0.001  -0.174125  -0.00078  4.047746  -0.001  -0.092784  -0.16731  -0.000167  4.012862  -0.001
C  C90  1  0.30578192  0.14429805  0.84591088  1  -0.14779  -0.001397  3.772292  -0.001  -0.170045  -0.000591  4.026824  -0.001  -0.17421  -0.000892  4.047913  -0.001  -0.092881  -0.1674  -0.000327  4.013045  -0.001
C  C91  1  0.19407432  0.85584374  0.34595686  1  -0.14669  -0.000153  3.771522  0.0  -0.168994  -0.00031  4.026241  0.0  -0.173197  -0.000146  4.047301  0.0  -0.092336  -0.166327  -0.000665  4.012548  -0.001
C  C92  1  0.66057717  0.55801616  0.61964579  1  -0.058358  -0.000797  3.746655  -0.001  -0.078741  -0.000864  3.987341  -0.001  -0.079009  -0.000629  4.008113  0.0  -0.080626  -0.078608  -0.001277  3.973956  -0.001
C  C93  1  0.83946083  0.44176319  0.11963819  1  -0.059029  0.002134  3.746623  0.002  -0.078906  0.002546  3.987408  0.002  -0.079217  0.002037  4.008216  0.002  -0.080455  -0.078711  0.003599  3.973904  0.003
C  C94  1  0.33950049  0.05824208  0.88035466  1  -0.059  0.002177  3.746836  0.002  -0.078841  0.002591  3.987687  0.002  -0.079145  0.002082  4.008489  0.002  -0.080354  -0.078644  0.003632  3.974184  0.003
C  C95  1  0.16056401  0.94198073  0.38035173  1  -0.058179  0.000621  3.746826  0.0  -0.078517  0.000823  3.987524  0.001  -0.07878  0.000575  4.008292  0.0  -0.080568  -0.078398  0.001266  3.974155  0.001
C  C96  1  0.75876905  0.00836292  0.68568523  1  -0.046521  -0.001156  3.773576  -0.001  -0.069159  -0.001068  4.021357  -0.001  -0.0665  -0.000894  4.040573  -0.001  -0.087581  -0.070736  -0.001404  4.008532  -0.001
C  C97  1  0.74089500  0.99164376  0.18581339  1  -0.046683  0.001574  3.77377  0.001  -0.068929  0.002253  4.021697  0.002  -0.066311  0.001658  4.040957  0.002  -0.087319  -0.0705  0.003184  4.008739  0.003
C  C98  1  0.24087783  0.50835253  0.81418770  1  -0.046613  0.001511  3.773351  0.001  -0.068804  0.002234  4.021284  0.002  -0.066186  0.001629  4.04054  0.001  -0.087286  -0.070368  0.003164  4.008317  0.003
C  C99  1  0.25877545  0.49164224  0.31431905  1  -0.046423  0.001115  3.773728  0.001  -0.06904  0.001074  4.021557  0.001  -0.066399  0.000896  4.040769  0.001  -0.087599  -0.070613  0.001429  4.008716  0.001
C  C100  1  0.87863393  0.85824078  0.59865710  1  -0.173853  0.000682  3.762099  0.001  -0.190842  0.000523  4.011749  0.0  -0.19722  0.0005  4.031882  0.0  -0.104106  -0.186529  0.000634  3.997998  0.001
C  C101  1  0.62109905  0.14162828  0.09872975  1  -0.173733  -0.000782  3.761976  -0.001  -0.190742  -0.000426  4.01159  0.0  -0.197106  -0.000511  4.031719  -0.001  -0.104008  -0.186455  -0.00041  3.9979  -0.001
C  C102  1  0.12109414  0.35835873  0.90126951  1  -0.173422  -0.000691  3.761889  -0.001  -0.190376  -0.000376  4.011446  0.0  -0.196733  -0.00046  4.031584  0.0  -0.103917  -0.186099  -0.000354  3.997754  0.0
C  C103  1  0.37863760  0.64177295  0.40134179  1  -0.173714  -0.000582  3.762175  -0.001  -0.190745  -0.000362  4.011757  0.0  -0.197123  -0.000393  4.031896  0.0  -0.104135  -0.186436  -0.000405  3.998008  0.0
C  C104  1  0.80407101  0.92335375  0.71967564  1  -0.187272  0.000494  3.777979  0.0  -0.20856  0.000274  4.036087  0.0  -0.214866  0.000307  4.056809  0.0  -0.111513  -0.204382  0.00033  4.022161  0.0
C  C105  1  0.69543016  0.07666525  0.21978008  1  -0.186307  -0.000803  3.778911  -0.001  -0.207774  -0.000414  4.036514  0.0  -0.214084  -0.000484  4.05728  0.0  -0.111444  -0.203592  -0.000433  4.02258  -0.001
C  C106  1  0.19542562  0.42332882  0.78022000  1  -0.186444  -0.000654  3.778831  -0.001  -0.207917  -0.000274  4.036451  0.0  -0.214221  -0.000383  4.057227  0.0  -0.111494  -0.203738  -0.000225  4.022502  0.0
C  C107  1  0.30407567  0.57665362  0.28032520  1  -0.187093  -0.000408  3.777986  0.0  -0.20842  -2.3e-05  4.036036  0.0  -0.214724  -0.000163  4.056765  0.0  -0.111517  -0.204239  7.2e-05  4.022107  0.0
N  N108  1  0.90821770  0.75833965  0.70788015  1  -0.156503  0.000982  3.297525  0.001  -0.113255  0.001249  3.551214  0.001  -0.123311  0.000938  3.566878  0.001  -0.169596  -0.105894  0.001589  3.540114  0.002
N  N109  1  0.59139763  0.24169224  0.20794181  1  -0.157156  -0.000155  3.296959  0.0  -0.113957  0.000203  3.550453  0.0  -0.12402  7.5e-05  3.566129  0.0  -0.169212  -0.10658  0.000433  3.539339  0.0
N  N110  1  0.09140449  0.25829774  0.79205590  1  -0.157306  0.000325  3.297141  0.0  -0.114128  0.000643  3.550647  0.0  -0.124188  0.000428  3.566328  0.0  -0.169297  -0.10675  0.000982  3.539525  0.001
N  N111  1  0.40822651  0.74166970  0.29211695  1  -0.156521  0.001233  3.297944  0.001  -0.113288  0.001649  3.551635  0.002  -0.123345  0.001216  3.567303  0.001  -0.169583  -0.105922  0.002176  3.540534  0.002
N  N112  1  0.87005572  0.74953637  0.78363281  1  -0.016971  0.000859  3.59072  0.001  0.060923  0.00248  3.824395  0.002  0.048082  0.001767  3.847654  0.002  -0.128478  0.069359  0.003242  3.808357  0.003
N  N113  1  0.62970530  0.25050708  0.28369653  1  -0.01597  0.000283  3.589707  0.0  0.061979  0.000421  3.823276  0.001  0.04911  0.000344  3.84659  0.001  -0.128451  0.070437  0.000577  3.807188  0.001
N  N114  1  0.12967976  0.24948292  0.71629881  1  -0.016006  -2.6e-05  3.589517  0.0  0.061926  -1.5e-05  3.823103  0.0  0.049057  -6.8e-05  3.846407  0.0  -0.128543  0.070384  0.000113  3.807009  0.0
N  N115  1  0.37010567  0.75047509  0.21636222  1  -0.017019  0.000919  3.590995  0.001  0.06083  0.002534  3.82468  0.002  0.047983  0.00181  3.847946  0.002  -0.128529  0.069267  0.003316  3.808641  0.003
N  N116  1  0.90970612  0.73815820  0.90368943  1  -0.223668  0.023092  3.0914  0.011  -0.173554  0.030036  3.380753  0.014  -0.188419  0.026931  3.394347  0.011  -0.19968  -0.163066  0.032899  3.371687  0.016
N  N117  1  0.59038586  0.26153470  0.40379835  1  -0.223657  0.022295  3.091733  0.008  -0.173167  0.026612  3.380782  0.008  -0.188051  0.024769  3.394324  0.007  -0.199351  -0.162639  0.028055  3.371752  0.009
N  N118  1  0.09035822  0.23844960  0.59620270  1  -0.22387  -0.02232  3.091957  -0.008  -0.173458  -0.026585  3.381089  -0.008  -0.188347  -0.024784  3.39462  -0.007  -0.199467  -0.162931  -0.027973  3.372083  -0.009
N  N119  1  0.40975012  0.76185684  0.09631378  1  -0.223815  0.023118  3.091113  0.011  -0.173687  0.03005  3.38033  0.014  -0.188561  0.026938  3.393917  0.011  -0.199812  -0.16319  0.032918  3.371267  0.016
N  N120  1  0.72847686  0.73977893  0.88938689  1  -0.197101  0.027023  3.13036  0.017  -0.143221  0.0328  3.415378  0.02  -0.156838  0.028997  3.427889  0.016  -0.202995  -0.133489  0.03648  3.406974  0.023
N  N121  1  0.77155514  0.26003531  0.38941744  1  -0.19749  -0.024862  3.130392  -0.014  -0.143592  -0.028279  3.415267  -0.014  -0.157124  -0.02557  3.427665  -0.012  -0.202987  -0.1339  -0.030816  3.406964  -0.016
N  N122  1  0.27153934  0.23994677  0.61057567  1  -0.197429  0.024862  3.130379  0.014  -0.143457  0.028335  3.415148  0.014  -0.156988  0.025571  3.427559  0.012  -0.202947  -0.133775  0.030973  3.406832  0.016
N  N123  1  0.22849230  0.76024044  0.11060536  1  -0.197365  0.027025  3.130323  0.017  -0.143324  0.032804  3.415045  0.02  -0.156934  0.029001  3.427554  0.016  -0.203159  -0.133598  0.036485  3.406645  0.023
O  O124  1  0.88510625  0.37564688  0.51566338  1  -0.640986  -0.028091  2.10155  -0.016  -0.582189  -0.031746  2.372868  -0.016  -0.613561  -0.029484  2.360575  -0.014  -0.305799  -0.558655  -0.033681  2.380456  -0.018
O  O125  1  0.61495014  0.62438785  0.01591189  1  -0.64056  0.031823  2.100592  0.02  -0.581792  0.040492  2.371841  0.025  -0.613051  0.035977  2.35956  0.021  -0.305327  -0.558373  0.045012  2.379329  0.03
O  O126  1  0.11496198  0.87562300  0.98409248  1  -0.640304  0.031816  2.100741  0.02  -0.581534  0.040479  2.371975  0.025  -0.612796  0.035968  2.35971  0.021  -0.305276  -0.558105  0.044985  2.379415  0.03
O  O127  1  0.38508011  0.12434230  0.48434985  1  -0.640845  0.028085  2.101374  0.016  -0.582152  0.031784  2.372777  0.016  -0.613508  0.029473  2.360463  0.014  -0.305743  -0.55861  0.033792  2.380347  0.018
O  O128  1  0.79488463  0.13096001  0.50955775  1  -0.659913  -0.021161  2.05484  -0.012  -0.603814  -0.023741  2.333742  -0.011  -0.633618  -0.021525  2.318835  -0.009  -0.311298  -0.581058  -0.026077  2.343061  -0.013
O  O129  1  0.70632686  0.86887446  0.00965367  1  -0.659388  0.032981  2.055556  0.019  -0.603581  0.045468  2.334824  0.028  -0.633397  0.03986  2.319975  0.023  -0.311247  -0.580872  0.051288  2.344081  0.034
O  O130  1  0.20625241  0.63111341  0.99034922  1  -0.659266  0.032994  2.0554  0.019  -0.603484  0.045477  2.334515  0.028  -0.633306  0.039866  2.319676  0.023  -0.311276  -0.580772  0.051299  2.343777  0.034
O  O131  1  0.29492039  0.36904512  0.49044528  1  -0.659974  0.021141  2.054632  0.012  -0.603906  0.023766  2.333492  0.011  -0.633705  0.021502  2.318596  0.009  -0.311355  -0.581158  0.026161  2.3428  0.013
O  O132  1  0.63131889  0.17049902  0.60983480  1  -0.657802  0.02208  2.002231  0.014  -0.602974  0.025125  2.259004  0.014  -0.631967  0.022921  2.246594  0.012  -0.318873  -0.581105  0.027273  2.266508  0.017
O  O133  1  0.86914273  0.82956251  0.11016923  1  -0.658069  0.029415  2.000833  0.022  -0.603556  0.038277  2.25736  0.029  -0.632433  0.032897  2.245049  0.024  -0.319158  -0.581823  0.043908  2.264726  0.035
O  O134  1  0.36911872  0.67044046  0.88984692  1  -0.657879  0.029426  2.000567  0.022  -0.603478  0.0383  2.257074  0.029  -0.632349  0.032912  2.244753  0.024  -0.319099  -0.58177  0.043948  2.264488  0.035
O  O135  1  0.13134349  0.32949595  0.39017220  1  -0.657857  -0.022095  2.002292  -0.014  -0.603043  -0.025104  2.259047  -0.014  -0.632037  -0.022933  2.246627  -0.012  -0.318908  -0.581183  -0.027197  2.266565  -0.017
O  O136  1  0.61622701  0.37013668  0.57432634  1  -0.638063  0.029071  2.064596  0.016  -0.578944  0.031022  2.337393  0.013  -0.609969  0.028875  2.322495  0.011  -0.314846  -0.555421  0.032816  2.346556  0.015
O  O137  1  0.88452480  0.62938697  0.07406374  1  -0.639149  0.033455  2.065799  0.022  -0.579379  0.040082  2.337728  0.024  -0.610379  0.035392  2.322939  0.02  -0.314698  -0.555957  0.044862  2.346824  0.029
O  O138  1  0.38455501  0.87061982  0.92594735  1  -0.638918  0.03345  2.066041  0.022  -0.579123  0.04007  2.337946  0.024  -0.610124  0.035384  2.323162  0.02  -0.314557  -0.555705  0.044833  2.347025  0.029
O  O139  1  0.11621460  0.12985659  0.42567572  1  -0.638255  -0.029083  2.064591  -0.016  -0.579095  -0.030996  2.337385  -0.013  -0.610122  -0.028891  2.322469  -0.011  -0.314884  -0.555575  -0.032717  2.346579  -0.015
