# generated using pymatgen
data_CoH12(C5N2)2
_symmetry_space_group_name_H-M   'P 1'
_cell_length_a   7.26130147
_cell_length_b   8.73475539
_cell_length_c   8.73479320
_cell_angle_alpha   89.99955715
_cell_angle_beta   90.00020853
_cell_angle_gamma   90.00003021
_symmetry_Int_Tables_number   1
_chemical_formula_structural   CoH12(C5N2)2
_chemical_formula_sum   'Co2 H24 C20 N8'
_cell_volume   554.01030426
_cell_formula_units_Z   2
loop_
 _symmetry_equiv_pos_site_id
 _symmetry_equiv_pos_as_xyz
  1  'x, y, z'
loop_
 _atom_site_type_symbol
 _atom_site_label
 _atom_site_symmetry_multiplicity
 _atom_site_fract_x
 _atom_site_fract_y
 _atom_site_fract_z
 _atom_site_occupancy
 _atom_site_pbe_cm5_charge
 _atom_site_pbe_ddec_charge
 _atom_site_pbe_ddec_spin_density
 _atom_site_pbe_ddec_sum_bond_order
 _atom_site_pbe_magmom
Co  Co0  1  0.99999784  0.99999978  0.00000001  1  0.722182  0.640887  2.631718  2.755339  2.383
Co  Co1  1  0.50000070  0.00000082  0.99999925  1  0.72216  0.640931  -2.631722  2.755318  -2.383
H  H2  1  0.94411496  0.71325144  0.73760859  1  0.095173  0.136783  -9e-06  1.005576  0.0
H  H3  1  0.94411654  0.28674334  0.26239120  1  0.095186  0.136799  -9e-06  1.005665  0.0
H  H4  1  0.55588001  0.28674600  0.73760850  1  0.095183  0.136805  9e-06  1.005571  0.0
H  H5  1  0.44411669  0.26238985  0.28674486  1  0.095201  0.136838  9e-06  1.005687  0.0
H  H6  1  0.05589107  0.26238697  0.71325007  1  0.095186  0.136799  -9e-06  1.005584  0.0
H  H7  1  0.05589029  0.73761315  0.28674816  1  0.095186  0.136798  -9e-06  1.005566  0.0
H  H8  1  0.44411639  0.73760929  0.71325684  1  0.095182  0.136797  9e-06  1.005673  0.0
H  H9  1  0.55588462  0.71325663  0.26239125  1  0.095189  0.136816  9e-06  1.005635  0.0
H  H10  1  0.95904625  0.52098935  0.80617766  1  0.0934  0.134359  -0.000361  1.006705  0.0
H  H11  1  0.95904629  0.47900772  0.19382217  1  0.093401  0.134376  -0.000361  1.006666  0.0
H  H12  1  0.54095314  0.47901099  0.80617604  1  0.093408  0.134366  0.000361  1.006692  0.0
H  H13  1  0.45904829  0.19382508  0.47900614  1  0.09342  0.134365  0.000361  1.006727  0.0
H  H14  1  0.04095666  0.19382369  0.52099047  1  0.093413  0.134357  -0.000361  1.006682  0.0
H  H15  1  0.04095540  0.80617643  0.47900771  1  0.093414  0.134359  -0.000361  1.006716  0.0
H  H16  1  0.45904583  0.80617292  0.52099446  1  0.093421  0.134378  0.000361  1.006684  0.0
H  H17  1  0.54095596  0.52099278  0.19382366  1  0.093421  0.13439  0.000361  1.006679  0.0
H  H18  1  0.82346613  0.65910157  0.90393425  1  0.092079  0.126537  6e-06  1.037731  -0.001
H  H19  1  0.82346978  0.34089315  0.09606289  1  0.092085  0.12658  7e-06  1.037712  -0.001
H  H20  1  0.67653231  0.34089687  0.90393640  1  0.092083  0.126568  -7e-06  1.037709  0.001
H  H21  1  0.32347171  0.09606555  0.34089657  1  0.092085  0.126576  -7e-06  1.037769  0.001
H  H22  1  0.17653180  0.09606315  0.65909965  1  0.092079  0.12656  7e-06  1.037713  -0.001
H  H23  1  0.17653137  0.90393703  0.34090010  1  0.092086  0.126551  7e-06  1.037731  -0.001
H  H24  1  0.32346716  0.90393239  0.65910247  1  0.092099  0.126583  -7e-06  1.037717  0.001
H  H25  1  0.67652928  0.65910695  0.09606372  1  0.092095  0.126588  -7e-06  1.037703  0.001
C  C26  1  0.25000083  0.58327569  0.00000271  1  -0.040674  -0.142839  0.0  4.091195  0.0
C  C27  1  0.24999940  0.41672380  0.00000106  1  -0.040551  -0.142752  -0.0  4.091164  0.0
C  C28  1  0.75000007  0.00000084  0.41671507  1  -0.040529  -0.142716  0.0  4.091067  0.0
C  C29  1  0.75000043  0.00000020  0.58327998  1  -0.04042  -0.142493  0.0  4.090844  0.0
C  C30  1  0.11861460  0.68151407  0.93302135  1  0.088738  0.202078  -0.001681  4.016406  -0.001
C  C31  1  0.11861673  0.31848264  0.06697936  1  0.088756  0.202105  -0.001681  4.016393  -0.001
C  C32  1  0.38138418  0.31848622  0.93302316  1  0.088699  0.20207  0.001681  4.01636  0.001
C  C33  1  0.61861847  0.06697731  0.31848561  1  0.088688  0.202053  0.001681  4.016358  0.001
C  C34  1  0.88138345  0.06697825  0.68151235  1  0.088657  0.201917  -0.00168  4.016479  -0.001
C  C35  1  0.88138569  0.93302222  0.31848725  1  0.088661  0.201884  -0.00168  4.016525  -0.001
C  C36  1  0.61862092  0.93302305  0.68151319  1  0.088675  0.202003  0.00168  4.016393  0.001
C  C37  1  0.38138379  0.68151633  0.06698179  1  0.088825  0.202171  0.001681  4.016347  0.001
C  C38  1  0.95269902  0.64162568  0.84084658  1  -0.234819  -0.418505  9.8e-05  3.959569  0.0
C  C39  1  0.95269882  0.35837024  0.15915438  1  -0.234856  -0.418596  9.8e-05  3.959561  0.0
C  C40  1  0.54730328  0.35837210  0.84084592  1  -0.234832  -0.418569  -9.8e-05  3.959539  0.0
C  C41  1  0.45269654  0.15915715  0.35837032  1  -0.234858  -0.418605  -9.8e-05  3.959678  0.0
C  C42  1  0.04730564  0.15915368  0.64162655  1  -0.234831  -0.418501  9.8e-05  3.959505  0.0
C  C43  1  0.04730525  0.84084644  0.35837279  1  -0.234816  -0.418457  9.8e-05  3.959544  0.0
C  C44  1  0.45269738  0.84084429  0.64163026  1  -0.234861  -0.418585  -9.8e-05  3.959552  0.0
C  C45  1  0.54730189  0.64162938  0.15915496  1  -0.234857  -0.418616  -9.8e-05  3.959623  0.0
N  N46  1  0.16857269  0.82843967  0.95973243  1  -0.294796  -0.270044  0.033743  3.615174  0.041
N  N47  1  0.16857323  0.17155935  0.04026615  1  -0.294788  -0.270057  0.033743  3.615229  0.041
N  N48  1  0.33142482  0.17156156  0.95973292  1  -0.294852  -0.270148  -0.033743  3.615201  -0.041
N  N49  1  0.66857613  0.04026849  0.17155959  1  -0.29487  -0.270175  -0.033742  3.615171  -0.041
N  N50  1  0.83142715  0.04026714  0.82843858  1  -0.294806  -0.270051  0.033744  3.615218  0.041
N  N51  1  0.83142740  0.95973217  0.17155972  1  -0.294777  -0.269971  0.033742  3.615128  0.041
N  N52  1  0.66857372  0.95973303  0.82843936  1  -0.294861  -0.270165  -0.033741  3.61524  -0.041
N  N53  1  0.33142304  0.82844097  0.04026843  1  -0.294861  -0.270182  -0.033742  3.615274  -0.041
