# generated using pymatgen
data_ZnH24C30S(NO)4
_symmetry_space_group_name_H-M   'P 1'
_cell_length_a   11.20798368
_cell_length_b   15.02132200
_cell_length_c   19.28057463
_cell_angle_alpha   104.23085972
_cell_angle_beta   106.37815096
_cell_angle_gamma   102.25064299
_symmetry_Int_Tables_number   1
_chemical_formula_structural   ZnH24C30S(NO)4
_chemical_formula_sum   'Zn4 H96 C120 S4 N16 O16'
_cell_volume   2877.13974449
_cell_formula_units_Z   4
loop_
 _symmetry_equiv_pos_site_id
 _symmetry_equiv_pos_as_xyz
  1  'x, y, z'
loop_
 _atom_site_type_symbol
 _atom_site_label
 _atom_site_symmetry_multiplicity
 _atom_site_fract_x
 _atom_site_fract_y
 _atom_site_fract_z
 _atom_site_occupancy
 _atom_site_pbe_bader_charge
 _atom_site_pbe_bader_spin_density
 _atom_site_pbe_cm5_charge
 _atom_site_pbe_ddec_charge
 _atom_site_pbe_ddec_spin_density
 _atom_site_pbe_ddec_sum_bond_order
 _atom_site_pbe_magmom
Zn  Zn0  1  0.61928946  0.80017648  0.14136258  1  1.254489  0  0.702037  0.810977  0  2.399655  0
Zn  Zn1  1  0.38070900  0.19982453  0.85863878  1  1.25427  0  0.701998  0.810943  0  2.399595  0
Zn  Zn2  1  0.76379537  0.70225059  0.67133199  1  1.255784  0  0.702507  0.828941  0  2.332574  0
Zn  Zn3  1  0.23620295  0.29774539  0.32866736  1  1.255907  0  0.702502  0.828853  0  2.332642  0
H  H4  1  0.33527342  0.92277654  0.00066821  1  0.08857  0  0.108201  0.123423  0  0.995888  0
H  H5  1  0.66472199  0.07721942  0.99933582  1  0.08848  0  0.108288  0.12356  0  0.995857  0
H  H6  1  0.60318779  0.75490414  0.78361189  1  0.073208  0  0.099609  0.106677  0  1.046679  0
H  H7  1  0.39680330  0.24509468  0.21638676  1  0.073242  0  0.099602  0.106658  0  1.046769  0
H  H8  1  0.86660418  0.31091853  0.96723130  1  0.07097  0  0.097613  0.095146  0  1.034137  0
H  H9  1  0.13339148  0.68907529  0.03276407  1  0.070975  0  0.097599  0.095166  0  1.034156  0
H  H10  1  0.14186190  0.90317937  0.87447785  1  0.078429  0  0.105991  0.116373  0  1.011114  0
H  H11  1  0.85813774  0.09682237  0.12552541  1  0.078763  0  0.10598  0.116404  0  1.011103  0
H  H12  1  0.09870873  0.41188790  0.05290958  1  0.098308  0  0.114207  0.100824  0  0.997615  0
H  H13  1  0.90128629  0.58811597  0.94708914  1  0.098319  0  0.114165  0.100797  0  0.99754  0
H  H14  1  0.19568326  0.48507086  0.01789348  1  0.103022  0  0.115862  0.104178  0  0.996355  0
H  H15  1  0.80430845  0.51492941  0.98210399  1  0.103038  0  0.115873  0.10416  0  0.996366  0
H  H16  1  0.67397891  0.29391697  0.85741302  1  0.081146  0  0.104072  0.109417  0  1.019099  0
H  H17  1  0.32601789  0.70607972  0.14258413  1  0.081236  0  0.104098  0.109409  0  1.019124  0
H  H18  1  0.49082264  0.59546134  0.92505512  1  0.106689  0  0.096921  0.107659  0  1.034401  0
H  H19  1  0.50917792  0.40454040  0.07494881  1  0.106761  0  0.096887  0.107652  0  1.034504  0
H  H20  1  0.29232485  0.07265038  0.95123596  1  0.083849  0  0.105184  0.117776  0  1.010376  0
H  H21  1  0.70767227  0.92735207  0.04876751  1  0.083751  0  0.10517  0.11774  0  1.010397  0
H  H22  1  0.10791831  0.50438415  0.89481867  1  0.071983  0  0.091442  0.08482  0  1.081881  0
H  H23  1  0.89207492  0.49561540  0.10518100  1  0.071946  0  0.09145  0.084879  0  1.081899  0
H  H24  1  0.51554369  0.74055469  0.88750418  1  0.068774  0  0.094985  0.092657  0  1.025692  0
H  H25  1  0.48445011  0.25944630  0.11249637  1  0.069056  0  0.094989  0.092683  0  1.025607  0
H  H26  1  0.52077442  0.98468402  0.13557447  1  0.153258  0  0.104919  0.126252  0  1.028069  0
H  H27  1  0.47922873  0.01531702  0.86442666  1  0.153235  0  0.104922  0.126232  0  1.028069  0
H  H28  1  0.39603206  0.40771643  0.90020991  1  0.099849  0  0.107224  0.166473  0  1.016314  0
H  H29  1  0.60396678  0.59228315  0.09979021  1  0.099808  0  0.107289  0.166566  0  1.016335  0
H  H30  1  0.33792558  0.48730359  0.95897704  1  0.109052  0  0.105852  0.167539  0  1.000065  0
H  H31  1  0.66207263  0.51269671  0.04102259  1  0.109031  0  0.105862  0.167548  0  1.000009  0
H  H32  1  0.23812912  0.41836140  0.86323618  1  0.059118  0  0.10345  0.154884  0  0.989182  0
H  H33  1  0.76186498  0.58164031  0.13676405  1  0.070108  0  0.103493  0.15496  0  0.989148  0
H  H34  1  0.55418315  0.45478964  0.85990503  1  0.108167  0  0.105503  0.119654  0  1.02286  0
H  H35  1  0.44581777  0.54521066  0.14009817  1  0.10818  0  0.105524  0.119673  0  1.022829  0
H  H36  1  0.03923712  0.16098745  0.39989824  1  0.130145  0  0.121312  0.11437  0  0.97328  0
H  H37  1  0.96076785  0.83900641  0.60009925  1  0.130021  0  0.121349  0.114443  0  0.97315  0
H  H38  1  0.10350342  0.07097240  0.36326511  1  0.077795  0  0.114822  0.101027  0  0.980357  0
H  H39  1  0.89649990  0.92902649  0.63673097  1  0.077955  0  0.114853  0.101087  0  0.980274  0
H  H40  1  0.03170948  0.26021626  0.06724483  1  0.083635  0  0.099659  0.107216  0  1.039596  0
H  H41  1  0.96828649  0.73978547  0.93275571  1  0.083734  0  0.09966  0.107262  0  1.039563  0
H  H42  1  0.34535063  0.85620945  0.58554606  1  0.050858  0  0.113671  0.094378  0  0.993497  0
H  H43  1  0.65465765  0.14379737  0.41445600  1  0.051068  0  0.11364  0.094301  0  0.99354  0
H  H44  1  0.40955269  0.97332907  0.65321409  1  0.079397  0  0.120305  0.11442  0  0.978221  0
H  H45  1  0.59045499  0.02667414  0.34679082  1  0.079709  0  0.120328  0.114395  0  0.978198  0
H  H46  1  0.92793642  0.91083540  0.80329965  1  0.094492  0  0.102782  0.12131  0  1.044754  0
H  H47  1  0.07207133  0.08916064  0.19669717  1  0.094654  0  0.102835  0.121311  0  1.044683  0
H  H48  1  0.91788493  0.48861590  0.78560726  1  0.126227  0  0.100677  0.114629  0  1.04171  0
H  H49  1  0.08210980  0.51138509  0.21439346  1  0.126243  0  0.100648  0.114578  0  1.041756  0
H  H50  1  0.51026763  0.68530974  0.54132765  1  0.117955  0  0.104033  0.15836  0  1.013572  0
H  H51  1  0.48973118  0.31468984  0.45867349  1  0.1179  0  0.104023  0.158342  0  1.013557  0
H  H52  1  0.37377260  0.72305671  0.55298419  1  0.056338  0  0.105333  0.153551  0  0.991641  0
H  H53  1  0.62623051  0.27694433  0.44701849  1  0.056285  0  0.105346  0.153577  0  0.991649  0
H  H54  1  0.44609291  0.65901822  0.61047859  1  0.061568  0  0.111169  0.16736  0  0.9689  0
H  H55  1  0.55391048  0.34098354  0.38952428  1  0.061637  0  0.111166  0.167351  0  0.968917  0
H  H56  1  0.91411465  0.85413368  0.32372664  1  0.068048  0  0.105758  0.16036  0  0.981571  0
H  H57  1  0.08588057  0.14586156  0.67627256  1  0.068534  0  0.105743  0.160366  0  0.981564  0
H  H58  1  0.02925012  0.90602496  0.28632685  1  0.067991  0  0.102448  0.151428  0  1.003343  0
H  H59  1  0.97074337  0.09396596  0.71367123  1  0.067905  0  0.102436  0.151452  0  1.003232  0
H  H60  1  0.88334828  0.81308261  0.22363889  1  0.087071  0  0.105222  0.158301  0  0.994284  0
H  H61  1  0.11664452  0.18691119  0.77635910  1  0.086984  0  0.105187  0.158295  0  0.994326  0
H  H62  1  0.20630698  0.03174950  0.47341532  1  0.07246  0  0.095716  0.096428  0  1.036201  0
H  H63  1  0.79370298  0.96824511  0.52658161  1  0.072596  0  0.095702  0.096437  0  1.03617  0
H  H64  1  0.74861041  0.50435617  0.59296299  1  0.16228  0  0.1048  0.176244  0  1.03645  0
H  H65  1  0.25138309  0.49564410  0.40703789  1  0.162479  0  0.104795  0.176231  0  1.03647  0
H  H66  1  0.64628901  0.39111345  0.58740301  1  0.032472  0  0.094036  0.133302  0  1.016122  0
H  H67  1  0.35370732  0.60888683  0.41259681  1  0.032512  0  0.094058  0.133335  0  1.016097  0
H  H68  1  0.81285432  0.43848942  0.64992364  1  0.086302  0  0.109385  0.168977  0  0.967056  0
H  H69  1  0.18714012  0.56151302  0.35007471  1  0.0862  0  0.109424  0.169077  0  0.967092  0
H  H70  1  0.04125138  0.10331212  0.08394070  1  0.063097  0  0.096108  0.089633  0  1.055207  0
H  H71  1  0.95874443  0.89669176  0.91606386  1  0.063222  0  0.096061  0.089614  0  1.055303  0
H  H72  1  0.66797133  0.33039316  0.69104508  1  0.079699  0  0.119692  0.10811  0  0.965072  0
H  H73  1  0.33202163  0.66960567  0.30895337  1  0.079678  0  0.119658  0.10804  0  0.965177  0
H  H74  1  0.57659092  0.33463472  0.75200567  1  0.074379  0  0.113481  0.09688  0  1.040365  0
H  H75  1  0.42340489  0.66536197  0.24799389  1  0.074453  0  0.113529  0.096947  0  1.040338  0
H  H76  1  0.60878618  0.09690583  0.73946411  1  0.112726  0  0.106898  0.125821  0  1.008226  0
H  H77  1  0.39122189  0.90309596  0.26053852  1  0.112571  0  0.106891  0.125819  0  1.008171  0
H  H78  1  0.51327907  0.15390036  0.18015236  1  0.042971  0  0.098108  0.097806  0  1.024643  0
H  H79  1  0.48672563  0.84610213  0.81984723  1  0.04287  0  0.098082  0.097772  0  1.024669  0
H  H80  1  0.16924236  0.01143910  0.02938990  1  0.074778  0  0.097994  0.098587  0  1.023835  0
H  H81  1  0.83075624  0.98856479  0.97061515  1  0.07475  0  0.09798  0.098626  0  1.023694  0
H  H82  1  0.88950084  0.24031170  0.35989079  1  0.07728  0  0.111782  0.127777  0  0.989807  0
H  H83  1  0.11050466  0.75968576  0.64010695  1  0.077361  0  0.111789  0.12777  0  0.989771  0
H  H84  1  0.73051212  0.59569136  0.25865159  1  0.111983  0  0.106994  0.12156  0  1.004604  0
H  H85  1  0.26948455  0.40430965  0.74134635  1  0.09456  0  0.107022  0.121589  0  1.004545  0
H  H86  1  0.43097043  0.09610352  0.59791330  1  0.15216  0  0.095591  0.111126  0  1.073629  0
H  H87  1  0.56903679  0.90390545  0.40209107  1  0.152097  0  0.095614  0.111143  0  1.073514  0
H  H88  1  0.69480820  0.27902480  0.28944665  1  0.060335  0  0.101887  0.102997  0  0.996092  0
H  H89  1  0.30519718  0.72097482  0.71055356  1  0.060221  0  0.10188  0.102956  0  0.996156  0
H  H90  1  0.80780888  0.03453083  0.42326476  1  0.068874  0  0.099347  0.101183  0  1.028374  0
H  H91  1  0.19219726  0.96546592  0.57673296  1  0.068789  0  0.099442  0.101221  0  1.02834  0
H  H92  1  0.98267544  0.08718524  0.87578935  1  0.059359  0  0.091107  0.088811  0  1.056957  0
H  H93  1  0.01733572  0.91281009  0.12420896  1  0.059446  0  0.091094  0.088753  0  1.057025  0
H  H94  1  0.51348133  0.83652334  0.49757380  1  0.042317  0  0.091931  0.088134  0  1.049907  0
H  H95  1  0.48652687  0.16348348  0.50243136  1  0.042318  0  0.091927  0.088123  0  1.049884  0
H  H96  1  0.82619274  0.17702298  0.84353520  1  0.078568  0  0.090956  0.091884  0  1.059653  0
H  H97  1  0.17381678  0.82297090  0.15646774  1  0.078035  0  0.090931  0.091833  0  1.059651  0
H  H98  1  0.80656609  0.53693819  0.37939298  1  0.126895  0  0.114771  0.134722  0  0.978444  0
H  H99  1  0.19343939  0.46306143  0.62060309  1  0.12695  0  0.114772  0.134739  0  0.978506  0
C  C100  1  0.22897503  0.20071263  0.96551141  1  0.393773  0  0.083981  0.139931  0  4.090578  0
C  C101  1  0.77101836  0.79928979  0.03449142  1  0.39417  0  0.084004  0.1399  0  4.090239  0
C  C102  1  0.26023532  0.33664015  0.94010412  1  0.985897  0  0.240696  0.384367  0  3.934443  0
C  C103  1  0.73976340  0.66336158  0.05989846  1  0.986644  0  0.24071  0.384464  0  3.934496  0
C  C104  1  0.00191418  0.40598941  0.93681625  1  -0.008117  0  -0.016055  0.082018  0  3.973884  0
C  C105  1  0.99807695  0.59400941  0.06318085  1  -0.007955  0  -0.015961  0.082238  0  3.973831  0
C  C106  1  0.73722456  0.90628218  0.73341378  1  0.376268  0  0.083154  0.142025  0  4.083287  0
C  C107  1  0.26278649  0.09371747  0.26658430  1  0.376476  0  0.083121  0.142015  0  4.083246  0
C  C108  1  0.68315303  0.50712610  0.68713277  1  1.021238  0  0.242784  0.393726  0  3.939971  0
C  C109  1  0.31684111  0.49287346  0.31286809  1  1.021266  0  0.242706  0.393617  0  3.940138  0
C  C110  1  0.62381601  0.61128741  0.76203969  1  0.374857  0  0.081588  0.147054  0  4.063955  0
C  C111  1  0.37617657  0.38871285  0.23796053  1  0.374605  0  0.081628  0.147067  0  4.063974  0
C  C112  1  0.15769456  0.25380003  0.99902087  1  0.26569  0  0.092643  0.092302  0  4.022561  0
C  C113  1  0.84230070  0.74620241  0.00098228  1  0.349099  0  0.092602  0.09227  0  4.022408  0
C  C114  1  0.29756134  0.76773098  0.95801704  1  -0.238377  0  -0.030632  -0.133851  0  4.000485  0
C  C115  1  0.70243664  0.23226644  0.04198200  1  -0.224798  0  -0.030673  -0.13385  0  4.00028  0
C  C116  1  0.11724421  0.74952386  0.84136779  1  -0.191329  0  -0.023215  -0.118809  0  3.979644  0
C  C117  1  0.88275984  0.25047719  0.15863454  1  -0.190524  0  -0.02316  -0.11873  0  3.979476  0
C  C118  1  0.56052170  0.80471299  0.64094677  1  0.995506  0  0.236339  0.367847  0  3.944637  0
C  C119  1  0.43948432  0.19528807  0.35905174  1  0.995093  0  0.2362  0.367669  0  3.944793  0
C  C120  1  0.27737734  0.85502742  0.95524141  1  -0.016075  0  -0.099109  -0.115256  0  3.998969  0
C  C121  1  0.72261843  0.14496927  0.04475970  1  -0.015653  0  -0.09917  -0.115385  0  3.998792  0
C  C122  1  0.70980763  0.01863205  0.22282328  1  0.39911  0  0.084448  0.145655  0  4.06947  0
C  C123  1  0.29019063  0.98136393  0.77717865  1  0.39909  0  0.084436  0.145664  0  4.069453  0
C  C124  1  0.63125751  0.75936321  0.27848300  1  1.572852  0  0.187484  0.55889  0  4.312997  0
C  C125  1  0.36873908  0.24063780  0.72151804  1  1.572656  0  0.187479  0.55879  0  4.313162  0
C  C126  1  0.61085783  0.52850673  0.78504730  1  0.303756  0  0.090219  0.093047  0  4.019058  0
C  C127  1  0.38914127  0.47149357  0.21495403  1  0.303884  0  0.090168  0.093055  0  4.018893  0
C  C128  1  0.64917423  0.95886225  0.71483104  1  0.303519  0  0.088402  0.083014  0  4.038969  0
C  C129  1  0.35083954  0.04113957  0.28516843  1  0.303326  0  0.088463  0.082833  0  4.039203  0
C  C130  1  0.39115821  0.74713603  0.01877458  1  1.566652  0  0.191983  0.570907  0  4.279399  0
C  C131  1  0.60883821  0.25286210  0.98122381  1  1.553082  0  0.192019  0.570971  0  4.279175  0
C  C132  1  0.59088245  0.68967975  0.79935996  1  -0.011989  0  -0.099271  -0.166737  0  3.990242  0
C  C133  1  0.40910890  0.31031979  0.20063991  1  -0.011974  0  -0.099261  -0.166758  0  3.990558  0
C  C134  1  0.46659711  0.96122808  0.55389552  1  -0.005426  0  -0.017485  0.084203  0  3.968495  0
C  C135  1  0.53340832  0.03877873  0.44610813  1  -0.005841  0  -0.017596  0.084015  0  3.96862  0
C  C136  1  0.87868395  0.34791353  0.92635986  1  -0.078591  0  -0.090151  -0.124311  0  3.971634  0
C  C137  1  0.12131233  0.65207957  0.07363651  1  -0.079001  0  -0.090252  -0.12458  0  3.971719  0
C  C138  1  0.78278664  0.38648643  0.81211995  1  -0.011404  0  -0.014118  0.083721  0  3.971904  0
C  C139  1  0.21720975  0.61351386  0.18787729  1  -0.011076  0  -0.014043  0.083877  0  3.971982  0
C  C140  1  0.67885746  0.70595914  0.33014838  1  -0.24702  0  -0.034433  -0.143684  0  4.004064  0
C  C141  1  0.32114036  0.29404259  0.66985301  1  -0.246848  0  -0.034423  -0.143624  0  4.004086  0
C  C142  1  0.17450340  0.84452502  0.88855128  1  -0.007701  0  -0.098419  -0.112254  0  4.01039  0
C  C143  1  0.82549695  0.15547385  0.11145156  1  -0.008985  0  -0.098436  -0.112347  0  4.010367  0
C  C144  1  0.12175612  0.41548391  0.00187795  1  0.273561  0  -0.047363  -0.101181  0  3.895726  0
C  C145  1  0.87823837  0.58451637  0.99812052  1  0.273844  0  -0.047384  -0.101132  0  3.895791  0
C  C146  1  0.76997300  0.33837821  0.86443207  1  -0.07502  0  -0.086672  -0.122874  0  3.962817  0
C  C147  1  0.23002124  0.66161919  0.13556684  1  -0.075034  0  -0.086667  -0.122786  0  3.963137  0
C  C148  1  0.00132041  0.70484313  0.76993659  1  1.617519  0  0.191949  0.56758  0  4.290046  0
C  C149  1  0.99868058  0.29515718  0.23006403  1  1.617522  0  0.191975  0.567634  0  4.290058  0
C  C150  1  0.81192397  0.08966549  0.28659392  1  0.265857  0  0.09277  0.086792  0  4.021276  0
C  C151  1  0.18807867  0.91033196  0.71340592  1  0.265803  0  0.09271  0.08673  0  4.021221  0
C  C152  1  0.52938360  0.59777587  0.87934096  1  -0.076152  0  -0.101461  -0.091323  0  4.008239  0
C  C153  1  0.47061679  0.40222300  0.12066033  1  -0.076216  0  -0.101407  -0.091218  0  4.008185  0
C  C154  1  0.85602160  0.94920065  0.26433997  1  1.014018  0  0.239135  0.378744  0  3.933422  0
C  C155  1  0.14398018  0.05079679  0.73565713  1  1.014947  0  0.239177  0.378769  0  3.933484  0
C  C156  1  0.00868416  0.03914195  0.44145427  1  -0.041887  0  -0.015579  0.07563  0  3.985041  0
C  C157  1  0.99132086  0.96085191  0.55854116  1  -0.042322  0  -0.015655  0.075554  0  3.98512  0
C  C158  1  0.23483662  0.11242871  0.97561169  1  -0.051976  0  -0.096227  -0.16913  0  3.987993  0
C  C159  1  0.76516106  0.88757517  0.02439319  1  -0.051586  0  -0.096186  -0.168949  0  3.98778  0
C  C160  1  0.01351262  0.45567103  0.88524572  1  -0.036269  0  -0.096881  -0.139899  0  4.012097  0
C  C161  1  0.98648122  0.54432996  0.11475329  1  -0.035924  0  -0.09694  -0.140103  0  4.012338  0
C  C162  1  0.54300566  0.68114551  0.85754508  1  -0.023389  0  -0.101007  -0.092224  0  4.037459  0
C  C163  1  0.45699028  0.31885621  0.14245650  1  -0.023572  0  -0.101007  -0.092253  0  4.037493  0
C  C164  1  0.59993969  0.04030427  0.18378321  1  -0.032816  0  -0.094183  -0.159399  0  3.968289  0
C  C165  1  0.40006232  0.95969389  0.81621614  1  -0.033116  0  -0.094187  -0.159373  0  3.96821  0
C  C166  1  0.31108879  0.41722260  0.91464152  1  -0.059749  0  -0.230311  -0.48214  0  3.910714  0
C  C167  1  0.68891090  0.58277915  0.08535967  1  -0.070667  0  -0.230474  -0.482416  0  3.910947  0
C  C168  1  0.56458456  0.51994871  0.84386879  1  -0.033397  0  -0.09774  -0.165531  0  3.993913  0
C  C169  1  0.43541397  0.48005015  0.15613217  1  -0.033327  0  -0.097777  -0.165634  0  3.993751  0
C  C170  1  0.02022684  0.08257245  0.37959531  1  0.281721  0  -0.040477  -0.088957  0  3.880535  0
C  C171  1  0.97977905  0.91742358  0.62040068  1  0.281538  0  -0.040495  -0.089161  0  3.880557  0
C  C172  1  0.08757715  0.22016686  0.04155158  1  0.005678  0  -0.094521  -0.157848  0  3.987789  0
C  C173  1  0.91241633  0.77983341  0.95844983  1  -0.07821  0  -0.094537  -0.157925  0  3.987921  0
C  C174  1  0.43179457  0.92005229  0.61243714  1  0.329265  0  -0.043816  -0.102572  0  3.90454  0
C  C175  1  0.56820910  0.07995019  0.38756643  1  0.329194  0  -0.043761  -0.102352  0  3.904584  0
C  C176  1  0.74564915  0.64932305  0.44127028  1  -0.19407  0  -0.02873  -0.120932  0  3.985955  0
C  C177  1  0.25435565  0.35067729  0.55872789  1  -0.194218  0  -0.028713  -0.120846  0  3.985831  0
C  C178  1  0.85980925  0.95178197  0.79105704  1  -0.03364  0  -0.098378  -0.166962  0  3.980247  0
C  C179  1  0.14019687  0.04821478  0.20894172  1  -0.033542  0  -0.098377  -0.166874  0  3.980008  0
C  C180  1  0.90559815  0.44653209  0.82340754  1  -0.103676  0  -0.09544  -0.138926  0  3.972167  0
C  C181  1  0.09439392  0.55346674  0.17658971  1  -0.104282  0  -0.095383  -0.138848  0  3.972022  0
C  C182  1  0.46642375  0.71361156  0.58295330  1  -0.055396  0  -0.226624  -0.478076  0  3.93391  0
C  C183  1  0.53357939  0.28638948  0.41704783  1  -0.055112  0  -0.226602  -0.478054  0  3.933984  0
C  C184  1  0.92470798  0.87670013  0.27506915  1  -0.028956  0  -0.227264  -0.46763  0  3.923045  0
C  C185  1  0.07528697  0.12329440  0.72492935  1  -0.029758  0  -0.227239  -0.467699  0  3.922965  0
C  C186  1  0.11534036  0.01799342  0.48481951  1  -0.06242  0  -0.095232  -0.13669  0  4.014256  0
C  C187  1  0.88466408  0.98199900  0.51517554  1  -0.062651  0  -0.095114  -0.136501  0  4.01413  0
C  C188  1  0.72444327  0.45755568  0.62583876  1  -0.072261  0  -0.234389  -0.485331  0  3.933839  0
C  C189  1  0.27554932  0.54244458  0.37416094  1  -0.072492  0  -0.234476  -0.485483  0  3.934038  0
C  C190  1  0.09388444  0.13206615  0.05088990  1  -0.00814  0  -0.095935  -0.080848  0  4.018825  0
C  C191  1  0.90611116  0.86793485  0.94911356  1  -0.008163  0  -0.09593  -0.080828  0  4.018936  0
C  C192  1  0.66400767  0.37352796  0.74484665  1  0.322969  0  -0.044972  -0.10006  0  3.906238  0
C  C193  1  0.33598467  0.62647159  0.25515131  1  0.322794  0  -0.044978  -0.100072  0  3.906384  0
C  C194  1  0.67780495  0.05688851  0.75325424  1  -0.013804  0  -0.095362  -0.162286  0  3.98955  0
C  C195  1  0.32220475  0.94311257  0.24674646  1  -0.013381  0  -0.0954  -0.162256  0  3.989534  0
C  C196  1  0.59706729  0.13458201  0.20965533  1  -0.085475  0  -0.100654  -0.093755  0  4.034545  0
C  C197  1  0.40293813  0.86541761  0.79034333  1  -0.085167  0  -0.10061  -0.093723  0  4.034486  0
C  C198  1  0.16679049  0.07938725  0.01923056  1  -0.015851  0  -0.098403  -0.093149  0  4.022344  0
C  C199  1  0.83320355  0.92061446  0.98077225  1  -0.016216  0  -0.098393  -0.093275  0  4.022061  0
C  C200  1  0.80929807  0.18443160  0.31238957  1  0.051605  0  -0.095378  -0.168535  0  4.005288  0
C  C201  1  0.19070923  0.81556803  0.68760890  1  0.052022  0  -0.095381  -0.168555  0  4.005261  0
C  C202  1  0.72594871  0.62777891  0.31452678  1  -0.042068  0  -0.097616  -0.100973  0  3.997273  0
C  C203  1  0.27404463  0.37221848  0.68547094  1  -0.024718  0  -0.097666  -0.101021  0  3.997245  0
C  C204  1  0.46057280  0.05361975  0.55471769  1  -0.132135  0  -0.09735  -0.139202  0  3.980908  0
C  C205  1  0.53943263  0.94638705  0.44528596  1  -0.131644  0  -0.097365  -0.139151  0  3.980725  0
C  C206  1  0.69990654  0.20550776  0.27239709  1  -0.030475  0  -0.09637  -0.087171  0  4.028203  0
C  C207  1  0.30009598  0.79449184  0.72760521  1  -0.03088  0  -0.096342  -0.087084  0  4.028058  0
C  C208  1  0.89303776  0.02030702  0.45714262  1  -0.023218  0  -0.094297  -0.125242  0  3.976805  0
C  C209  1  0.10696899  0.97968901  0.54285663  1  -0.02399  0  -0.094335  -0.125134  0  3.976734  0
C  C210  1  0.88866066  0.04941175  0.82997728  1  -0.018107  0  -0.102861  -0.090267  0  4.026802  0
C  C211  1  0.11134854  0.95058789  0.17001995  1  -0.01817  0  -0.102852  -0.090179  0  4.026822  0
C  C212  1  0.50661846  0.90834917  0.49894004  1  -0.034574  0  -0.098975  -0.136552  0  3.995917  0
C  C213  1  0.49338976  0.09165765  0.50106409  1  -0.034112  0  -0.09896  -0.136453  0  3.9958  0
C  C214  1  0.77607731  0.63712542  0.51791181  1  1.61116  0  0.189207  0.564616  0  4.308933  0
C  C215  1  0.22393095  0.36287205  0.48208797  1  1.61077  0  0.189176  0.564556  0  4.308944  0
C  C216  1  0.79935901  0.10079011  0.81158769  1  -0.067314  0  -0.102386  -0.090109  0  4.019352  0
C  C217  1  0.20065136  0.89921025  0.18841195  1  -0.067193  0  -0.102417  -0.090141  0  4.019466  0
C  C218  1  0.76496218  0.59596363  0.37797784  1  -0.019793  0  -0.09721  -0.113224  0  3.996279  0
C  C219  1  0.23504104  0.40403742  0.62202019  1  -0.019721  0  -0.09721  -0.11332  0  3.996239  0
S  S220  1  0.19192621  0.67400084  0.87809445  1  0.269515  0  0.10915  0.161574  0  2.97781  0
S  S221  1  0.80806988  0.32599873  0.12190311  1  0.269349  0  0.109152  0.16154  0  2.977615  0
S  S222  1  0.68086484  0.73873362  0.42269606  1  0.246586  0  0.095663  0.153211  0  2.958517  0
S  S223  1  0.31913471  0.26126309  0.57730312  1  0.246658  0  0.095662  0.153215  0  2.958296  0
N  N224  1  0.28945092  0.25362258  0.92831898  1  -1.234558  0  -0.358597  -0.415363  0  3.504651  0
N  N225  1  0.71054499  0.74637914  0.07168364  1  -1.234772  0  -0.35855  -0.415251  0  3.504525  0
N  N226  1  0.67867815  0.81067661  0.68658167  1  -1.248215  0  -0.355896  -0.405352  0  3.457339  0
N  N227  1  0.32133006  0.18932303  0.31341747  1  -1.248125  0  -0.355799  -0.405232  0  3.457386  0
N  N228  1  0.74121827  0.93267845  0.21033184  1  -1.228562  0  -0.356703  -0.411309  0  3.495409  0
N  N229  1  0.25877847  0.06731824  0.78966789  1  -1.2289  0  -0.356653  -0.411303  0  3.495505  0
N  N230  1  0.17972496  0.33885575  0.98177649  1  -1.214529  0  -0.235716  -0.069755  0  3.677911  0
N  N231  1  0.82027283  0.66114598  0.01822593  1  -1.215367  0  -0.235709  -0.069906  0  3.678022  0
N  N232  1  0.53898781  0.89265314  0.65603529  1  -1.188556  0  -0.23645  -0.071917  0  3.694432  0
N  N233  1  0.46102007  0.10734793  0.34396355  1  -1.18903  0  -0.236442  -0.071803  0  3.694643  0
N  N234  1  0.66938054  0.59564653  0.70090934  1  -1.236562  0  -0.359134  -0.426079  0  3.470995  0
N  N235  1  0.33061484  0.40435375  0.29909135  1  -1.236662  0  -0.359072  -0.425942  0  3.470889  0
N  N236  1  0.64918820  0.46479678  0.73675572  1  -1.231066  0  -0.238416  -0.071974  0  3.68577  0
N  N237  1  0.35080716  0.53520350  0.26324549  1  -1.231081  0  -0.23839  -0.071936  0  3.685623  0
N  N238  1  0.90247509  0.04307310  0.31136387  1  -1.234324  0  -0.235348  -0.070885  0  3.671304  0
N  N239  1  0.09752479  0.95692433  0.68863446  1  -1.234179  0  -0.235388  -0.070783  0  3.671128  0
O  O240  1  0.62253688  0.72057990  0.20815393  1  -1.17481  0  -0.338884  -0.569559  0  2.370354  0
O  O241  1  0.37746317  0.27942040  0.79184705  1  -1.174787  0  -0.338911  -0.569565  0  2.37038  0
O  O242  1  0.39277831  0.66230874  0.01219774  1  -1.167434  0  -0.328856  -0.561442  0  2.132974  0
O  O243  1  0.60722008  0.33768725  0.98779902  1  -1.167355  0  -0.328909  -0.561529  0  2.132971  0
O  O244  1  0.46687904  0.82276916  0.07704571  1  -1.170543  0  -0.337563  -0.55722  0  2.321064  0
O  O245  1  0.53311643  0.17722896  0.92295303  1  -1.170574  0  -0.337556  -0.557178  0  2.320962  0
O  O246  1  0.94173030  0.76404989  0.74762437  1  -1.170696  0  -0.33777  -0.558119  0  2.312541  0
O  O247  1  0.05827133  0.23594971  0.25237622  1  -1.170744  0  -0.337743  -0.558089  0  2.312595  0
O  O248  1  0.73808610  0.69397815  0.56468326  1  -1.186673  0  -0.351277  -0.598759  0  2.384786  0
O  O249  1  0.26191992  0.30602075  0.43531744  1  -1.186544  0  -0.351261  -0.598696  0  2.384988  0
O  O250  1  0.96644743  0.61582597  0.73796391  1  -1.182385  0  -0.321457  -0.543547  0  2.148393  0
O  O251  1  0.03355174  0.38417433  0.26203433  1  -1.182378  0  -0.321496  -0.543587  0  2.148383  0
O  O252  1  0.60159068  0.83383857  0.30260685  1  -1.183781  0  -0.32903  -0.554885  0  2.151136  0
O  O253  1  0.39840686  0.16616245  0.69739383  1  -1.183674  0  -0.329008  -0.554812  0  2.151207  0
O  O254  1  0.83281404  0.57772154  0.53228112  1  -1.152318  0  -0.320883  -0.517284  0  2.087753  0
O  O255  1  0.16719912  0.42228100  0.46771734  1  -1.152089  0  -0.320879  -0.517295  0  2.087567  0
