# generated using pymatgen
data_Al4H28C46O25
_symmetry_space_group_name_H-M   'P 1'
_cell_length_a   6.67905703
_cell_length_b   18.05112151
_cell_length_c   20.82829412
_cell_angle_alpha   72.22194562
_cell_angle_beta   90.65993487
_cell_angle_gamma   91.25100993
_symmetry_Int_Tables_number   1
_chemical_formula_structural   Al4H28C46O25
_chemical_formula_sum   'Al4 H28 C46 O25'
_cell_volume   2390.63469834
_cell_formula_units_Z   1
loop_
 _symmetry_equiv_pos_site_id
 _symmetry_equiv_pos_as_xyz
  1  'x, y, z'
loop_
 _atom_site_type_symbol
 _atom_site_label
 _atom_site_symmetry_multiplicity
 _atom_site_fract_x
 _atom_site_fract_y
 _atom_site_fract_z
 _atom_site_occupancy
 _atom_site_pbe_bader_charge
 _atom_site_pbe_bader_spin_density
 _atom_site_pbe_cm5_charge
 _atom_site_pbe_ddec_charge
 _atom_site_pbe_ddec_spin_density
 _atom_site_pbe_ddec_sum_bond_order
 _atom_site_pbe_magmom
Al  Al0  1  0.11805063  0.50062631  0.49921015  1  2.502713  0  0.404935  1.643441  0  2.579255  0
Al  Al1  1  0.61814890  0.50149647  0.49883268  1  2.501833  0  0.404044  1.640919  0  2.583835  0
Al  Al2  1  0.62596849  0.00061819  0.99977342  1  2.501111  0  0.405139  1.645289  0  2.580732  0
Al  Al3  1  0.12597170  0.00068505  0.00020588  1  2.501288  0  0.404789  1.645751  0  2.580884  0
H  H4  1  0.22338496  0.72448273  0.72744525  1  0.052788  0  0.103467  0.109232  0  0.998932  0
H  H5  1  0.03271600  0.68493483  0.85501355  1  0.090972  0  0.104664  0.106803  0  0.986186  0
H  H6  1  0.52845126  0.78483443  0.76620131  1  0.067726  0  0.103808  0.112391  0  0.996768  0
H  H7  1  0.02638206  0.21284285  0.22585848  1  0.09541  0  0.101077  0.110645  0  0.999655  0
H  H8  1  0.54288566  0.31870609  0.14808936  1  0.081887  0  0.105594  0.12139  0  0.983453  0
H  H9  1  0.15134445  0.89419794  0.65279529  1  0.605692  0  0.322949  0.353091  0  0.917302  0
H  H10  1  0.11492292  0.38341522  0.15035829  1  0.607143  0  0.332772  0.362521  0  0.883549  0
H  H11  1  0.77875568  0.33254261  0.28129237  1  0.640564  0  0.340907  0.376943  0  0.866148  0
H  H12  1  0.54203840  0.95930174  0.51150842  1  0.048578  0  0.090679  0.121767  0  1.002456  0
H  H13  1  0.33568267  0.90807416  0.55784833  1  -0.005221  0  0.079321  0.091363  0  1.024192  0
H  H14  1  0.39926120  0.00359783  0.56052110  1  -0.005221  0  0.089788  0.117602  0  0.999187  0
H  H15  1  0.51422275  0.90581237  0.66709463  1  0.015112  0  0.08755  0.073079  0  0.996215  0
H  H16  1  0.72102953  0.95504307  0.62089263  1  0.038682  0  0.092511  0.086638  0  0.974421  0
H  H17  1  0.79165745  0.84391482  0.57895451  1  0.031676  0  0.093261  0.088751  0  0.979559  0
H  H18  1  0.56546373  0.79669224  0.61201974  1  0.050343  0  0.094958  0.093685  0  0.97371  0
H  H19  1  0.59916958  0.61593260  0.83981118  1  0.601166  0  0.333102  0.361268  0  0.885099  0
H  H20  1  0.03554707  0.04363965  0.48724579  1  0.025087  0  0.083287  0.107605  0  1.012873  0
H  H21  1  0.82085406  0.08503869  0.43980869  1  0.042418  0  0.084757  0.11071  0  1.015963  0
H  H22  1  0.89614826  0.99046900  0.44211426  1  0.020496  0  0.085153  0.110876  0  1.007165  0
H  H23  1  0.99899824  0.08736999  0.33211735  1  0.000323  0  0.083489  0.057064  0  1.002907  0
H  H24  1  0.21073368  0.04662087  0.37898853  1  0.042203  0  0.09309  0.089089  0  0.973963  0
H  H25  1  0.26314866  0.16251233  0.41811763  1  0.031715  0  0.097595  0.098078  0  0.968548  0
H  H26  1  0.03627854  0.20259003  0.37990656  1  0.033922  0  0.095978  0.099337  0  0.986707  0
H  H27  1  0.70347295  0.11784078  0.30920951  1  0.602162  0  0.326223  0.354513  0  0.910562  0
H  H28  1  0.37229488  0.59120619  0.51212723  1  0.61246  0  0.356679  0.437367  0  0.846272  0
H  H29  1  0.86188448  0.40086639  0.53764978  1  0.649894  0  0.358848  0.441033  0  0.839463  0
H  H30  1  0.37016742  0.90661777  0.99348665  1  0.629082  0  0.360634  0.441028  0  0.837631  0
H  H31  1  0.88064451  0.09521194  0.00560066  1  0.610717  0  0.360113  0.440047  0  0.839649  0
C  C32  1  0.36428135  0.42424093  0.42312015  1  1.647033  0  0.276832  0.719012  0  4.163254  0
C  C33  1  0.36373415  0.39314145  0.60340405  1  1.687787  0  0.277099  0.709498  0  4.171678  0
C  C34  1  0.87228557  0.58122492  0.57408575  1  1.674191  0  0.27342  0.724086  0  4.158191  0
C  C35  1  0.87443949  0.60584783  0.39506953  1  1.716201  0  0.280652  0.70475  0  4.175338  0
C  C36  1  0.87406624  0.66756331  0.33188764  1  0.15919  0  -0.000956  -0.144894  0  3.847575  0
C  C37  1  0.87281254  0.72037358  0.27862754  1  -0.234321  0  -0.005164  0.032088  0  4.237906  0
C  C38  1  0.87176875  0.77850334  0.21971662  1  -0.428951  0  -0.005791  0.031128  0  4.235984  0
C  C39  1  0.87092793  0.83107691  0.16627082  1  0.275082  0  -0.001904  -0.142708  0  3.847301  0
C  C40  1  0.78643260  0.79438304  0.68653351  1  -0.002648  0  -5.4e-05  0.034106  0  3.641322  0
C  C41  1  0.97998010  0.82182992  0.71847580  1  0.588329  0  0.090236  0.243661  0  3.730587  0
C  C42  1  0.86910337  0.88228233  0.87399348  1  0.172126  0  -0.045647  -0.215025  0  3.976215  0
C  C43  1  0.87746724  0.62634556  0.62028356  1  0.037937  0  -0.045863  -0.215337  0  3.972294  0
C  C44  1  0.68243375  0.77119795  0.75711826  1  -0.075294  0  -0.084218  -0.205271  0  3.650377  0
C  C45  1  0.87229216  0.79974644  0.78949033  1  0.139115  0  0.003872  0.080645  0  3.814312  0
C  C46  1  0.77211806  0.68783952  0.77486718  1  0.605716  0  0.089854  0.284997  0  3.760607  0
C  C47  1  0.87996731  0.70967253  0.70408433  1  0.08133  0  0.002162  0.039575  0  3.801303  0
C  C48  1  0.96418135  0.71550226  0.80647762  1  -0.082664  0  -0.076838  -0.148417  0  3.635809  0
C  C49  1  0.06955650  0.73823961  0.73642808  1  -0.020611  0  -0.082962  -0.161222  0  3.675036  0
C  C50  1  0.87110768  0.84471733  0.83434915  1  -0.460263  0  -0.023741  -0.010414  0  4.076303  0
C  C51  1  0.87940035  0.66440263  0.65957544  1  -0.302987  0  -0.023954  -0.004125  0  4.07851  0
C  C52  1  0.46830469  0.18150617  0.28530175  1  0.601133  0  0.090278  0.181189  0  3.723599  0
C  C53  1  0.26970389  0.20714178  0.31080958  1  0.018691  0  0.007166  0.065209  0  3.635707  0
C  C54  1  0.35890195  0.37924798  0.37676951  1  0.174153  0  -0.040806  -0.2067  0  3.96559  0
C  C55  1  0.38576930  0.11903699  0.12594541  1  0.203428  0  -0.051214  -0.220934  0  3.987096  0
C  C56  1  0.55797333  0.26620242  0.26762702  1  0.579377  0  0.078995  0.210033  0  3.806058  0
C  C57  1  0.36046735  0.29367365  0.29497459  1  0.108549  0  -0.004101  -0.037  0  3.803133  0
C  C58  1  0.46561932  0.28729846  0.19483946  1  -0.082528  0  -0.089998  -0.241803  0  3.650676  0
C  C59  1  0.37417989  0.20193869  0.20999610  1  0.08297  0  -0.00639  0.070753  0  3.834488  0
C  C60  1  0.26765655  0.31277823  0.22174622  1  0.590267  0  0.087773  0.295834  0  3.767952  0
C  C61  1  0.17833149  0.22803788  0.23800262  1  -0.070593  0  -0.084381  -0.196726  0  3.645241  0
C  C62  1  0.35460935  0.34003068  0.33839082  1  -0.466651  0  -0.027518  -0.003773  0  4.106165  0
C  C63  1  0.38168978  0.15715413  0.16521570  1  -0.49329  0  -0.031091  -0.022602  0  4.106785  0
C  C64  1  0.36659924  0.33178957  0.66676999  1  0.03337  0  -0.005797  -0.151649  0  3.853262  0
C  C65  1  0.37024328  0.27940976  0.72032537  1  -0.189813  0  -0.004454  0.035715  0  4.238052  0
C  C66  1  0.37421052  0.22177030  0.77953756  1  -0.286881  0  -0.007648  0.026968  0  4.236135  0
C  C67  1  0.37828551  0.16965877  0.83323142  1  0.243929  0  0.001741  -0.135748  0  3.839983  0
C  C68  1  0.38067585  0.10866277  0.89697926  1  1.698152  0  0.275673  0.700178  0  4.179704  0
C  C69  1  0.38139054  0.07586880  0.07824153  1  1.673202  0  0.27565  0.725806  0  4.154908  0
C  C70  1  0.87041903  0.89249435  0.10283232  1  1.704512  0  0.275535  0.700373  0  4.185404  0
C  C71  1  0.87199640  0.92548535  0.92170914  1  1.664376  0  0.278509  0.72762  0  4.149623  0
C  C72  1  0.68568034  0.83547411  0.62102526  1  -0.017413  0  -0.15902  -0.186856  0  3.987372  0
C  C73  1  0.59817833  0.91368411  0.62012415  1  -0.017453  0  -0.165261  -0.092986  0  3.960233  0
C  C74  1  0.46155411  0.94815658  0.55940771  1  -0.041514  0  -0.242701  -0.357338  0  3.980129  0
C  C75  1  0.16208334  0.16610365  0.37502329  1  0.022425  0  -0.15831  -0.190225  0  3.961464  0
C  C76  1  0.08365551  0.08448773  0.37870667  1  -0.033639  0  -0.160784  -0.07894  0  3.956934  0
C  C77  1  0.95162807  0.04883064  0.44034104  1  -0.076569  0  -0.245874  -0.361098  0  3.983168  0
O  O78  1  0.53321273  0.41447669  0.57564762  1  -1.231139  0  -0.22727  -0.585654  0  2.284946  0
O  O79  1  0.19697009  0.43695962  0.44607036  1  -1.231582  0  -0.226575  -0.579825  0  2.29044  0
O  O80  1  0.04399746  0.57848174  0.41734371  1  -1.222077  0  -0.218693  -0.562508  0  2.284227  0
O  O81  1  0.19242948  0.41928003  0.58132045  1  -1.230141  0  -0.227454  -0.583502  0  2.276998  0
O  O82  1  0.04041084  0.56712950  0.55211145  1  -1.242075  0  -0.233728  -0.599682  0  2.281989  0
O  O83  1  0.53643605  0.44628441  0.43783107  1  -1.228245  0  -0.225982  -0.576576  0  2.287133  0
O  O84  1  0.37010040  0.54712326  0.49469127  1  -1.411889  0  -0.445715  -0.99162  0  2.187321  0
O  O85  1  0.69918507  0.56022376  0.55878664  1  -1.237351  0  -0.232638  -0.594072  0  2.283455  0
O  O86  1  0.70494359  0.58549867  0.42274364  1  -1.228163  0  -0.220473  -0.567645  0  2.289497  0
O  O87  1  0.86541374  0.45416928  0.50829719  1  -1.448652  0  -0.446219  -0.994529  0  2.187929  0
O  O88  1  0.20886023  0.05564590  0.06186931  1  -1.240104  0  -0.228724  -0.5866  0  2.282503  0
O  O89  1  0.55177920  0.08295807  0.91936458  1  -1.228475  0  -0.224363  -0.571796  0  2.282372  0
O  O90  1  0.70361746  0.93894881  0.94377266  1  -1.238926  0  -0.22986  -0.590938  0  2.280443  0
O  O91  1  0.54896323  0.06246679  0.05564922  1  -1.241363  0  -0.230315  -0.591741  0  2.285727  0
O  O92  1  0.69971478  0.91830215  0.08003803  1  -1.227016  0  -0.22414  -0.571992  0  2.286847  0
O  O93  1  0.21101062  0.08770757  0.92445787  1  -1.227764  0  -0.224368  -0.57512  0  2.286027  0
O  O94  1  0.37347109  0.95474965  0.00499636  1  -1.427311  0  -0.446085  -0.994902  0  2.194316  0
O  O95  1  0.04069176  0.91379453  0.07591199  1  -1.230638  0  -0.225725  -0.57627  0  2.286124  0
O  O96  1  0.04387984  0.94564462  0.93856400  1  -1.24325  0  -0.227749  -0.58626  0  2.284994  0
O  O97  1  0.87834405  0.04663320  0.99484426  1  -1.409404  0  -0.446233  -0.994909  0  2.198665  0
O  O98  1  0.08334060  0.89197905  0.69457345  1  -1.134905  0  -0.371367  -0.474844  0  2.245223  0
O  O99  1  0.16755966  0.38193450  0.19457300  1  -1.138728  0  -0.378673  -0.494135  0  2.225931  0
O  O100  1  0.75310983  0.27775531  0.28571811  1  -1.166163  0  -0.364699  -0.479566  0  2.291257  0
O  O101  1  0.66949995  0.61752644  0.79865908  1  -1.126814  0  -0.375787  -0.486441  0  2.227559  0
O  O102  1  0.56257363  0.11475862  0.32189344  1  -1.13103  0  -0.361334  -0.449623  0  2.272288  0
