# generated using pymatgen
data_HoH10(C3O4)2
_symmetry_space_group_name_H-M   'P 1'
_cell_length_a   6.62629662
_cell_length_b   9.39715844
_cell_length_c   10.25920390
_cell_angle_alpha   80.90059066
_cell_angle_beta   89.08106653
_cell_angle_gamma   69.37376887
_symmetry_Int_Tables_number   1
_chemical_formula_structural   HoH10(C3O4)2
_chemical_formula_sum   'Ho2 H20 C12 O16'
_cell_volume   589.80588519
_cell_formula_units_Z   2
loop_
 _symmetry_equiv_pos_site_id
 _symmetry_equiv_pos_as_xyz
  1  'x, y, z'
loop_
 _atom_site_type_symbol
 _atom_site_label
 _atom_site_symmetry_multiplicity
 _atom_site_fract_x
 _atom_site_fract_y
 _atom_site_fract_z
 _atom_site_occupancy
 _atom_site_hle17_bader_spin_density
 _atom_site_hle17_ddec_charge
 _atom_site_hle17_ddec_spin_density
 _atom_site_hle17_ddec_sum_bond_order
 _atom_site_hle17_magmom
 _atom_site_hse06_10hf_bader_spin_density
 _atom_site_hse06_10hf_ddec_charge
 _atom_site_hse06_10hf_ddec_spin_density
 _atom_site_hse06_10hf_ddec_sum_bond_order
 _atom_site_hse06_10hf_magmom
 _atom_site_hse06_bader_spin_density
 _atom_site_hse06_ddec_charge
 _atom_site_hse06_ddec_spin_density
 _atom_site_hse06_ddec_sum_bond_order
 _atom_site_hse06_magmom
 _atom_site_pbe_bader_spin_density
 _atom_site_pbe_cm5_charge
 _atom_site_pbe_ddec_charge
 _atom_site_pbe_ddec_spin_density
 _atom_site_pbe_ddec_sum_bond_order
 _atom_site_pbe_magmom
Ho  Ho0  1  0.38349574  0.61596097  0.82098638  1  0  2.206556  0  1.597073  0  0  2.055143  0  2.074472  0  0  2.104117  0  2.036057  0  0  1.508097  2.017554  0  2.105292  0
Ho  Ho1  1  0.61650559  0.38403681  0.17901400  1  0  2.206555  0  1.597109  0  0  2.055197  0  2.074389  0  0  2.104097  0  2.036096  0  0  1.508102  2.017566  0  2.105271  0
H  H2  1  0.85972328  0.56180694  0.76430169  1  0  0.438469  0  0.857155  0  0  0.409617  0  0.918144  0  0  0.420133  0  0.902736  0  0  0.300618  0.402127  0  0.929116  0
H  H3  1  0.14027525  0.43819656  0.23569587  1  0  0.43852  0  0.857082  0  0  0.409677  0  0.918056  0  0  0.42019  0  0.902654  0  0  0.300638  0.402184  0  0.929033  0
H  H4  1  0.83473149  0.44439355  0.88701103  1  0  0.439495  0  0.867399  0  0  0.408614  0  0.930979  0  0  0.420058  0  0.914408  0  0  0.298567  0.400607  0  0.942502  0
H  H5  1  0.16527178  0.55560647  0.11298606  1  0  0.439582  0  0.867277  0  0  0.408691  0  0.930877  0  0  0.420134  0  0.914309  0  0  0.298566  0.40067  0  0.942415  0
H  H6  1  0.52670188  0.82102560  0.63368148  1  0  0.455966  0  0.788007  0  0  0.440028  0  0.835171  0  0  0.44832  0  0.823212  0  0  0.345916  0.433927  0  0.84402  0
H  H7  1  0.47330218  0.17897572  0.36632418  1  0  0.455989  0  0.788029  0  0  0.44001  0  0.835201  0  0  0.448299  0  0.823249  0  0  0.34591  0.433914  0  0.844078  0
H  H8  1  0.47651905  0.71639188  0.54234823  1  0  0.453467  0  0.80262  0  0  0.427849  0  0.865348  0  0  0.436716  0  0.852331  0  0  0.331584  0.421289  0  0.87508  0
H  H9  1  0.52348431  0.28361400  0.45765380  1  0  0.453439  0  0.80266  0  0  0.42782  0  0.865383  0  0  0.436686  0  0.852367  0  0  0.331594  0.421259  0  0.875116  0
H  H10  1  0.81240394  0.69570136  0.15427525  1  0  0.108645  0  0.937978  0  0  0.123523  0  0.997985  0  0  0.125897  0  0.997037  0  0  0.110066  0.121682  0  0.998986  0
H  H11  1  0.18760539  0.30428942  0.84572228  1  0  0.108663  0  0.93796  0  0  0.123568  0  0.997909  0  0  0.125925  0  0.996979  0  0  0.1101  0.121745  0  0.998893  0
H  H12  1  0.58961474  0.86844723  0.14554261  1  0  0.119973  0  0.907778  0  0  0.136956  0  0.961752  0  0  0.139781  0  0.960115  0  0  0.113331  0.134888  0  0.963201  0
H  H13  1  0.41039355  0.13154251  0.85446093  1  0  0.120061  0  0.907727  0  0  0.137006  0  0.96171  0  0  0.13983  0  0.960067  0  0  0.113365  0.134939  0  0.963163  0
H  H14  1  0.91058267  0.93152084  0.08094117  1  0  0.132086  0  0.928932  0  0  0.147546  0  0.983625  0  0  0.15044  0  0.982515  0  0  0.113402  0.145593  0  0.984373  0
H  H15  1  0.08941672  0.06847470  0.91906250  1  0  0.132106  0  0.928831  0  0  0.147507  0  0.983612  0  0  0.150399  0  0.982506  0  0  0.113384  0.145557  0  0.984361  0
H  H16  1  0.73337254  0.98467675  0.94174628  1  0  0.107773  0  0.931947  0  0  0.122628  0  0.99008  0  0  0.124662  0  0.989441  0  0  0.105273  0.121159  0  0.990698  0
H  H17  1  0.26662774  0.01531999  0.05826013  1  0  0.107748  0  0.931983  0  0  0.122572  0  0.990149  0  0  0.124606  0  0.989514  0  0  0.105262  0.121105  0  0.990768  0
H  H18  1  0.16835929  0.33638728  0.53447160  1  0  0.104119  0  0.909163  0  0  0.123075  0  0.959601  0  0  0.125275  0  0.958609  0  0  0.108568  0.121424  0  0.960555  0
H  H19  1  0.83163311  0.66361633  0.46553086  1  0  0.104157  0  0.909096  0  0  0.123093  0  0.959553  0  0  0.125286  0  0.958571  0  0  0.108591  0.121442  0  0.960507  0
H  H20  1  0.20695974  0.48927185  0.42479106  1  0  0.120372  0  0.949469  0  0  0.13615  0  1.008264  0  0  0.138758  0  1.006827  0  0  0.113301  0.134236  0  1.009412  0
H  H21  1  0.79303218  0.51073282  0.57520636  1  0  0.120367  0  0.949495  0  0  0.136134  0  1.008292  0  0  0.138742  0  1.006854  0  0  0.113284  0.134215  0  1.009461  0
C  C22  1  0.58730250  0.73756581  0.99518629  1  0  0.744807  0  3.795795  0  0  0.700303  0  4.093536  0  0  0.734686  0  4.083649  0  0  0.218308  0.677057  0  4.099051  0
C  C23  1  0.41270512  0.26242845  0.00481167  1  0  0.74481  0  3.795821  0  0  0.700334  0  4.093484  0  0  0.734715  0  4.083592  0  0  0.218363  0.67709  0  4.099004  0
C  C24  1  0.70814703  0.79503053  0.08517186  1  0  -0.232111  0  3.662212  0  0  -0.274445  0  3.915496  0  0  -0.279431  0  3.922694  0  0  -0.154127  -0.2711  0  3.910758  0
C  C25  1  0.29186055  0.20496376  0.91482806  1  0  -0.232303  0  3.662376  0  0  -0.274579  0  3.915531  0  0  -0.279541  0  3.922717  0  0  -0.154225  -0.271242  0  3.910802  0
C  C26  1  0.83701678  0.88491913  0.01045135  1  0  -0.241401  0  3.672435  0  0  -0.280061  0  3.922884  0  0  -0.285599  0  3.931597  0  0  -0.161811  -0.276461  0  3.917012  0
C  C27  1  0.16298867  0.11507637  0.98955131  1  0  -0.241261  0  3.672334  0  0  -0.279918  0  3.922742  0  0  -0.285459  0  3.931454  0  0  -0.161763  -0.276331  0  3.916891  0
C  C28  1  0.01464619  0.78989227  0.93279258  1  0  0.708276  0  3.821568  0  0  0.662019  0  4.122562  0  0  0.695329  0  4.114646  0  0  0.200876  0.639555  0  4.127185  0
C  C29  1  0.98535250  0.21010781  0.06720746  1  0  0.708189  0  3.821653  0  0  0.661991  0  4.122552  0  0  0.695294  0  4.114637  0  0  0.20086  0.639532  0  4.12717  0
C  C30  1  0.21096101  0.51201143  0.62469041  1  0  0.692377  0  3.870458  0  0  0.650426  0  4.168608  0  0  0.682904  0  4.162391  0  0  0.195474  0.628698  0  4.171519  0
C  C31  1  0.78903224  0.48799669  0.37530646  1  0  0.692387  0  3.870399  0  0  0.650487  0  4.168484  0  0  0.682967  0  4.162257  0  0  0.1955  0.628757  0  4.171385  0
C  C32  1  0.12136903  0.46267090  0.51271404  1  0  -0.240317  0  3.687458  0  0  -0.278547  0  3.933214  0  0  -0.283359  0  3.940904  0  0  -0.163049  -0.275294  0  3.927835  0
C  C33  1  0.87862589  0.53733378  0.48728434  1  0  -0.240362  0  3.687359  0  0  -0.278587  0  3.933133  0  0  -0.283398  0  3.940823  0  0  -0.163092  -0.275338  0  3.92775  0
O  O34  1  0.76245547  0.50691389  0.80023734  1  0  -0.93141  0  1.864659  0  0  -0.884594  0  2.058603  0  0  -0.904274  0  2.027191  0  0  -0.652434  -0.870093  0  2.080283  0
O  O35  1  0.23754745  0.49308379  0.19975817  1  0  -0.931522  0  1.864545  0  0  -0.884704  0  2.058454  0  0  -0.90437  0  2.027047  0  0  -0.652455  -0.870179  0  2.080169  0
O  O36  1  0.42615073  0.77048398  0.61722159  1  0  -0.859471  0  1.803612  0  0  -0.813262  0  1.975563  0  0  -0.829787  0  1.94748  0  0  -0.602766  -0.80144  0  1.995824  0
O  O37  1  0.57385374  0.22951962  0.38278176  1  0  -0.859465  0  1.803687  0  0  -0.813211  0  1.975657  0  0  -0.829725  0  1.947572  0  0  -0.602775  -0.801385  0  1.995961  0
O  O38  1  0.52584324  0.62356478  0.04194323  1  0  -0.839403  0  2.103708  0  0  -0.776577  0  2.363369  0  0  -0.803971  0  2.354412  0  0  -0.449362  -0.756571  0  2.368087  0
O  O39  1  0.47415457  0.37643409  0.95805311  1  0  -0.8394  0  2.103716  0  0  -0.776589  0  2.363362  0  0  -0.803982  0  2.354392  0  0  -0.449341  -0.756586  0  2.368083  0
O  O40  1  0.54306611  0.79907412  0.87549358  1  0  -0.671425  0  1.93227  0  0  -0.622206  0  2.162132  0  0  -0.647166  0  2.153849  0  0  -0.358332  -0.604514  0  2.167346  0
O  O41  1  0.45693824  0.20092364  0.12450679  1  0  -0.671427  0  1.93225  0  0  -0.622241  0  2.162099  0  0  -0.64719  0  2.15381  0  0  -0.358383  -0.604545  0  2.167317  0
O  O42  1  0.09216308  0.64179280  0.96632135  1  0  -0.720987  0  2.050581  0  0  -0.659328  0  2.286722  0  0  -0.685635  0  2.278041  0  0  -0.382242  -0.64092  0  2.292028  0
O  O43  1  0.90783256  0.35820731  0.03367969  1  0  -0.720955  0  2.050643  0  0  -0.659294  0  2.286721  0  0  -0.68559  0  2.278045  0  0  -0.382246  -0.640888  0  2.292026  0
O  O44  1  0.09453124  0.85317989  0.83762231  1  0  -0.678414  0  1.927885  0  0  -0.636255  0  2.158495  0  0  -0.659717  0  2.149089  0  0  -0.37749  -0.619926  0  2.164533  0
O  O45  1  0.90546655  0.14681899  0.16237500  1  0  -0.678383  0  1.92796  0  0  -0.636271  0  2.15856  0  0  -0.659721  0  2.149158  0  0  -0.377486  -0.619935  0  2.164596  0
O  O46  1  0.08550069  0.60449029  0.69593260  1  0  -0.714666  0  1.987741  0  0  -0.657485  0  2.218005  0  0  -0.682698  0  2.209027  0  0  -0.375905  -0.639582  0  2.223438  0
O  O47  1  0.91449556  0.39551784  0.30406523  1  0  -0.714681  0  1.987658  0  0  -0.657538  0  2.217923  0  0  -0.682743  0  2.208947  0  0  -0.375903  -0.639633  0  2.223356  0
O  O48  1  0.41469346  0.46236893  0.64713842  1  0  -0.702796  0  1.919156  0  0  -0.661134  0  2.156388  0  0  -0.68545  0  2.147455  0  0  -0.385859  -0.643906  0  2.162255  0
O  O49  1  0.58530203  0.53763460  0.35286013  1  0  -0.702795  0  1.91928  0  0  -0.661136  0  2.156463  0  0  -0.685442  0  2.14753  0  0  -0.385856  -0.643902  0  2.162326  0
