# generated using pymatgen
data_AlH3C12O5F4
_symmetry_space_group_name_H-M   'P 1'
_cell_length_a   6.66471597
_cell_length_b   20.92057443
_cell_length_c   23.47102106
_cell_angle_alpha   103.23256324
_cell_angle_beta   89.99981031
_cell_angle_gamma   90.00013050
_symmetry_Int_Tables_number   1
_chemical_formula_structural   AlH3C12O5F4
_chemical_formula_sum   'Al4 H12 C48 O20 F16'
_cell_volume   3185.66732999
_cell_formula_units_Z   4
loop_
 _symmetry_equiv_pos_site_id
 _symmetry_equiv_pos_as_xyz
  1  'x, y, z'
loop_
 _atom_site_type_symbol
 _atom_site_label
 _atom_site_symmetry_multiplicity
 _atom_site_fract_x
 _atom_site_fract_y
 _atom_site_fract_z
 _atom_site_occupancy
 _atom_site_pbe_bader_charge
 _atom_site_pbe_bader_spin_density
 _atom_site_pbe_cm5_charge
 _atom_site_pbe_ddec_charge
 _atom_site_pbe_ddec_spin_density
 _atom_site_pbe_ddec_sum_bond_order
 _atom_site_pbe_magmom
Al  Al0  1  0.71551296  0.24851703  0.74905311  1  2.503011  0  0.404531  1.648731  0  2.574161  0
Al  Al1  1  0.28449194  0.75148463  0.25094827  1  2.503084  0  0.404502  1.648789  0  2.574096  0
Al  Al2  1  0.21551415  0.25148536  0.75094775  1  2.503089  0  0.404652  1.648811  0  2.5739  0
Al  Al3  1  0.78448324  0.74851685  0.24905581  1  2.503126  0  0.404567  1.648722  0  2.574057  0
H  H4  1  0.33720538  0.51830632  0.39872390  1  0.123877  0  0.112233  0.142594  0  0.995991  0
H  H5  1  0.66279352  0.48169322  0.60127659  1  0.123863  0  0.11222  0.142633  0  0.995984  0
H  H6  1  0.83721616  0.98168372  0.10127043  1  0.123614  0  0.112253  0.142682  0  0.995843  0
H  H7  1  0.16277973  0.01831497  0.89873049  1  0.123546  0  0.112278  0.142714  0  0.995874  0
H  H8  1  0.24322135  0.40610548  0.53197289  1  0.113159  0  0.108938  0.140996  0  1.019207  0
H  H9  1  0.75677455  0.59389676  0.46802500  1  0.112932  0  0.108986  0.141087  0  1.019088  0
H  H10  1  0.74321697  0.09389969  0.96802753  1  0.113113  0  0.109007  0.141134  0  1.019115  0
H  H11  1  0.25677292  0.90610155  0.03197210  1  0.112852  0  0.10898  0.141113  0  1.019049  0
H  H12  1  0.47006244  0.33103528  0.74250813  1  0.645239  0  0.357069  0.43933  0  0.84404  0
H  H13  1  0.52994246  0.66896510  0.25749193  1  0.645255  0  0.357058  0.439383  0  0.84395  0
H  H14  1  0.97005614  0.16896783  0.75749293  1  0.645277  0  0.357084  0.439415  0  0.843958  0
H  H15  1  0.02995026  0.83103288  0.24250844  1  0.64533  0  0.357072  0.439394  0  0.843973  0
C  C16  1  0.46441992  0.17907773  0.81814172  1  1.649545  0  0.274478  0.684983  0  4.084291  0
C  C17  1  0.53557598  0.82092148  0.18185746  1  1.649556  0  0.274522  0.685087  0  4.084079  0
C  C18  1  0.96443936  0.32092436  0.68185716  1  1.64899  0  0.274613  0.685171  0  4.084392  0
C  C19  1  0.03556704  0.67907507  0.31814290  1  1.649042  0  0.274579  0.685193  0  4.084413  0
C  C20  1  0.46188940  0.16271091  0.66215869  1  1.691592  0  0.273473  0.693043  0  4.189199  0
C  C21  1  0.53810800  0.83728963  0.33784006  1  1.691727  0  0.273653  0.693364  0  4.188525  0
C  C22  1  0.96189840  0.33729064  0.83783800  1  1.691627  0  0.273443  0.692799  0  4.189148  0
C  C23  1  0.03810500  0.66271070  0.16216207  1  1.691523  0  0.273537  0.693198  0  4.189138  0
C  C24  1  0.04660808  0.61169267  0.10925988  1  -0.383837  0  0.000199  -0.094875  0  3.866875  0
C  C25  1  0.95338181  0.38831215  0.89074458  1  -0.384107  0  0.000289  -0.094629  0  3.866772  0
C  C26  1  0.54662590  0.88831774  0.39074625  1  -0.429635  0  0.000166  -0.095018  0  3.868068  0
C  C27  1  0.45337750  0.11169002  0.60926042  1  -0.38523  0  0.000303  -0.094949  0  3.867138  0
C  C28  1  0.07780686  0.51549750  0.01652382  1  0.713372  0  0.108019  0.187451  0  4.151004  0
C  C29  1  0.92219654  0.48450199  0.98347842  1  0.607512  0  0.108131  0.187698  0  4.151267  0
C  C30  1  0.57781237  0.98452154  0.48346881  1  0.607996  0  0.108179  0.187697  0  4.150422  0
C  C31  1  0.42218202  0.01548237  0.51653390  1  0.713894  0  0.108095  0.187556  0  4.151346  0
C  C32  1  0.93996031  0.43310088  0.93419450  1  0.21713  0  -0.027381  -0.08367  0  4.126434  0
C  C33  1  0.06005809  0.56690181  0.06580907  1  0.216899  0  -0.027299  -0.083422  0  4.126189  0
C  C34  1  0.43995314  0.06689184  0.56581874  1  0.218539  0  -0.027364  -0.083384  0  4.12634  0
C  C35  1  0.56006076  0.93310559  0.43417518  1  0.26277  0  -0.02746  -0.083518  0  4.127009  0
C  C36  1  0.03909872  0.63465134  0.35975268  1  0.084456  0  -0.021664  -0.259066  0  3.918131  0
C  C37  1  0.96090318  0.36534872  0.64024607  1  0.084117  0  -0.021621  -0.258975  0  3.917987  0
C  C38  1  0.53909336  0.86534205  0.14024459  1  0.084775  0  -0.02157  -0.258735  0  3.917769  0
C  C39  1  0.46090704  0.13465657  0.85975414  1  0.084152  0  -0.021554  -0.258785  0  3.917896  0
C  C40  1  0.88275787  0.63212880  0.39955456  1  0.442461  0  0.115392  0.314352  0  4.0442  0
C  C41  1  0.11723952  0.36787365  0.60044421  1  0.442971  0  0.115307  0.314191  0  4.044332  0
C  C42  1  0.38275982  0.86786717  0.10044240  1  0.441741  0  0.115397  0.314324  0  4.043957  0
C  C43  1  0.61723607  0.13213156  0.89955678  1  0.442221  0  0.115319  0.314205  0  4.044269  0
C  C44  1  0.88366081  0.59164895  0.43872432  1  0.084587  0  -0.105729  -0.273298  0  3.961321  0
C  C45  1  0.11633358  0.40835361  0.56127488  1  0.083846  0  -0.105602  -0.273067  0  3.961322  0
C  C46  1  0.38365441  0.90834761  0.06127307  1  0.084358  0  -0.105777  -0.273351  0  3.961161  0
C  C47  1  0.61633999  0.09165347  0.93872786  1  0.0841  0  -0.105788  -0.273559  0  3.961337  0
C  C48  1  0.04849230  0.54970776  0.43953246  1  0.002039  0  -0.006806  0.095844  0  4.082231  0
C  C49  1  0.95150360  0.45029315  0.56046585  1  0.002481  0  -0.006793  0.095983  0  4.082089  0
C  C50  1  0.54849428  0.95028499  0.06046217  1  0.002512  0  -0.006686  0.096364  0  4.08199  0
C  C51  1  0.45150311  0.04971635  0.93953790  1  0.002841  0  -0.006667  0.0964  0  4.081886  0
C  C52  1  0.20783012  0.55023133  0.40020249  1  0.058019  0  -0.106878  -0.275804  0  3.970122  0
C  C53  1  0.79216728  0.44976847  0.59979712  1  0.057977  0  -0.10691  -0.276036  0  3.970174  0
C  C54  1  0.70783021  0.94976082  0.09979111  1  0.058395  0  -0.10696  -0.276094  0  3.969945  0
C  C55  1  0.29216119  0.05023835  0.90020982  1  0.058187  0  -0.106995  -0.27609  0  3.969819  0
C  C56  1  0.20001915  0.59180176  0.36209001  1  0.454883  0  0.116045  0.31767  0  4.045134  0
C  C57  1  0.79997824  0.40819856  0.63790786  1  0.454686  0  0.116022  0.317729  0  4.045011  0
C  C58  1  0.70002760  0.90818872  0.13790271  1  0.454723  0  0.115869  0.317438  0  4.044979  0
C  C59  1  0.29997280  0.09180899  0.86209427  1  0.454987  0  0.115922  0.317415  0  4.044953  0
C  C60  1  0.06379794  0.50545701  0.47892497  1  0.53683  0  0.092105  0.110025  0  4.002687  0
C  C61  1  0.93619346  0.49454188  0.52107289  1  0.450006  0  0.092084  0.109977  0  4.002622  0
C  C62  1  0.56380060  0.99453842  0.02107273  1  0.536305  0  0.09212  0.109948  0  4.002598  0
C  C63  1  0.43619380  0.00546287  0.97892909  1  0.449634  0  0.092119  0.109942  0  4.002539  0
O  O64  1  0.29258131  0.18314318  0.68403709  1  -1.231681  0  -0.22523  -0.57441  0  2.291654  0
O  O65  1  0.70742058  0.81685445  0.31596338  1  -1.231609  0  -0.225221  -0.574458  0  2.291529  0
O  O66  1  0.79257239  0.31685303  0.81596365  1  -1.231287  0  -0.225226  -0.57435  0  2.291523  0
O  O67  1  0.20742950  0.68314631  0.18403990  1  -1.231355  0  -0.22522  -0.574485  0  2.29145  0
O  O68  1  0.63477090  0.19295322  0.79989815  1  -1.246241  0  -0.228432  -0.587142  0  2.339586  0
O  O69  1  0.36523100  0.80704445  0.20010058  1  -1.24626  0  -0.228419  -0.587073  0  2.339516  0
O  O70  1  0.13476396  0.30704387  0.70009314  1  -1.246092  0  -0.228499  -0.58719  0  2.340209  0
O  O71  1  0.86524694  0.69295523  0.29990559  1  -1.246091  0  -0.228441  -0.587119  0  2.340272  0
O  O72  1  0.63558018  0.18094667  0.68188512  1  -1.221202  0  -0.225661  -0.57201  0  2.279319  0
O  O73  1  0.36442172  0.81905383  0.31811538  1  -1.221346  0  -0.225629  -0.572086  0  2.279322  0
O  O74  1  0.13558265  0.31905926  0.81810711  1  -1.221485  0  -0.225571  -0.571917  0  2.279488  0
O  O75  1  0.86442975  0.68094015  0.18188901  1  -1.221413  0  -0.225593  -0.572003  0  2.279436  0
O  O76  1  0.79567435  0.30121026  0.69608336  1  -1.235945  0  -0.227212  -0.585452  0  2.352437  0
O  O77  1  0.20433205  0.69879108  0.30391671  1  -1.236035  0  -0.227206  -0.585525  0  2.3524  0
O  O78  1  0.29568668  0.19879639  0.80392096  1  -1.236483  0  -0.227102  -0.585308  0  2.352836  0
O  O79  1  0.70431672  0.80120469  0.19607998  1  -1.236523  0  -0.227166  -0.585357  0  2.35268  0
O  O80  1  0.46695484  0.28911194  0.75352188  1  -1.442474  0  -0.44616  -0.995485  0  2.195492  0
O  O81  1  0.53304706  0.71088983  0.24647994  1  -1.442526  0  -0.44613  -0.995591  0  2.195545  0
O  O82  1  0.96694742  0.21089106  0.74647874  1  -1.442428  0  -0.446161  -0.995615  0  2.195485  0
O  O83  1  0.03305448  0.78911093  0.25352395  1  -1.442478  0  -0.446158  -0.995555  0  2.195399  0
F  F84  1  0.73323123  0.50567466  0.99982195  1  -0.594044  0  -0.087706  -0.113252  0  1.337826  0
F  F85  1  0.26680217  0.49432106  0.00018244  1  -0.594258  0  -0.087767  -0.11336  0  1.337437  0
F  F86  1  0.23322749  0.99425153  0.50023766  1  -0.594503  0  -0.087689  -0.113283  0  1.337848  0
F  F87  1  0.76678941  0.00574966  0.49976371  1  -0.594869  0  -0.087747  -0.113358  0  1.337566  0
F  F88  1  0.72260713  0.67231657  0.40163290  1  -0.621271  0  -0.085968  -0.122621  0  1.347195  0
F  F89  1  0.27739627  0.32768402  0.59836411  1  -0.621339  0  -0.085931  -0.122613  0  1.347281  0
F  F90  1  0.22259834  0.82767915  0.09836159  1  -0.620869  0  -0.085994  -0.123176  0  1.347949  0
F  F91  1  0.77739156  0.17231835  0.90163451  1  -0.621008  0  -0.085938  -0.122573  0  1.347315  0
F  F92  1  0.64432552  0.41161444  0.67568758  1  -0.623711  0  -0.088783  -0.131108  0  1.345032  0
F  F93  1  0.35566887  0.58838173  0.32430895  1  -0.623994  0  -0.088785  -0.131086  0  1.34507  0
F  F94  1  0.14432493  0.08839068  0.82431294  1  -0.623742  0  -0.088763  -0.131024  0  1.345169  0
F  F95  1  0.85567397  0.91160608  0.17568403  1  -0.623808  0  -0.088699  -0.130928  0  1.345113  0
F  F96  1  0.76315841  0.53078075  0.52822830  1  -0.622408  0  -0.079276  -0.107448  0  1.394271  0
F  F97  1  0.23682698  0.46921717  0.47176955  1  -0.622368  0  -0.07927  -0.107406  0  1.394341  0
F  F98  1  0.26314683  0.96922622  0.97177905  1  -0.622237  0  -0.079278  -0.107459  0  1.39426  0
F  F99  1  0.73684757  0.03077258  0.02822230  1  -0.622189  0  -0.079277  -0.10743  0  1.394279  0
