# generated using pymatgen
data_SrCu2H12C10N4O13
_symmetry_space_group_name_H-M   'P 1'
_cell_length_a   9.10318286
_cell_length_b   9.16293963
_cell_length_c   11.71003797
_cell_angle_alpha   92.12278966
_cell_angle_beta   109.99167121
_cell_angle_gamma   112.17732984
_symmetry_Int_Tables_number   1
_chemical_formula_structural   SrCu2H12C10N4O13
_chemical_formula_sum   'Sr2 Cu4 H24 C20 N8 O26'
_cell_volume   834.36758668
_cell_formula_units_Z   2
loop_
 _symmetry_equiv_pos_site_id
 _symmetry_equiv_pos_as_xyz
  1  'x, y, z'
loop_
 _atom_site_type_symbol
 _atom_site_label
 _atom_site_symmetry_multiplicity
 _atom_site_fract_x
 _atom_site_fract_y
 _atom_site_fract_z
 _atom_site_occupancy
 _atom_site_hle17_ddec_charge
 _atom_site_hle17_ddec_spin_density
 _atom_site_hle17_ddec_sum_bond_order
 _atom_site_hle17_magmom
 _atom_site_hse06_10hf_ddec_charge
 _atom_site_hse06_10hf_ddec_spin_density
 _atom_site_hse06_10hf_ddec_sum_bond_order
 _atom_site_hse06_10hf_magmom
 _atom_site_hse06_ddec_charge
 _atom_site_hse06_ddec_spin_density
 _atom_site_hse06_ddec_sum_bond_order
 _atom_site_hse06_magmom
 _atom_site_pbe_cm5_charge
 _atom_site_pbe_ddec_charge
 _atom_site_pbe_ddec_spin_density
 _atom_site_pbe_ddec_sum_bond_order
 _atom_site_pbe_magmom
Sr  Sr0  1  0.76990382  0.50721285  0.06392471  1  1.631859  0.000929  1.006946  0.001  1.488896  0.001418  1.364663  0.001  1.52725  0.000995  1.320144  0.001  0.895866  1.460517  0.00195  1.39733  0.001
Sr  Sr1  1  0.23009602  0.49278207  0.93607512  1  1.631895  0.001013  1.006869  0.001  1.48895  0.001456  1.364541  0.001  1.527304  0.000974  1.320031  0.001  0.895873  1.460565  0.001951  1.397204  0.001
Cu  Cu2  1  0.43266527  0.32034602  0.68119536  1  0.848358  0.66997  1.900288  0.488  0.817728  0.777156  2.306018  0.613  0.899685  0.862309  2.243069  0.702  0.785097  0.767371  0.665916  2.347932  0.515
Cu  Cu3  1  0.56734235  0.67966084  0.31882227  1  0.848113  0.669662  1.900237  0.488  0.817779  0.777036  2.305562  0.613  0.899554  0.862258  2.242877  0.702  0.785129  0.767372  0.665571  2.34754  0.515
Cu  Cu4  1  0.31871202  0.19029837  0.33109239  1  0.849395  -0.674982  1.867443  -0.496  0.817656  -0.781817  2.271075  -0.62  0.903896  -0.869149  2.204884  -0.712  0.763921  0.76012  -0.672265  2.319097  -0.524
Cu  Cu5  1  0.68128446  0.80969178  0.66889531  1  0.849385  -0.674701  1.867205  -0.496  0.81769  -0.781681  2.270719  -0.62  0.903977  -0.869093  2.204578  -0.712  0.763967  0.760201  -0.671904  2.318698  -0.524
H  H6  1  0.95618162  0.49618999  0.57822029  1  0.139987  -0.000112  0.96886  0.0  0.145434  -0.000133  1.036436  0.0  0.148365  -7.9e-05  1.035569  0.0  0.114118  0.143238  -0.000113  1.036789  0.0
H  H7  1  0.04381728  0.50381579  0.42177622  1  0.139954  -0.000109  0.96884  0.0  0.145413  -0.000132  1.036398  0.0  0.148344  -7.8e-05  1.035534  0.0  0.11413  0.143222  -0.000113  1.036749  0.0
H  H8  1  0.20114861  0.88014257  0.56936359  1  0.149384  3.3e-05  0.932759  0.0  0.16005  1.9e-05  0.987232  0.0  0.162186  -1.1e-05  0.986932  0.0  0.121997  0.158149  1.7e-05  0.987607  0.0
H  H9  1  0.79884549  0.11984998  0.43063465  1  0.149376  3.4e-05  0.932817  0.0  0.16005  1.9e-05  0.987285  0.0  0.162188  -1.2e-05  0.986985  0.0  0.121987  0.158155  1.7e-05  0.987661  0.0
H  H10  1  0.94928032  0.83048244  0.94978887  1  0.423005  -0.0  0.879114  0.0  0.392241  -4.2e-05  0.942003  0.0  0.402765  -4e-06  0.926674  0.0  0.298241  0.384921  -7e-05  0.952733  0.0
H  H11  1  0.05072115  0.16951608  0.05020980  1  0.422964  2e-06  0.879171  0.0  0.392225  -4.2e-05  0.942018  0.0  0.402745  -4e-06  0.926695  0.0  0.298251  0.384909  -7.1e-05  0.952744  0.0
H  H12  1  0.00580340  0.88548004  0.09282458  1  0.423634  7e-06  0.862737  0.0  0.391356  -2.3e-05  0.935761  0.0  0.401138  1e-05  0.921237  0.0  0.302816  0.384449  -2.9e-05  0.946092  0.0
H  H13  1  0.99419744  0.11451969  0.90717567  1  0.423629  6e-06  0.862742  0.0  0.39135  -2.3e-05  0.935768  0.0  0.401133  1.1e-05  0.921243  0.0  0.302813  0.384439  -2.9e-05  0.946103  0.0
H  H14  1  0.72953424  0.14013823  0.04056481  1  0.429271  6e-05  0.863253  0.0  0.398995  4.9e-05  0.923906  0.0  0.409302  3.4e-05  0.908812  0.0  0.304698  0.391799  4.8e-05  0.934521  0.0
H  H15  1  0.27046490  0.85986031  0.95943495  1  0.429279  6.1e-05  0.863248  0.0  0.399  4.9e-05  0.923907  0.0  0.409308  3.4e-05  0.908812  0.0  0.30468  0.391801  4.8e-05  0.934524  0.0
H  H16  1  0.83808651  0.22394508  0.96663449  1  0.426446  -1.3e-05  0.869939  0.0  0.397548  -1.6e-05  0.932024  0.0  0.408241  -1.1e-05  0.916435  0.0  0.30361  0.389616  -1.3e-05  0.943605  0.0
H  H17  1  0.16191263  0.77605347  0.03336356  1  0.426441  -1.4e-05  0.86993  0.0  0.397554  -1.5e-05  0.932013  0.0  0.408245  -1.1e-05  0.916425  0.0  0.303611  0.389622  -1.3e-05  0.943594  0.0
H  H18  1  0.62976843  0.77012167  0.04791480  1  0.431125  3.8e-05  0.843519  0.0  0.400657  2.7e-05  0.914508  0.0  0.410051  1.2e-05  0.900624  0.0  0.314066  0.393731  3.6e-05  0.924963  0.0
H  H19  1  0.37023521  0.22988166  0.95208374  1  0.431121  3.6e-05  0.843551  0.0  0.400674  2.7e-05  0.914495  0.0  0.410063  1.2e-05  0.900613  0.0  0.314065  0.393745  3.6e-05  0.924952  0.0
H  H20  1  0.55883414  0.71381837  0.90226667  1  0.427908  -0.000309  0.877486  0.0  0.397135  -0.000363  0.940397  0.0  0.40914  -0.00023  0.922972  0.0  0.298321  0.388801  -0.000444  0.952577  0.0
H  H21  1  0.44116600  0.28618499  0.09773095  1  0.42791  -0.00031  0.877485  0.0  0.397147  -0.000363  0.94038  0.0  0.409149  -0.00023  0.922959  0.0  0.298347  0.388816  -0.000444  0.952558  0.0
H  H22  1  0.36664878  0.03638628  0.77789446  1  0.415986  -0.000143  0.887511  0.0  0.386244  -0.000181  0.950213  0.0  0.397506  -0.000118  0.93394  0.0  0.28776  0.37829  -0.000213  0.961776  0.0
H  H23  1  0.63335036  0.96361226  0.22210531  1  0.415987  -0.000144  0.887519  0.0  0.38624  -0.000181  0.950232  0.0  0.3975  -0.000118  0.933962  0.0  0.28776  0.378286  -0.000213  0.961797  0.0
H  H24  1  0.56552097  0.14147072  0.84283733  1  0.419058  -3e-06  0.887644  0.0  0.392713  -2.2e-05  0.944009  0.0  0.404369  -1.8e-05  0.927154  0.0  0.288495  0.384594  -2.1e-05  0.955766  0.0
H  H25  1  0.43447646  0.85852663  0.15715938  1  0.419052  -3e-06  0.887665  0.0  0.3927  -2.2e-05  0.944034  0.0  0.404344  -1.8e-05  0.927193  0.0  0.288484  0.384582  -2.1e-05  0.955789  0.0
H  H26  1  0.22005997  0.86853130  0.32550946  1  0.420846  0.000189  0.882947  0.0  0.393975  0.000194  0.941201  0.0  0.40531  0.000134  0.925018  0.0  0.287155  0.385892  0.000245  0.95267  0.0
H  H27  1  0.77993397  0.13146609  0.67448718  1  0.420832  0.000191  0.882939  0.0  0.393966  0.000194  0.941205  0.0  0.405304  0.000134  0.925016  0.0  0.287166  0.385881  0.000245  0.952677  0.0
H  H28  1  0.40924364  0.94006558  0.32111079  1  0.427193  3.7e-05  0.869054  0.0  0.403659  2.7e-05  0.921005  0.0  0.41394  2.9e-05  0.906077  0.0  0.287067  0.395993  3e-05  0.932037  0.0
H  H29  1  0.59075426  0.05993538  0.67888786  1  0.427168  3.6e-05  0.869099  0.0  0.403663  2.8e-05  0.920998  0.0  0.413947  2.9e-05  0.906064  0.0  0.287088  0.395996  3e-05  0.932031  0.0
C  C30  1  0.67871148  0.36982794  0.44406749  1  3.9e-05  0.0006  3.731779  0.001  -0.003258  9.7e-05  4.006334  0.001  -0.006038  0.00051  4.025672  0.002  0.07306  -0.000668  -0.000141  3.993099  0.0
C  C31  1  0.32129386  0.63017658  0.55593239  1  -4.2e-05  0.000662  3.731493  0.001  -0.003289  9.9e-05  4.006058  0.001  -0.006088  0.000513  4.025423  0.002  0.073043  -0.000678  -0.000136  3.992804  0.001
C  C32  1  0.81949264  0.44293143  0.55803079  1  -0.135148  -0.000394  3.607258  0.0  -0.170975  -0.000285  3.867652  0.0  -0.171341  -0.00021  3.884858  0.0  -0.08337  -0.17095  -0.000244  3.855  0.0
C  C33  1  0.18050712  0.55706591  0.44196825  1  -0.13508  -0.000456  3.606937  0.0  -0.170913  -0.000286  3.86739  0.0  -0.171264  -0.000209  3.884582  0.0  -0.083378  -0.170904  -0.000244  3.854757  0.0
C  C34  1  0.74345010  0.43317143  0.64533974  1  0.013682  -0.002158  3.734614  -0.003  0.009346  -0.000986  4.006874  -0.002  0.007551  -0.000914  4.023965  -0.002  0.079426  0.011838  -0.001333  3.993876  -0.003
C  C35  1  0.25655494  0.56682466  0.35465980  1  0.013602  -0.002121  3.734297  -0.003  0.009194  -0.000991  4.006706  -0.002  0.007382  -0.000917  4.023794  -0.002  0.07942  0.0117  -0.001333  3.993705  -0.003
C  C36  1  0.64412793  0.33401404  0.31029562  1  0.628233  0.003577  3.912127  0.006  0.578692  0.000623  4.220539  0.003  0.61588  0.00042  4.210292  0.002  0.216021  0.55319  0.000701  4.227945  0.003
C  C37  1  0.35587681  0.66599167  0.68970926  1  0.628306  0.003557  3.91206  0.006  0.578712  0.000624  4.220519  0.003  0.615902  0.000421  4.210282  0.002  0.216005  0.5532  0.000701  4.227913  0.003
C  C38  1  0.79658005  0.47572333  0.78087637  1  0.648424  -0.003232  3.898135  -0.005  0.601542  -0.000422  4.197501  -0.002  0.638335  -0.000355  4.188179  -0.002  0.224672  0.576173  -0.000258  4.203247  -0.002
C  C39  1  0.20342428  0.52427639  0.21911797  1  0.64838  -0.003233  3.898206  -0.006  0.601547  -0.000421  4.197554  -0.002  0.638342  -0.000355  4.188233  -0.002  0.224729  0.576178  -0.000257  4.203306  -0.002
C  C40  1  0.99496366  0.86282494  0.63966030  1  0.005113  0.000228  3.75688  0.001  0.002851  4.6e-05  4.026174  0.001  -0.000606  0.000366  4.047085  0.001  0.075962  0.005721  -9.1e-05  4.012757  0.0
C  C41  1  0.00503013  0.13717726  0.36034072  1  0.005189  0.000206  3.756965  0.001  0.002993  4.3e-05  4.026241  0.001  -0.000454  0.000364  4.047154  0.001  0.076015  0.005849  -9.6e-05  4.012842  0.0
C  C42  1  0.06769370  0.84960363  0.55337801  1  -0.13241  0.000235  3.603116  0.0  -0.168389  0.000137  3.859771  0.0  -0.168522  0.000138  3.877564  0.0  -0.080603  -0.168332  5.7e-05  3.847067  0.0
C  C43  1  0.93230544  0.15039490  0.44662602  1  -0.132512  0.000254  3.603058  0.0  -0.168505  0.000138  3.859712  0.0  -0.168647  0.000139  3.877507  0.0  -0.080616  -0.168451  5.7e-05  3.84702  0.0
C  C44  1  0.92638665  0.78949554  0.43987485  1  0.010345  -0.001719  3.770033  -0.003  0.013145  -0.000879  4.031101  -0.002  0.010339  -0.001067  4.051276  -0.002  0.077927  0.015851  -0.000754  4.0167  -0.001
C  C45  1  0.07361117  0.21050784  0.56012471  1  0.010675  -0.001714  3.77026  -0.003  0.013467  -0.000876  4.031277  -0.002  0.010672  -0.001065  4.051465  -0.002  0.078015  0.01617  -0.000754  4.016877  -0.001
C  C46  1  0.05436645  0.91558352  0.77384941  1  0.654648  0.002399  3.868876  0.004  0.59921  0.000541  4.172577  0.002  0.636043  0.000449  4.162625  0.001  0.22591  0.573554  0.000589  4.179871  0.002
C  C47  1  0.94562509  0.08441627  0.22615265  1  0.65465  0.002398  3.868876  0.004  0.599132  0.000542  4.172689  0.002  0.635957  0.000448  4.162742  0.001  0.225816  0.573479  0.00059  4.179996  0.002
C  C48  1  0.88968705  0.73741733  0.30907508  1  0.617941  -0.00292  3.943542  -0.005  0.569231  -0.000465  4.238808  -0.002  0.605965  -0.000436  4.230439  -0.002  0.207714  0.543934  -0.000442  4.24421  -0.002
C  C49  1  0.11030866  0.26257884  0.69091772  1  0.617724  -0.002932  3.943971  -0.005  0.569015  -0.000464  4.239229  -0.002  0.605748  -0.000436  4.230866  -0.002  0.207635  0.543714  -0.000442  4.244626  -0.002
N  N50  1  0.57004368  0.35843564  0.58439605  1  -0.206127  0.079513  3.439939  0.102  -0.189292  0.059833  3.780959  0.081  -0.212748  0.053167  3.806235  0.076  -0.276093  -0.174198  0.057365  3.764052  0.076
N  N51  1  0.42996557  0.64157483  0.41562127  1  -0.205955  0.079476  3.440535  0.102  -0.189198  0.059827  3.781649  0.081  -0.212606  0.053168  3.806932  0.076  -0.276117  -0.174088  0.057335  3.764734  0.076
N  N52  1  0.53194716  0.32141135  0.46655248  1  -0.186795  -0.089164  3.40818  -0.114  -0.170682  -0.066738  3.745585  -0.091  -0.195753  -0.057451  3.77276  -0.082  -0.266403  -0.155864  -0.064339  3.729236  -0.085
N  N53  1  0.46805312  0.67858722  0.53343392  1  -0.186621  -0.089143  3.408954  -0.114  -0.170593  -0.066727  3.74646  -0.091  -0.195672  -0.05745  3.773657  -0.082  -0.266347  -0.15578  -0.064294  3.730102  -0.085
N  N54  1  0.78237914  0.77021699  0.46045624  1  -0.206337  0.079412  3.423279  0.102  -0.185865  0.060957  3.752152  0.083  -0.209014  0.054043  3.778315  0.077  -0.267626  -0.171285  0.058566  3.73578  0.077
N  N55  1  0.21762483  0.22979474  0.53955716  1  -0.206966  0.079436  3.422782  0.102  -0.186389  0.060967  3.75166  0.083  -0.209587  0.054044  3.777825  0.077  -0.267849  -0.171818  0.0586  3.73528  0.077
N  N56  1  0.82256518  0.81297436  0.57815082  1  -0.197671  -0.074393  3.422021  -0.096  -0.17461  -0.0559  3.752203  -0.076  -0.197966  -0.049088  3.778514  -0.07  -0.266819  -0.160326  -0.053498  3.736382  -0.071
N  N57  1  0.17742695  0.18702427  0.42183429  1  -0.197474  -0.074421  3.421286  -0.096  -0.174429  -0.055906  3.751424  -0.076  -0.197775  -0.049085  3.777725  -0.07  -0.266685  -0.160133  -0.053531  3.735602  -0.071
O  O58  1  0.66957163  0.45348162  0.81706996  1  -0.663157  0.062691  2.012157  0.085  -0.623942  0.044264  2.296147  0.064  -0.664086  0.035005  2.285548  0.053  -0.354136  -0.596441  0.047031  2.302852  0.066
O  O59  1  0.33042829  0.54651090  0.18292725  1  -0.663125  0.062645  2.012237  0.085  -0.623962  0.044249  2.296163  0.064  -0.664065  0.034997  2.285573  0.053  -0.354144  -0.596461  0.04699  2.302902  0.066
O  O60  1  0.94900185  0.52640162  0.85589590  1  -0.641051  0.007124  1.982719  0.009  -0.588889  0.004437  2.223397  0.006  -0.614199  0.002563  2.213895  0.004  -0.34115  -0.570667  0.006213  2.22932  0.008
O  O61  1  0.05099217  0.47359335  0.14410325  1  -0.64106  0.007121  1.982676  0.009  -0.588904  0.004434  2.223358  0.006  -0.614202  0.002562  2.213816  0.004  -0.341198  -0.570676  0.006205  2.229285  0.008
O  O62  1  0.48030595  0.25380247  0.24023349  1  -0.617448  -0.065261  2.04732  -0.089  -0.580734  -0.043926  2.321407  -0.064  -0.619823  -0.034241  2.306176  -0.052  -0.320795  -0.555496  -0.045939  2.33243  -0.065
O  O63  1  0.51969537  0.74620085  0.75977383  1  -0.617514  -0.065211  2.047393  -0.089  -0.580741  -0.043914  2.321444  -0.064  -0.619836  -0.034235  2.306227  -0.052  -0.320748  -0.555523  -0.045912  2.332465  -0.065
O  O64  1  0.76000286  0.37866371  0.26836884  1  -0.614544  -0.007395  1.953369  -0.01  -0.564865  -0.004238  2.186011  -0.006  -0.589461  -0.002349  2.177807  -0.003  -0.321577  -0.548754  -0.005573  2.192188  -0.007
O  O65  1  0.23999364  0.62134448  0.73163394  1  -0.614628  -0.007377  1.953231  -0.01  -0.564955  -0.004236  2.185924  -0.006  -0.58955  -0.002349  2.177717  -0.003  -0.321633  -0.54885  -0.00557  2.192097  -0.007
O  O66  1  0.72760989  0.68026148  0.23544857  1  -0.655685  0.057873  2.079597  0.079  -0.613875  0.040482  2.36378  0.059  -0.652472  0.032518  2.353711  0.049  -0.349126  -0.587711  0.042168  2.371045  0.059
O  O67  1  0.27238877  0.31973346  0.76454668  1  -0.655657  0.057911  2.079734  0.079  -0.613812  0.040494  2.363968  0.059  -0.652453  0.032525  2.353885  0.049  -0.349172  -0.587664  0.042204  2.371223  0.059
O  O68  1  0.00239893  0.74252515  0.26871349  1  -0.614877  0.006734  2.03894  0.009  -0.552736  0.003997  2.261884  0.005  -0.579006  0.002395  2.254745  0.003  -0.308098  -0.534104  0.005179  2.266401  0.007
O  O69  1  0.99761061  0.25747572  0.73128824  1  -0.614824  0.006746  2.039233  0.009  -0.552646  0.004  2.262117  0.005  -0.578929  0.002395  2.255014  0.003  -0.308034  -0.533992  0.005186  2.266574  0.007
O  O70  1  0.93274811  0.90200587  0.81353442  1  -0.643991  -0.043899  2.032159  -0.06  -0.590924  -0.033538  2.28754  -0.049  -0.626387  -0.026609  2.273246  -0.041  -0.311838  -0.56696  -0.035177  2.298444  -0.05
O  O71  1  0.06725391  0.09799384  0.18647212  1  -0.643952  -0.043931  2.031973  -0.06  -0.59089  -0.033546  2.287427  -0.049  -0.626331  -0.026611  2.273105  -0.041  -0.311815  -0.56691  -0.035197  2.298335  -0.05
O  O72  1  0.21177900  0.97174823  0.84345593  1  -0.613872  -0.002923  1.98823  -0.004  -0.547041  -0.002415  2.195874  -0.003  -0.570453  -0.001527  2.182517  -0.002  -0.293106  -0.531303  -0.002766  2.205832  -0.004
O  O73  1  0.78821773  0.02825273  0.15654669  1  -0.613829  -0.002928  1.988394  -0.004  -0.546969  -0.002416  2.196075  -0.003  -0.570378  -0.001528  2.182727  -0.002  -0.293014  -0.531224  -0.002768  2.206039  -0.004
O  O74  1  0.97304004  0.79252177  0.02992209  1  -0.861063  -0.000587  1.882804  -0.001  -0.801908  -0.000379  2.063827  -0.001  -0.821347  -0.000182  2.032503  0.0  -0.591848  -0.787744  -0.000621  2.086195  -0.001
O  O75  1  0.02696143  0.20747675  0.97007914  1  -0.861032  -0.000588  1.882882  -0.001  -0.801895  -0.000379  2.063894  -0.001  -0.82133  -0.000183  2.032572  0.0  -0.591864  -0.787733  -0.000621  2.08626  -0.001
O  O76  1  0.73169094  0.21262229  0.97980471  1  -0.861743  -3.8e-05  1.871914  0.0  -0.797732  -3.4e-05  2.037968  0.0  -0.818502  -3.4e-05  2.006382  0.0  -0.593602  -0.782959  -1.1e-05  2.061057  0.0
O  O77  1  0.26830766  0.78737506  0.02019402  1  -0.86173  -3.9e-05  1.871894  0.0  -0.797733  -3.4e-05  2.037925  0.0  -0.818498  -3.4e-05  2.006345  0.0  -0.593578  -0.782957  -1.1e-05  2.061014  0.0
O  O78  1  0.56463510  0.67463071  0.98211970  1  -0.897371  -0.001485  1.815719  -0.002  -0.834731  -0.000909  2.003495  -0.001  -0.85583  -0.00056  1.972306  -0.001  -0.614404  -0.819688  -0.00106  2.026206  -0.001
O  O79  1  0.43536800  0.32537141  0.01788207  1  -0.897349  -0.001485  1.81577  -0.002  -0.834743  -0.000909  2.00348  -0.001  -0.855829  -0.000559  1.972319  -0.001  -0.614427  -0.8197  -0.00106  2.026192  -0.001
O  O80  1  0.46817317  0.10248601  0.75951524  1  -0.853955  -0.001516  1.904015  -0.001  -0.804479  -0.00108  2.08796  -0.001  -0.827522  -0.001136  2.05196  -0.001  -0.586653  -0.787291  -0.001043  2.112911  -0.001
O  O81  1  0.53182302  0.89751376  0.24048207  1  -0.853962  -0.001512  1.903971  -0.001  -0.804515  -0.00108  2.087916  -0.001  -0.827516  -0.001137  2.051964  -0.001  -0.586653  -0.787308  -0.001044  2.112872  -0.001
O  O82  1  0.33359485  0.96136671  0.35656691  1  -0.838511  0.000956  1.871525  0.0  -0.793382  0.000452  2.053586  0.0  -0.816144  0.000687  2.018626  0.0  -0.606698  -0.777012  0.00033  2.07869  0.0
O  O83  1  0.66640196  0.03863185  0.64343138  1  -0.838441  0.000962  1.871496  0.0  -0.793374  0.000452  2.053509  0.0  -0.816134  0.000686  2.018545  0.0  -0.606732  -0.777023  0.00033  2.078614  0.0
