# generated using pymatgen
data_MnPH7(CO4)2
_symmetry_space_group_name_H-M   'P 1'
_cell_length_a   5.84601388
_cell_length_b   7.92834561
_cell_length_c   15.49033760
_cell_angle_alpha   89.99998054
_cell_angle_beta   89.99998307
_cell_angle_gamma   110.35885425
_symmetry_Int_Tables_number   1
_chemical_formula_structural   MnPH7(CO4)2
_chemical_formula_sum   'Mn4 P4 H28 C8 O32'
_cell_volume   673.11525063
_cell_formula_units_Z   4
loop_
 _symmetry_equiv_pos_site_id
 _symmetry_equiv_pos_as_xyz
  1  'x, y, z'
loop_
 _atom_site_type_symbol
 _atom_site_label
 _atom_site_symmetry_multiplicity
 _atom_site_fract_x
 _atom_site_fract_y
 _atom_site_fract_z
 _atom_site_occupancy
 _atom_site_hle17_ddec_charge
 _atom_site_hle17_ddec_spin_density
 _atom_site_hle17_ddec_sum_bond_order
 _atom_site_hle17_magmom
 _atom_site_hse06_10hf_ddec_charge
 _atom_site_hse06_10hf_ddec_spin_density
 _atom_site_hse06_10hf_ddec_sum_bond_order
 _atom_site_hse06_10hf_magmom
 _atom_site_hse06_ddec_charge
 _atom_site_hse06_ddec_spin_density
 _atom_site_hse06_ddec_sum_bond_order
 _atom_site_hse06_magmom
 _atom_site_pbe_cm5_charge
 _atom_site_pbe_ddec_charge
 _atom_site_pbe_ddec_spin_density
 _atom_site_pbe_ddec_sum_bond_order
 _atom_site_pbe_magmom
Mn  Mn0  1  0.73856834  0.48802661  0.63524107  1  1.310247  4.802519  1.624672  4.701  1.148886  4.735748  2.108155  4.572  1.204392  4.769761  2.038172  4.622  0.602545  1.104915  4.703122  2.159297  4.525
Mn  Mn1  1  0.26143594  0.01197567  0.13524042  1  1.310246  4.802527  1.624681  4.701  1.148893  4.735758  2.108149  4.572  1.204398  4.769768  2.038167  4.622  0.602547  1.104914  4.703132  2.159295  4.525
Mn  Mn2  1  0.26143228  0.51197323  0.36475894  1  1.310266  4.802523  1.624628  4.701  1.148895  4.735751  2.108122  4.572  1.204405  4.769766  2.038135  4.622  0.602569  1.104922  4.703125  2.159264  4.525
Mn  Mn3  1  0.73856764  0.98802686  0.86475895  1  1.31029  4.802527  1.624609  4.701  1.148922  4.735758  2.108095  4.572  1.204428  4.769768  2.038115  4.622  0.602576  1.104947  4.703132  2.159243  4.525
P  P4  1  0.98890348  0.16690461  0.67877016  1  1.471101  0.008386  4.755439  0.007  1.297619  0.014583  5.265136  0.01  1.348477  0.011007  5.227811  0.008  0.378937  1.261858  0.018011  5.290142  0.011
P  P5  1  0.01109373  0.33309358  0.17876754  1  1.470936  0.008398  4.755622  0.007  1.297467  0.014584  5.265315  0.01  1.348321  0.011008  5.228011  0.008  0.378861  1.261705  0.018013  5.29032  0.011
P  P6  1  0.01109651  0.83309388  0.32122985  1  1.471128  0.00839  4.755469  0.007  1.297656  0.014582  5.26516  0.01  1.348515  0.011005  5.227836  0.008  0.378964  1.261896  0.01801  5.290165  0.011
P  P7  1  0.98890518  0.66690625  0.82123247  1  1.471076  0.008384  4.7555  0.007  1.297601  0.014584  5.265198  0.01  1.348456  0.011009  5.22789  0.008  0.378915  1.261841  0.018013  5.290204  0.011
H  H8  1  0.28294077  0.51985896  0.63187125  1  0.429692  -0.000926  0.873704  0.0  0.396366  -0.000383  0.942476  0.001  0.406733  -0.000573  0.927568  0.001  0.302854  0.388999  -0.000206  0.953032  0.001
H  H9  1  0.71706006  0.98014271  0.13187176  1  0.429663  -0.000926  0.873741  0.0  0.396335  -0.000383  0.94252  0.001  0.406703  -0.000573  0.927612  0.001  0.302843  0.388968  -0.000206  0.953076  0.001
H  H10  1  0.71706048  0.48014223  0.36812811  1  0.429671  -0.000921  0.873743  0.0  0.396344  -0.000383  0.942511  0.001  0.406712  -0.000573  0.927603  0.001  0.302844  0.388977  -0.000206  0.953066  0.001
H  H11  1  0.28293885  0.01985712  0.86812825  1  0.429664  -0.000926  0.873739  0.0  0.396334  -0.000383  0.942522  0.001  0.406702  -0.000573  0.927614  0.001  0.302843  0.388967  -0.000206  0.953079  0.001
H  H12  1  0.45689681  0.67388706  0.57175892  1  0.436634  -0.000695  0.844105  0.0  0.403072  -1e-06  0.920122  0.001  0.414759  -0.000255  0.903033  0.001  0.306858  0.394701  0.000243  0.931696  0.001
H  H13  1  0.54310175  0.82611331  0.07175947  1  0.436642  -0.000691  0.844124  0.0  0.403081  -1e-06  0.920116  0.001  0.414766  -0.000255  0.90303  0.001  0.306853  0.394707  0.000244  0.931718  0.001
H  H14  1  0.54310381  0.32611277  0.42823980  1  0.436639  -0.000696  0.844126  0.0  0.403073  -1e-06  0.92013  0.001  0.414759  -0.000255  0.903043  0.001  0.306857  0.394702  0.000244  0.931727  0.001
H  H15  1  0.45689778  0.17388786  0.92823989  1  0.436645  -0.000696  0.844106  0.0  0.40308  -1e-06  0.920117  0.001  0.414765  -0.000255  0.903031  0.001  0.30686  0.394708  0.000244  0.931706  0.001
H  H16  1  0.05607562  0.79094500  0.55254825  1  0.438331  0.00023  0.857742  0.002  0.406257  0.000905  0.922733  0.003  0.417322  0.000596  0.906684  0.002  0.304002  0.398303  0.001211  0.934244  0.003
H  H17  1  0.94392530  0.70905675  0.05254812  1  0.438316  0.000228  0.857767  0.002  0.406244  0.000905  0.922753  0.003  0.417308  0.000596  0.906704  0.002  0.303996  0.39829  0.001211  0.934264  0.003
H  H18  1  0.94392391  0.20905618  0.44745176  1  0.438321  0.000228  0.857759  0.002  0.406237  0.000905  0.922764  0.003  0.417302  0.000596  0.906716  0.002  0.303993  0.398285  0.001211  0.934273  0.003
H  H19  1  0.05607531  0.29094309  0.94745124  1  0.438336  0.000228  0.857735  0.002  0.406265  0.000905  0.922718  0.003  0.417329  0.000596  0.90667  0.002  0.30399  0.398313  0.001211  0.934227  0.003
H  H20  1  0.95877094  0.64988791  0.47757631  1  0.430284  0.000244  0.874929  0.002  0.398369  0.001096  0.940379  0.003  0.408499  0.000708  0.925739  0.003  0.302052  0.391118  0.001459  0.950824  0.003
H  H21  1  0.04122948  0.85011341  0.97757578  1  0.430275  0.00024  0.87494  0.002  0.398361  0.001096  0.940387  0.003  0.408489  0.000708  0.925751  0.003  0.302055  0.391109  0.001459  0.950834  0.003
H  H22  1  0.04122968  0.35011192  0.52242435  1  0.43028  0.00024  0.874935  0.002  0.398356  0.001096  0.940402  0.003  0.408486  0.000708  0.925762  0.003  0.302046  0.391105  0.001459  0.950847  0.003
H  H23  1  0.95877005  0.14988776  0.02242423  1  0.430273  0.000241  0.874944  0.002  0.39835  0.001096  0.940408  0.003  0.40848  0.000708  0.925768  0.003  0.302045  0.391099  0.001459  0.950854  0.003
H  H24  1  0.47492383  0.23734924  0.77618252  1  0.409198  -0.000251  0.857201  0.001  0.381302  0.000343  0.930119  0.002  0.392111  4.6e-05  0.918353  0.002  0.311982  0.373556  0.000632  0.938507  0.002
H  H25  1  0.52507622  0.26265154  0.27618179  1  0.409215  -0.000248  0.857189  0.001  0.381322  0.000343  0.930102  0.002  0.392132  4.6e-05  0.918336  0.002  0.311994  0.373574  0.000632  0.938491  0.002
H  H26  1  0.52507507  0.76265059  0.22381749  1  0.40919  -0.000249  0.857201  0.001  0.381296  0.000343  0.93012  0.002  0.392105  4.6e-05  0.918355  0.002  0.311968  0.373549  0.000632  0.938507  0.002
H  H27  1  0.47492268  0.73734828  0.72381822  1  0.409217  -0.000251  0.857179  0.001  0.38129  0.000343  0.930147  0.002  0.3921  4.6e-05  0.918381  0.002  0.311981  0.373544  0.000632  0.938535  0.002
H  H28  1  0.77210035  0.99644538  0.56852654  1  0.434713  -0.000109  0.872417  0.0  0.395855  -0.000105  0.947421  0.0  0.409057  -0.000129  0.92871  0.0  0.308539  0.386619  -7.5e-05  0.960501  0.0
H  H29  1  0.22789930  0.50355365  0.06852653  1  0.434662  -0.000114  0.872501  0.0  0.395809  -0.000105  0.9475  0.0  0.40901  -0.000129  0.928789  0.0  0.308513  0.386573  -7.5e-05  0.96058  0.0
H  H30  1  0.22789793  0.00355310  0.43147347  1  0.43469  -0.000109  0.872455  0.0  0.395839  -0.000105  0.94745  0.0  0.409043  -0.000129  0.928733  0.0  0.308526  0.386601  -7.5e-05  0.960532  0.0
H  H31  1  0.77210023  0.49644752  0.93147348  1  0.434672  -0.000114  0.872461  0.0  0.39582  -0.000105  0.947459  0.0  0.409023  -0.000129  0.928743  0.0  0.308505  0.386582  -7.5e-05  0.960541  0.0
H  H32  1  0.26952933  0.00209834  0.69418950  1  0.132766  -0.000282  0.920905  0.0  0.136571  0.000185  0.981332  0.001  0.140432  -5.5e-05  0.978734  0.0  0.129567  0.133734  0.00045  0.983457  0.001
H  H33  1  0.73046974  0.49790386  0.19418871  1  0.132804  -0.000283  0.920886  0.0  0.136604  0.000185  0.981326  0.001  0.140463  -5.6e-05  0.978729  0.0  0.129575  0.133766  0.00045  0.98345  0.001
H  H34  1  0.73046958  0.99790148  0.30581051  1  0.132803  -0.000273  0.920894  0.0  0.136606  0.000185  0.981328  0.001  0.140468  -5.6e-05  0.97873  0.0  0.129586  0.13377  0.00045  0.983452  0.001
H  H35  1  0.26952808  0.50209731  0.80581130  1  0.132794  -0.000279  0.920889  0.0  0.136594  0.000185  0.981325  0.001  0.140456  -5.6e-05  0.978726  0.0  0.12956  0.133756  0.00045  0.98345  0.001
C  C36  1  0.28902007  0.13548491  0.66795765  1  -0.213959  0.003505  3.647206  0.004  -0.219309  0.005722  3.907657  0.005  -0.22503  0.004207  3.910455  0.004  -0.007596  -0.215829  0.007291  3.906227  0.006
C  C37  1  0.71097841  0.36451597  0.16795753  1  -0.21396  0.003508  3.647175  0.004  -0.219342  0.00572  3.90763  0.005  -0.225053  0.004204  3.910426  0.004  -0.007635  -0.215867  0.007291  3.9062  0.006
C  C38  1  0.71097884  0.86451491  0.33204107  1  -0.213987  0.003487  3.647199  0.004  -0.219356  0.005721  3.907661  0.005  -0.225075  0.004204  3.910462  0.004  -0.007645  -0.21588  0.007291  3.906238  0.006
C  C39  1  0.28901941  0.63548520  0.83204248  1  -0.213986  0.00352  3.647225  0.004  -0.219348  0.00572  3.907663  0.005  -0.225068  0.004207  3.910459  0.004  -0.007563  -0.215865  0.007291  3.906231  0.006
C  C40  1  0.35938895  0.14234858  0.57318760  1  0.698513  0.001917  3.848429  0.002  0.630125  0.004757  4.165635  0.005  0.665662  0.003281  4.156601  0.003  0.225475  0.605828  0.006408  4.17098  0.006
C  C41  1  0.64060901  0.35765105  0.07318814  1  0.698352  0.001899  3.848639  0.002  0.630033  0.004758  4.165743  0.005  0.665566  0.00328  4.156713  0.003  0.225438  0.605737  0.006409  4.171085  0.006
C  C42  1  0.64060385  0.85764183  0.42681176  1  0.698433  0.001924  3.848544  0.002  0.630071  0.004757  4.165695  0.005  0.665607  0.003282  4.156666  0.003  0.2255  0.605777  0.006408  4.171031  0.006
C  C43  1  0.35939537  0.64235685  0.92681187  1  0.698404  0.001923  3.848518  0.002  0.630055  0.004757  4.165665  0.005  0.665591  0.003281  4.156632  0.003  0.225471  0.605761  0.006408  4.171008  0.006
O  O44  1  0.44748607  0.61693389  0.62961047  1  -0.831823  0.027509  1.924071  0.017  -0.764751  0.036609  2.139096  0.023  -0.788775  0.032719  2.103614  0.02  -0.545654  -0.747071  0.04016  2.163623  0.026
O  O45  1  0.55251584  0.88306644  0.12961101  1  -0.831774  0.027504  1.924099  0.017  -0.764721  0.03661  2.139111  0.023  -0.788741  0.03272  2.103626  0.02  -0.545639  -0.747042  0.040161  2.163659  0.026
O  O46  1  0.55251563  0.38306461  0.37038889  1  -0.831792  0.027504  1.924089  0.017  -0.764734  0.036609  2.139087  0.023  -0.788756  0.032719  2.103602  0.02  -0.545657  -0.747053  0.04016  2.163634  0.026
O  O47  1  0.44748369  0.11693474  0.87038900  1  -0.831784  0.027508  1.924076  0.017  -0.764729  0.036609  2.139094  0.023  -0.788751  0.032719  2.103611  0.02  -0.545648  -0.747049  0.04016  2.163634  0.026
O  O48  1  0.52071804  0.28379425  0.54378151  1  -0.65065  0.02741  2.051281  0.016  -0.575314  0.033071  2.310084  0.019  -0.60531  0.03  2.296388  0.016  -0.292724  -0.553589  0.035936  2.318814  0.021
O  O49  1  0.47928400  0.21620676  0.04378208  1  -0.650599  0.027422  2.051411  0.016  -0.575284  0.033073  2.310178  0.019  -0.605277  0.030001  2.296485  0.016  -0.292711  -0.553559  0.035938  2.318907  0.021
O  O50  1  0.47928709  0.71620426  0.45621721  1  -0.650603  0.027407  2.05152  0.016  -0.57529  0.03307  2.310336  0.019  -0.605284  0.030001  2.296639  0.016  -0.292754  -0.553581  0.035935  2.319097  0.021
O  O51  1  0.52071210  0.78379440  0.95621857  1  -0.650616  0.027403  2.051508  0.016  -0.5753  0.033071  2.310301  0.019  -0.605295  0.029998  2.296608  0.016  -0.292734  -0.55357  0.035935  2.319017  0.021
O  O52  1  0.95565449  0.66322082  0.54121856  1  -0.855376  0.035656  1.900068  0.023  -0.787469  0.044986  2.121348  0.028  -0.811587  0.039947  2.084878  0.024  -0.581448  -0.769195  0.049656  2.147002  0.032
O  O53  1  0.04434239  0.83677958  0.04121852  1  -0.855346  0.035664  1.900096  0.023  -0.787441  0.044982  2.12137  0.028  -0.811558  0.039945  2.084903  0.024  -0.581444  -0.769169  0.049654  2.147026  0.032
O  O54  1  0.04434379  0.33677767  0.45878145  1  -0.85538  0.035668  1.900116  0.023  -0.78745  0.044985  2.121393  0.028  -0.811569  0.039946  2.084925  0.024  -0.581433  -0.769177  0.049656  2.147045  0.032
O  O55  1  0.95565542  0.16322159  0.95878149  1  -0.855371  0.035662  1.900072  0.023  -0.787453  0.044984  2.121347  0.028  -0.811573  0.039946  2.084881  0.024  -0.581424  -0.769181  0.049656  2.147001  0.032
O  O56  1  0.46641943  0.27691453  0.71496177  1  -0.551027  0.025602  2.212117  0.013  -0.491747  0.035077  2.468654  0.02  -0.510527  0.031525  2.453837  0.017  -0.368448  -0.477565  0.038481  2.478689  0.022
O  O57  1  0.53357899  0.22308631  0.21496169  1  -0.551023  0.025591  2.21213  0.013  -0.491749  0.035079  2.468674  0.02  -0.510534  0.031527  2.453856  0.017  -0.368421  -0.477553  0.038482  2.478699  0.022
O  O58  1  0.53357994  0.72308262  0.28503759  1  -0.551038  0.025596  2.212153  0.013  -0.491756  0.035079  2.468681  0.02  -0.510538  0.031527  2.453865  0.017  -0.368429  -0.477568  0.038482  2.478711  0.022
O  O59  1  0.46641992  0.77691352  0.78503832  1  -0.551035  0.025586  2.21212  0.013  -0.491736  0.035078  2.468681  0.02  -0.510515  0.031524  2.453864  0.017  -0.368457  -0.477553  0.038481  2.478716  0.022
O  O60  1  0.01658176  0.34533369  0.63248263  1  -0.894021  0.029046  2.069962  0.016  -0.795351  0.037857  2.334958  0.022  -0.824901  0.034023  2.312486  0.02  -0.348573  -0.773865  0.041516  2.350149  0.025
O  O61  1  0.98341910  0.15466858  0.13248251  1  -0.893954  0.029042  2.070166  0.016  -0.795278  0.037854  2.335132  0.022  -0.824827  0.034022  2.312663  0.02  -0.348553  -0.773795  0.041514  2.350327  0.025
O  O62  1  0.98342058  0.65466615  0.36751802  1  -0.894032  0.029047  2.069924  0.016  -0.795364  0.037856  2.334913  0.022  -0.824912  0.034023  2.31244  0.02  -0.34861  -0.773879  0.041516  2.350103  0.025
O  O63  1  0.01657980  0.84533125  0.86751685  1  -0.893986  0.029048  2.070169  0.016  -0.795309  0.037855  2.335136  0.022  -0.824858  0.034022  2.312667  0.02  -0.348547  -0.773825  0.041515  2.350332  0.025
O  O64  1  0.93697617  0.16829747  0.77412508  1  -0.841871  0.038809  2.001631  0.023  -0.75095  0.04562  2.296897  0.025  -0.782764  0.040726  2.274437  0.021  -0.363195  -0.727036  0.050186  2.311504  0.029
O  O65  1  0.06302326  0.33170197  0.27412569  1  -0.841781  0.038811  2.001491  0.023  -0.750853  0.045617  2.29674  0.025  -0.782675  0.040723  2.27429  0.021  -0.363154  -0.726938  0.050183  2.311342  0.029
O  O66  1  0.06302445  0.83170237  0.22587557  1  -0.841897  0.038806  2.001721  0.023  -0.750973  0.045617  2.296973  0.025  -0.782788  0.040723  2.274514  0.021  -0.363184  -0.727058  0.050182  2.311577  0.029
O  O67  1  0.93697627  0.66829920  0.72587367  1  -0.841826  0.038805  2.00142  0.023  -0.750907  0.045618  2.296684  0.025  -0.782723  0.040722  2.274228  0.021  -0.363187  -0.726992  0.050183  2.311289  0.029
O  O68  1  0.78631705  0.00346270  0.63535215  1  -0.732758  -0.000469  2.039485  0.0  -0.654925  0.000198  2.278567  0.001  -0.677226  -0.000212  2.252912  0.001  -0.371433  -0.639238  0.000656  2.295916  0.002
O  O69  1  0.21367912  0.49653686  0.13535206  1  -0.732673  -0.000468  2.039531  0.0  -0.65486  0.000198  2.278615  0.001  -0.67716  -0.000212  2.252967  0.001  -0.371402  -0.639173  0.000656  2.295963  0.002
O  O70  1  0.21367951  0.99653578  0.36464786  1  -0.732703  -0.000469  2.039495  0.0  -0.654886  0.000198  2.27858  0.001  -0.677184  -0.000212  2.252918  0.001  -0.371399  -0.639199  0.000656  2.295931  0.002
O  O71  1  0.78631807  0.50346296  0.86464730  1  -0.732695  -0.000464  2.039489  0.0  -0.654873  0.000198  2.278565  0.001  -0.677176  -0.000212  2.252917  0.001  -0.371386  -0.639185  0.000656  2.295917  0.002
O  O72  1  0.24057497  0.00640071  0.52828996  1  -0.620048  0.001896  2.084165  0.003  -0.55464  0.003728  2.317649  0.004  -0.58136  0.002677  2.306838  0.004  -0.293741  -0.536265  0.004857  2.325007  0.006
O  O73  1  0.75942710  0.49360032  0.02828916  1  -0.619996  0.0019  2.08419  0.003  -0.554603  0.003729  2.317627  0.004  -0.581322  0.002678  2.30682  0.004  -0.293735  -0.536234  0.004857  2.32499  0.006
O  O74  1  0.75942908  0.99359913  0.47171199  1  -0.620008  0.001893  2.083913  0.003  -0.554588  0.003729  2.317392  0.004  -0.581309  0.002677  2.306587  0.004  -0.293755  -0.536224  0.004857  2.324758  0.006
O  O75  1  0.24057289  0.50639817  0.97171149  1  -0.620007  0.001893  2.083931  0.003  -0.554616  0.003729  2.317412  0.004  -0.58133  0.002678  2.3066  0.004  -0.293769  -0.536255  0.004857  2.324779  0.006
