# generated using pymatgen
data_AgH2C3(NO)3
_symmetry_space_group_name_H-M   'P 1'
_cell_length_a   3.58453238
_cell_length_b   9.57784027
_cell_length_c   15.63916699
_cell_angle_alpha   90.00060268
_cell_angle_beta   90.00150184
_cell_angle_gamma   99.35512879
_symmetry_Int_Tables_number   1
_chemical_formula_structural   AgH2C3(NO)3
_chemical_formula_sum   'Ag4 H8 C12 N12 O12'
_cell_volume   529.78388069
_cell_formula_units_Z   4
loop_
 _symmetry_equiv_pos_site_id
 _symmetry_equiv_pos_as_xyz
  1  'x, y, z'
loop_
 _atom_site_type_symbol
 _atom_site_label
 _atom_site_symmetry_multiplicity
 _atom_site_fract_x
 _atom_site_fract_y
 _atom_site_fract_z
 _atom_site_occupancy
 _atom_site_hle17_bader_spin_density
 _atom_site_hle17_ddec_charge
 _atom_site_hle17_ddec_spin_density
 _atom_site_hle17_ddec_sum_bond_order
 _atom_site_hle17_magmom
 _atom_site_pbe_bader_spin_density
 _atom_site_pbe_cm5_charge
 _atom_site_pbe_ddec_charge
 _atom_site_pbe_ddec_spin_density
 _atom_site_pbe_ddec_sum_bond_order
 _atom_site_pbe_magmom
Ag  Ag0  1  0.75427449  0.67336565  0.42448750  1  0  0.68339  0  1.318222  0  0  0.494232  0.552686  0  1.780852  0
Ag  Ag1  1  0.24571452  0.82662285  0.92448625  1  0  0.6836  0  1.318316  0  0  0.494312  0.552752  0  1.780954  0
Ag  Ag2  1  0.24572740  0.32662903  0.57551267  1  0  0.683454  0  1.318274  0  0  0.494269  0.552757  0  1.780899  0
Ag  Ag3  1  0.75428525  0.17338027  0.07551328  1  0  0.683657  0  1.318364  0  0  0.494317  0.552825  0  1.781036  0
H  H4  1  0.42104608  0.46200970  0.06795912  1  0  0.349277  0  0.907834  0  0  0.300449  0.323402  0  0.975568  0
H  H5  1  0.57895894  0.03798989  0.56796116  1  0  0.349396  0  0.907677  0  0  0.300543  0.323537  0  0.975352  0
H  H6  1  0.57896660  0.53799770  0.93204360  1  0  0.349335  0  0.907688  0  0  0.300465  0.323468  0  0.975405  0
H  H7  1  0.42102234  0.96200895  0.43203965  1  0  0.349309  0  0.907776  0  0  0.300498  0.323455  0  0.975441  0
H  H8  1  0.50750341  0.52305902  0.17471464  1  0  0.3522  0  0.907924  0  0  0.306398  0.321165  0  0.985422  0
H  H9  1  0.49251403  0.97694587  0.67470182  1  0  0.352239  0  0.907948  0  0  0.30639  0.321092  0  0.985583  0
H  H10  1  0.49249120  0.47694514  0.82527786  1  0  0.35215  0  0.907684  0  0  0.306341  0.321076  0  0.985288  0
H  H11  1  0.50747755  0.02305089  0.32529387  1  0  0.352417  0  0.907688  0  0  0.306442  0.321215  0  0.985384  0
C  C12  1  0.92416355  0.76369814  0.14424257  1  0  -0.220358  0  3.708976  0  0  0.051139  -0.221623  0  3.964992  0
C  C13  1  0.07586837  0.73630291  0.64423585  1  0  -0.221494  0  3.710026  0  0  0.051229  -0.2216  0  3.965657  0
C  C14  1  0.07582157  0.23629648  0.85575184  1  0  -0.220208  0  3.708699  0  0  0.051175  -0.221672  0  3.965115  0
C  C15  1  0.92414171  0.26369814  0.35575600  1  0  -0.221261  0  3.709485  0  0  0.051268  -0.221499  0  3.965294  0
C  C16  1  0.11335371  0.89361436  0.11514181  1  0  0.332919  0  3.832815  0  0  0.185526  0.287047  0  4.106645  0
C  C17  1  0.88668429  0.60638919  0.61515960  1  0  0.333255  0  3.833592  0  0  0.185602  0.287139  0  4.107297  0
C  C18  1  0.88664023  0.10638135  0.88485707  1  0  0.332969  0  3.833425  0  0  0.18562  0.287198  0  4.107273  0
C  C19  1  0.11334106  0.39361508  0.38484760  1  0  0.333279  0  3.834169  0  0  0.185653  0.287214  0  4.107843  0
C  C20  1  0.75694962  0.65585452  0.08285161  1  0  0.621676  0  3.892993  0  0  0.233042  0.547447  0  4.179532  0
C  C21  1  0.24309839  0.84416204  0.58286772  1  0  0.622068  0  3.893545  0  0  0.233065  0.547504  0  4.180305  0
C  C22  1  0.24304909  0.34415282  0.91714217  1  0  0.621615  0  3.892927  0  0  0.233012  0.547304  0  4.179697  0
C  C23  1  0.75690889  0.15583900  0.41713884  1  0  0.621867  0  3.893513  0  0  0.233033  0.547406  0  4.180193  0
N  N24  1  0.90000307  0.74956176  0.23277594  1  0  0.500222  0  3.987899  0  0  0.016906  0.526702  0  4.243208  0
N  N25  1  0.10003149  0.75045512  0.73276690  1  0  0.502297  0  3.988147  0  0  0.016704  0.526418  0  4.243827  0
N  N26  1  0.09999930  0.25044771  0.76722167  1  0  0.500262  0  3.988119  0  0  0.016892  0.52667  0  4.243605  0
N  N27  1  0.89997170  0.24954273  0.26722943  1  0  0.502335  0  3.988405  0  0  0.016666  0.526415  0  4.244205  0
N  N28  1  0.25427254  0.00517764  0.08944673  1  0  -0.481069  0  3.011708  0  0  -0.37001  -0.420008  0  3.344915  0
N  N29  1  0.74575773  0.49482994  0.58945666  1  0  -0.481078  0  3.011939  0  0  -0.370033  -0.420029  0  3.345189  0
N  N30  1  0.74572853  0.99482866  0.91055088  1  0  -0.481101  0  3.012354  0  0  -0.370077  -0.420023  0  3.345491  0
N  N31  1  0.25424392  0.50515734  0.41054159  1  0  -0.481168  0  3.012694  0  0  -0.370126  -0.42009  0  3.345867  0
N  N32  1  0.54459741  0.53796773  0.11052851  1  0  -0.659748  0  3.120439  0  0  -0.567164  -0.608606  0  3.369703  0
N  N33  1  0.45539247  0.96202181  0.61052049  1  0  -0.659754  0  3.12144  0  0  -0.567098  -0.608539  0  3.370913  0
N  N34  1  0.45538083  0.46202370  0.88947485  1  0  -0.659572  0  3.120498  0  0  -0.566983  -0.608395  0  3.369843  0
N  N35  1  0.54459825  0.03797283  0.38947648  1  0  -0.659881  0  3.121136  0  0  -0.567146  -0.608595  0  3.370614  0
O  O36  1  0.70490097  0.64008237  0.26564630  1  0  -0.422644  0  1.870927  0  0  -0.161361  -0.375641  0  2.104913  0
O  O37  1  0.29507202  0.85990443  0.76565068  1  0  -0.423727  0  1.871879  0  0  -0.161318  -0.375372  0  2.105494  0
O  O38  1  0.29510463  0.35992817  0.73435834  1  0  -0.42273  0  1.871279  0  0  -0.161337  -0.375532  0  2.105125  0
O  O39  1  0.70491138  0.14008596  0.23435268  1  0  -0.423731  0  1.871931  0  0  -0.161207  -0.375379  0  2.105624  0
O  O40  1  0.07042731  0.84633849  0.27970528  1  0  -0.412728  0  1.780276  0  0  -0.164076  -0.383914  0  2.009307  0
O  O41  1  0.92966172  0.65370295  0.77971980  1  0  -0.413943  0  1.78025  0  0  -0.164065  -0.383921  0  2.009128  0
O  O42  1  0.92956085  0.15366354  0.72029617  1  0  -0.412828  0  1.780281  0  0  -0.164117  -0.383988  0  2.009355  0
O  O43  1  0.07036450  0.34630344  0.22028740  1  0  -0.413996  0  1.780357  0  0  -0.16409  -0.383942  0  2.009273  0
O  O44  1  0.81064241  0.67808720  0.00256879  1  0  -0.64298  0  2.099432  0  0  -0.325174  -0.54882  0  2.378752  0
O  O45  1  0.18938139  0.82190625  0.50257996  1  0  -0.643031  0  2.098732  0  0  -0.32528  -0.548893  0  2.378199  0
O  O46  1  0.18934575  0.32191482  0.99743968  1  0  -0.643156  0  2.099149  0  0  -0.325255  -0.548888  0  2.378447  0
O  O47  1  0.81061944  0.17809266  0.49742532  1  0  -0.643002  0  2.099104  0  0  -0.32527  -0.548924  0  2.378591  0
