# generated using pymatgen
data_ZnH9C8(NO2)3
_symmetry_space_group_name_H-M   'P 1'
_cell_length_a   9.14457168
_cell_length_b   9.28870596
_cell_length_c   16.38280000
_cell_angle_alpha   92.82602995
_cell_angle_beta   105.93294339
_cell_angle_gamma   117.22818733
_symmetry_Int_Tables_number   1
_chemical_formula_structural   ZnH9C8(NO2)3
_chemical_formula_sum   'Zn4 H36 C32 N12 O24'
_cell_volume   1164.68171163
_cell_formula_units_Z   4
loop_
 _symmetry_equiv_pos_site_id
 _symmetry_equiv_pos_as_xyz
  1  'x, y, z'
loop_
 _atom_site_type_symbol
 _atom_site_label
 _atom_site_symmetry_multiplicity
 _atom_site_fract_x
 _atom_site_fract_y
 _atom_site_fract_z
 _atom_site_occupancy
 _atom_site_hle17_bader_spin_density
 _atom_site_hle17_ddec_charge
 _atom_site_hle17_ddec_spin_density
 _atom_site_hle17_ddec_sum_bond_order
 _atom_site_hle17_magmom
 _atom_site_hse06_10hf_bader_spin_density
 _atom_site_hse06_10hf_ddec_charge
 _atom_site_hse06_10hf_ddec_spin_density
 _atom_site_hse06_10hf_ddec_sum_bond_order
 _atom_site_hse06_10hf_magmom
 _atom_site_hse06_bader_spin_density
 _atom_site_hse06_ddec_charge
 _atom_site_hse06_ddec_spin_density
 _atom_site_hse06_ddec_sum_bond_order
 _atom_site_hse06_magmom
 _atom_site_pbe_bader_charge
 _atom_site_pbe_bader_spin_density
 _atom_site_pbe_cm5_charge
 _atom_site_pbe_ddec_charge
 _atom_site_pbe_ddec_spin_density
 _atom_site_pbe_ddec_sum_bond_order
 _atom_site_pbe_magmom
Zn  Zn0  1  0.86782921  0.96521132  0.32306151  1  0  1.076675  0  1.779127  0  0  0.909431  0  2.229302  0  0  0.957905  0  2.173231  0  1.306093  0  0.675126  0.875323  0  2.267859  0
Zn  Zn1  1  0.14965286  0.54719053  0.17547291  1  0  1.085042  0  1.758318  0  0  0.916597  0  2.209768  0  0  0.96523  0  2.153246  0  1.301886  0  0.676664  0.882236  0  2.248796  0
Zn  Zn2  1  0.13217671  0.03479126  0.67693532  1  0  1.07674  0  1.779116  0  0  0.909471  0  2.229287  0  0  0.957953  0  2.173247  0  1.306102  0  0.675144  0.875366  0  2.267842  0
Zn  Zn3  1  0.85034382  0.45280958  0.82452853  1  0  1.085146  0  1.758188  0  0  0.916698  0  2.209658  0  0  0.965433  0  2.153075  0  1.30186  0  0.676703  0.882338  0  2.248688  0
H  H4  1  0.36547773  0.31200814  0.22066780  1  0  0.09995  0  0.928416  0  0  0.114168  0  0.993204  0  0  0.115141  0  0.992155  0  0.117912  0  0.123163  0.113296  0  0.994214  0
H  H5  1  0.59696237  0.15051104  0.27483343  1  0  0.099408  0  0.922346  0  0  0.114434  0  0.984836  0  0  0.115475  0  0.982527  0  0.112896  0  0.123902  0.113488  0  0.985834  0
H  H6  1  0.63453139  0.68800063  0.77933458  1  0  0.099884  0  0.928414  0  0  0.114081  0  0.993192  0  0  0.115438  0  0.991002  0  0.117927  0  0.123148  0.113205  0  0.994211  0
H  H7  1  0.40302549  0.84947423  0.72516869  1  0  0.099415  0  0.922354  0  0  0.114419  0  0.984895  0  0  0.115664  0  0.98267  0  0.113006  0  0.12392  0.113476  0  0.985888  0
H  H8  1  0.40971336  0.23631785  0.31657393  1  0  0.109455  0  0.899897  0  0  0.127437  0  0.954721  0  0  0.127406  0  0.95541  0  0.108083  0  0.12651  0.127285  0  0.954492  0
H  H9  1  0.41742751  0.09027323  0.17864154  1  0  0.108474  0  0.900021  0  0  0.12647  0  0.954578  0  0  0.126305  0  0.954251  0  0.127173  0  0.126042  0.126324  0  0.954269  0
H  H10  1  0.59029057  0.76368968  0.68342945  1  0  0.10939  0  0.899949  0  0  0.12736  0  0.954755  0  0  0.12766  0  0.954462  0  0.107962  0  0.126513  0.127205  0  0.954531  0
H  H11  1  0.58256220  0.90972441  0.82136182  1  0  0.108516  0  0.900037  0  0  0.126572  0  0.954528  0  0  0.126617  0  0.954308  0  0.127212  0  0.126041  0.126425  0  0.954225  0
H  H12  1  0.99027981  0.71446885  0.43425287  1  0  0.107724  0  0.910756  0  0  0.120424  0  0.963521  0  0  0.122538  0  0.960994  0  0.159291  0  0.144799  0.118797  0  0.965475  0
H  H13  1  0.77529743  0.55290249  0.06642617  1  0  0.110498  0  0.910455  0  0  0.123598  0  0.962693  0  0  0.125665  0  0.960199  0  0.168255  0  0.144787  0.12187  0  0.964765  0
H  H14  1  0.00972576  0.28553744  0.56574645  1  0  0.10768  0  0.910793  0  0  0.120422  0  0.963515  0  0  0.122541  0  0.961  0  0.159276  0  0.144768  0.118795  0  0.965473  0
H  H15  1  0.22470209  0.44708773  0.93357971  1  0  0.110481  0  0.910466  0  0  0.123575  0  0.962708  0  0  0.125756  0  0.96015  0  0.168372  0  0.144734  0.121848  0  0.964777  0
H  H16  1  0.53479488  0.61902048  0.23404874  1  0  0.128355  0  0.929469  0  0  0.13594  0  0.995116  0  0  0.139118  0  0.990837  0  0.192704  0  0.149253  0.133546  0  0.99824  0
H  H17  1  0.89048670  0.30093797  0.25965980  1  0  0.129237  0  0.933359  0  0  0.135982  0  1.000081  0  0  0.138955  0  0.99521  0  0.214385  0  0.148488  0.133438  0  1.003378  0
H  H18  1  0.46521630  0.38097469  0.76594563  1  0  0.128283  0  0.929595  0  0  0.13587  0  0.995231  0  0  0.139205  0  0.990382  0  0.192449  0  0.149266  0.133475  0  0.998361  0
H  H19  1  0.10951395  0.69905225  0.74034564  1  0  0.129319  0  0.933391  0  0  0.135962  0  1.000239  0  0  0.139173  0  0.995409  0  0.214537  0  0.14847  0.133415  0  1.003531  0
H  H20  1  0.81749894  0.10190866  0.05092323  1  0  0.105828  0  0.967263  0  0  0.118431  0  1.026094  0  0  0.122016  0  1.023593  0  0.0896  0  0.107524  0.115796  0  1.02807  0
H  H21  1  0.55605759  0.76080649  0.45002580  1  0  0.104693  0  0.97068  0  0  0.116656  0  1.030925  0  0  0.120135  0  1.028543  0  0.09429  0  0.10701  0.114078  0  1.032827  0
H  H22  1  0.18249169  0.89809516  0.94907191  1  0  0.105885  0  0.967255  0  0  0.118478  0  1.026073  0  0  0.122065  0  1.023567  0  0.089489  0  0.107561  0.115845  0  1.028047  0
H  H23  1  0.44395465  0.23919733  0.54997753  1  0  0.104726  0  0.970595  0  0  0.116662  0  1.030885  0  0  0.120146  0  1.028512  0  0.094259  0  0.107002  0.114084  0  1.032786  0
H  H24  1  0.77148250  0.97584487  0.46407044  1  0  0.428352  0  0.878327  0  0  0.39474  0  0.946887  0  0  0.406253  0  0.930099  0  0.651076  0  0.286695  0.386621  0  0.958708  0
H  H25  1  0.02176443  0.30486510  0.03641093  1  0  0.427127  0  0.882253  0  0  0.393538  0  0.950804  0  0  0.40506  0  0.934051  0  0.647022  0  0.285412  0.385427  0  0.962577  0
H  H26  1  0.22852200  0.02415276  0.53592908  1  0  0.428324  0  0.878367  0  0  0.394722  0  0.946891  0  0  0.406231  0  0.930114  0  0.651077  0  0.28671  0.386604  0  0.958712  0
H  H27  1  0.97823217  0.69514367  0.96359014  1  0  0.42704  0  0.882371  0  0  0.393495  0  0.950826  0  0  0.405019  0  0.934071  0  0.647046  0  0.28542  0.385386  0  0.962597  0
H  H28  1  0.76977105  0.12242001  0.41961492  1  0  0.425355  0  0.817512  0  0  0.408908  0  0.87137  0  0  0.417413  0  0.861424  0  0.590524  0  0.320508  0.40283  0  0.878555  0
H  H29  1  0.21962271  0.35609339  0.08120631  1  0  0.420963  0  0.821532  0  0  0.40353  0  0.878038  0  0  0.412125  0  0.867987  0  0.608011  0  0.317176  0.397379  0  0.885341  0
H  H30  1  0.23023508  0.87757639  0.58038604  1  0  0.425305  0  0.817532  0  0  0.40886  0  0.871393  0  0  0.417367  0  0.86145  0  0.590466  0  0.320505  0.402782  0  0.878581  0
H  H31  1  0.78037361  0.64391043  0.91879397  1  0  0.420956  0  0.821677  0  0  0.403523  0  0.878178  0  0  0.412122  0  0.868134  0  0.607972  0  0.317175  0.397372  0  0.88548  0
H  H32  1  0.07448966  0.10590134  0.23224970  1  0  0.416179  0  0.831113  0  0  0.396703  0  0.890819  0  0  0.404611  0  0.882377  0  0.602335  0  0.312215  0.391065  0  0.896903  0
H  H33  1  0.38559052  0.84524159  0.27488636  1  0  0.417529  0  0.830085  0  0  0.397152  0  0.892036  0  0  0.405232  0  0.883242  0  0.605545  0  0.310841  0.391411  0  0.898322  0
H  H34  1  0.92551476  0.89410495  0.76774823  1  0  0.416191  0  0.831109  0  0  0.396719  0  0.890802  0  0  0.404629  0  0.882388  0  0.602508  0  0.312242  0.391081  0  0.896885  0
H  H35  1  0.61439435  0.15475110  0.72510697  1  0  0.417527  0  0.830001  0  0  0.39716  0  0.891935  0  0  0.405248  0  0.883137  0  0.605427  0  0.310824  0.391418  0  0.898223  0
H  H36  1  0.95010908  0.91576538  0.19363689  1  0  0.421011  0  0.881069  0  0  0.393751  0  0.937947  0  0  0.40463  0  0.922228  0  0.643563  0  0.290496  0.386092  0  0.948988  0
H  H37  1  0.22646198  0.75274938  0.30780820  1  0  0.422336  0  0.880047  0  0  0.394328  0  0.938022  0  0  0.405242  0  0.922258  0  0.647244  0  0.290842  0.386637  0  0.949108  0
H  H38  1  0.04988739  0.08424091  0.80635493  1  0  0.421088  0  0.880977  0  0  0.393796  0  0.937901  0  0  0.404678  0  0.922182  0  0.643425  0  0.290522  0.386138  0  0.948941  0
H  H39  1  0.77353569  0.24724826  0.69219577  1  0  0.422303  0  0.880116  0  0  0.394307  0  0.93807  0  0  0.405223  0  0.922306  0  0.647198  0  0.290824  0.386616  0  0.949157  0
C  C40  1  0.46560355  0.29823660  0.26869979  1  0  -0.030705  0  3.604027  0  0  -0.112248  0  3.871827  0  0  -0.107554  0  3.877756  0  0.305571  0  -0.03776  -0.115029  0  3.866226  0
C  C41  1  0.52917612  0.19680043  0.22691216  1  0  -0.023292  0  3.596946  0  0  -0.10397  0  3.862178  0  0  -0.088931  0  3.873798  0  0.284095  0  -0.03475  -0.10658  0  3.856331  0
C  C42  1  0.53439945  0.70176475  0.73130144  1  0  -0.030422  0  3.603929  0  0  -0.111781  0  3.871613  0  0  -0.099139  0  3.882284  0  0.305662  0  -0.037661  -0.114573  0  3.866028  0
C  C43  1  0.47081978  0.80319597  0.77309089  1  0  -0.023541  0  3.59688  0  0  -0.104324  0  3.862133  0  0  -0.090253  0  3.872822  0  0.283814  0  -0.034825  -0.106932  0  3.856283  0
C  C44  1  0.85920804  0.65115861  0.38783206  1  0  0.234362  0  3.664204  0  0  0.179995  0  3.955337  0  0  0.191814  0  3.967845  0  0.978066  0  0.158383  0.172247  0  3.946805  0
C  C45  1  0.76028430  0.46933815  0.11115985  1  0  0.230411  0  3.66317  0  0  0.175559  0  3.954542  0  0  0.188031  0  3.963385  0  0.977982  0  0.15859  0.167791  0  3.946016  0
C  C46  1  0.14079881  0.34885016  0.61216753  1  0  0.234434  0  3.664168  0  0  0.180029  0  3.955274  0  0  0.192964  0  3.96451  0  0.978175  0  0.158441  0.172271  0  3.946759  0
C  C47  1  0.23971202  0.53064588  0.88884232  1  0  0.230393  0  3.663227  0  0  0.175554  0  3.954602  0  0  0.188266  0  3.963733  0  0.977934  0  0.158658  0.167785  0  3.94608  0
C  C48  1  0.62919027  0.60622484  0.28568341  1  0  0.189664  0  3.609938  0  0  0.107419  0  3.880082  0  0  0.12271  0  3.891322  0  0.998813  0  0.17234  0.097687  0  3.872193  0
C  C49  1  0.82333263  0.34343629  0.20974624  1  0  0.193469  0  3.601431  0  0  0.110656  0  3.870916  0  0  0.137309  0  3.886071  0  0.994489  0  0.172644  0.100818  0  3.863074  0
C  C50  1  0.37082183  0.39377651  0.71431494  1  0  0.189779  0  3.610063  0  0  0.107578  0  3.880292  0  0  0.131053  0  3.896994  0  0.998952  0  0.172327  0.097833  0  3.872415  0
C  C51  1  0.17666610  0.65655021  0.79025697  1  0  0.193482  0  3.601199  0  0  0.110743  0  3.87066  0  0  0.135798  0  3.886788  0  0.994604  0  0.172701  0.100913  0  3.862814  0
C  C52  1  0.57361644  0.93702011  0.06576900  1  0  -0.032392  0  3.698431  0  0  -0.024015  0  3.944733  0  0  -0.025989  0  3.961529  0  -9.9e-05  0  -0.004922  -0.022973  0  3.933713  0
C  C53  1  0.36905135  0.50564955  0.43283373  1  0  -0.031481  0  3.697798  0  0  -0.021739  0  3.941907  0  0  -0.023629  0  3.958577  0  -0.073058  0  -0.003427  -0.020688  0  3.930881  0
C  C54  1  0.42636702  0.06298742  0.93422880  1  0  -0.032222  0  3.698386  0  0  -0.02392  0  3.944685  0  0  -0.025904  0  3.961544  0  -0.001197  0  -0.004838  -0.022899  0  3.93371  0
C  C55  1  0.63095961  0.49435179  0.56716567  1  0  -0.031494  0  3.697853  0  0  -0.02165  0  3.94181  0  0  -0.023487  0  3.958325  0  -0.072916  0  -0.003359  -0.020598  0  3.930786  0
C  C56  1  0.39255553  0.87715832  0.03646137  1  0  -0.071098  0  3.737891  0  0  -0.060284  0  3.982492  0  0  -0.065215  0  4.001982  0  -0.013551  0  -0.013969  -0.057154  0  3.969609  0
C  C57  1  0.33627668  0.35763827  0.46198941  1  0  -0.069186  0  3.747903  0  0  -0.058845  0  3.992082  0  0  -0.063839  0  4.01149  0  -0.013355  0  -0.014109  -0.055688  0  3.979185  0
C  C58  1  0.60743013  0.12283808  0.96353463  1  0  -0.071234  0  3.73794  0  0  -0.060343  0  3.982524  0  0  -0.065292  0  4.002046  0  -0.013897  0  -0.014026  -0.057216  0  3.96965  0
C  C59  1  0.66373152  0.64236431  0.53801204  1  0  -0.069295  0  3.748062  0  0  -0.058937  0  3.992244  0  0  -0.063927  0  4.011629  0  -0.013203  0  -0.014218  -0.055778  0  3.979339  0
C  C60  1  0.67767861  0.05733978  0.02835679  1  0  -0.089412  0  3.705303  0  0  -0.126908  0  3.960222  0  0  -0.126886  0  3.978173  0  -0.015218  0  -0.083709  -0.126781  0  3.948229  0
C  C61  1  0.53157275  0.64589193  0.47200549  1  0  -0.087182  0  3.705484  0  0  -0.124595  0  3.959536  0  0  -0.12465  0  3.977644  0  0.040577  0  -0.083825  -0.124417  0  3.94735  0
C  C62  1  0.32230912  0.94266281  0.97164214  1  0  -0.089565  0  3.70516  0  0  -0.126979  0  3.960054  0  0  -0.126968  0  3.978009  0  -0.015661  0  -0.0838  -0.12685  0  3.94806  0
C  C63  1  0.46844177  0.35411190  0.52799392  1  0  -0.087217  0  3.7055  0  0  -0.124646  0  3.959534  0  0  -0.124652  0  3.97752  0  0.040331  0  -0.083908  -0.124472  0  3.947354  0
C  C64  1  0.67068495  0.89003558  0.13973337  1  0  0.673426  0  3.907462  0  0  0.618045  0  4.214321  0  0  0.653177  0  4.203682  0  1.586348  0  0.207996  0.59404  0  4.221038  0
C  C65  1  0.24805698  0.52820425  0.35803257  1  0  0.673253  0  3.906477  0  0  0.617736  0  4.213118  0  0  0.652852  0  4.202419  0  1.594072  0  0.208609  0.593709  0  4.219893  0
C  C66  1  0.32930391  0.10996700  0.86025841  1  0  0.673555  0  3.907447  0  0  0.618207  0  4.214237  0  0  0.65334  0  4.203621  0  1.586977  0  0.208118  0.594205  0  4.22095  0
C  C67  1  0.75195071  0.47179957  0.64197250  1  0  0.673098  0  3.906708  0  0  0.617543  0  4.213377  0  0  0.652674  0  4.202696  0  1.593741  0  0.208539  0.593517  0  4.220148  0
C  C68  1  0.27402496  0.74470712  0.07224310  1  0  0.646748  0  3.898934  0  0  0.59476  0  4.193853  0  0  0.629076  0  4.186897  0  1.545983  0  0.205718  0.571524  0  4.197826  0
C  C69  1  0.16367003  0.20494165  0.42509562  1  0  0.640259  0  3.904967  0  0  0.588309  0  4.199389  0  0  0.622389  0  4.192779  0  1.54589  0  0.20232  0.565247  0  4.203109  0
C  C70  1  0.72596774  0.25530289  0.92776045  1  0  0.646806  0  3.899105  0  0  0.59476  0  4.194081  0  0  0.629074  0  4.187137  0  1.546378  0  0.205782  0.571526  0  4.19805  0
C  C71  1  0.83634143  0.79505846  0.57490504  1  0  0.640513  0  3.90493  0  0  0.588421  0  4.199512  0  0  0.622501  0  4.192904  0  1.545914  0  0.202382  0.565359  0  4.203225  0
N  N72  1  0.60780369  0.46428298  0.31018281  1  0  0.037323  0  3.582864  0  0  0.157225  0  3.771928  0  0  0.146035  0  3.797031  0  -0.819151  0  -0.133863  0.16398  0  3.755705  0
N  N73  1  0.65331373  0.29758970  0.18634585  1  0  0.032573  0  3.582696  0  0  0.154583  0  3.769738  0  0  0.109687  0  3.8383  0  -0.839722  0  -0.135006  0.162202  0  3.751742  0
N  N74  1  0.39220728  0.53571836  0.68981659  1  0  0.037398  0  3.582964  0  0  0.157047  0  3.772266  0  0  0.117943  0  3.838102  0  -0.81914  0  -0.133911  0.163859  0  3.755936  0
N  N75  1  0.34668259  0.70239433  0.81365631  1  0  0.032818  0  3.582021  0  0  0.154894  0  3.768958  0  0  0.11281  0  3.836579  0  -0.839757  0  -0.134906  0.162511  0  3.75097  0
N  N76  1  0.75362637  0.48983838  0.37467982  1  0  -0.265666  0  2.812457  0  0  -0.269965  0  3.078639  0  0  -0.277918  0  3.09176  0  -0.661609  0  -0.22072  -0.264508  0  3.069777  0
N  N77  1  0.61056708  0.37755716  0.12414010  1  0  -0.268406  0  2.817291  0  0  -0.27197  0  3.083503  0  0  -0.269504  0  3.103436  0  -0.669689  0  -0.22091  -0.266406  0  3.074391  0
N  N78  1  0.24638196  0.51016668  0.62532294  1  0  -0.265819  0  2.812595  0  0  -0.270068  0  3.078861  0  0  -0.269987  0  3.098999  0  -0.661699  0  -0.220775  -0.264623  0  3.070002  0
N  N79  1  0.38942859  0.62242564  0.87586132  1  0  -0.268477  0  2.817001  0  0  -0.272075  0  3.083227  0  0  -0.270928  0  3.10353  0  -0.669789  0  -0.220973  -0.266515  0  3.074123  0
N  N80  1  0.78733898  0.72797446  0.33458758  1  0  -0.417268  0  3.245885  0  0  -0.337621  0  3.550261  0  0  -0.361588  0  3.561826  0  -1.231977  0  -0.347556  -0.321467  0  3.542038  0
N  N81  1  0.89479338  0.45149477  0.16233950  1  0  -0.419362  0  3.242274  0  0  -0.339881  0  3.548057  0  0  -0.36365  0  3.55544  0  -1.21944  0  -0.34728  -0.323608  0  3.539824  0
N  N82  1  0.21267276  0.27203060  0.66540960  1  0  -0.41736  0  3.245806  0  0  -0.337687  0  3.550152  0  0  -0.360737  0  3.558285  0  -1.231872  0  -0.347564  -0.321537  0  3.541943  0
N  N83  1  0.10520372  0.54849297  0.83766472  1  0  -0.419499  0  3.242225  0  0  -0.340016  0  3.548  0  0  -0.363503  0  3.55583  0  -1.219516  0  -0.34733  -0.323744  0  3.53977  0
O  O84  1  0.68856924  0.95582951  0.21577264  1  0  -0.676771  0  2.045736  0  0  -0.610725  0  2.322112  0  0  -0.640658  0  2.308647  0  -1.180388  0  -0.337328  -0.589713  0  2.330731  0
O  O85  1  0.23997110  0.47127760  0.28231851  1  0  -0.679226  0  2.043988  0  0  -0.614053  0  2.322315  0  0  -0.643917  0  2.308681  0  -1.173669  0  -0.33712  -0.593022  0  2.331077  0
O  O86  1  0.31141962  0.04415329  0.78422285  1  0  -0.676835  0  2.04586  0  0  -0.610782  0  2.322232  0  0  -0.640671  0  2.308756  0  -1.180249  0  -0.337357  -0.589765  0  2.330841  0
O  O87  1  0.76002913  0.52872499  0.71768539  1  0  -0.679239  0  2.044125  0  0  -0.614049  0  2.322434  0  0  -0.643846  0  2.308627  0  -1.17349  0  -0.33713  -0.59302  0  2.331196  0
O  O88  1  0.74258889  0.80999515  0.12373515  1  0  -0.620482  0  1.923983  0  0  -0.57502  0  2.136482  0  0  -0.598054  0  2.125362  0  -1.174276  0  -0.322217  -0.558742  0  2.143649  0
O  O89  1  0.18328441  0.61547431  0.37375994  1  0  -0.621224  0  1.927534  0  0  -0.575574  0  2.140692  0  0  -0.598724  0  2.129707  0  -1.166314  0  -0.321977  -0.559218  0  2.147802  0
O  O90  1  0.25741092  0.19001980  0.87625743  1  0  -0.620607  0  1.923881  0  0  -0.575154  0  2.136392  0  0  -0.598173  0  2.125286  0  -1.174166  0  -0.32229  -0.558874  0  2.143554  0
O  O91  1  0.81672378  0.38452827  0.62624761  1  0  -0.621168  0  1.927674  0  0  -0.575518  0  2.140848  0  0  -0.598654  0  2.129841  0  -1.166201  0  -0.321963  -0.559161  0  2.147956  0
O  O92  1  0.34102745  0.67568986  0.12503497  1  0  -0.64301  0  2.048756  0  0  -0.572431  0  2.305067  0  0  -0.602048  0  2.293069  0  -1.161459  0  -0.319869  -0.55173  0  2.31252  0
O  O93  1  0.03994407  0.21467350  0.36950183  1  0  -0.640158  0  2.032802  0  0  -0.571193  0  2.283782  0  0  -0.600159  0  2.272314  0  -1.167767  0  -0.319929  -0.550949  0  2.290892  0
O  O94  1  0.65896567  0.32430778  0.87495976  1  0  -0.643067  0  2.048893  0  0  -0.572466  0  2.305222  0  0  -0.602088  0  2.293247  0  -1.161649  0  -0.319937  -0.551768  0  2.312676  0
O  O95  1  0.96006916  0.78532784  0.63049791  1  0  -0.640183  0  2.032916  0  0  -0.571146  0  2.283912  0  0  -0.600098  0  2.272428  0  -1.16794  0  -0.319817  -0.550921  0  2.291062  0
O  O96  1  0.11399066  0.70379572  0.05208785  1  0  -0.633226  0  1.978523  0  0  -0.574969  0  2.205196  0  0  -0.600054  0  2.193501  0  -1.176743  0  -0.313395  -0.557534  0  2.212769  0
O  O97  1  0.14030781  0.06831965  0.44669240  1  0  -0.637144  0  1.984896  0  0  -0.575965  0  2.213451  0  0  -0.60185  0  2.202312  0  -1.182542  0  -0.312539  -0.557922  0  2.220543  0
O  O98  1  0.88599997  0.29620810  0.94790972  1  0  -0.633252  0  1.978645  0  0  -0.574948  0  2.20536  0  0  -0.600028  0  2.193666  0  -1.177048  0  -0.313366  -0.55751  0  2.212929  0
O  O99  1  0.85969761  0.93168417  0.55331293  1  0  -0.637272  0  1.984674  0  0  -0.576041  0  2.213331  0  0  -0.601929  0  2.202192  0  -1.182376  0  -0.312661  -0.557988  0  2.220408  0
O  O100  1  0.72640343  0.00361543  0.40685984  1  0  -0.820791  0  1.838271  0  0  -0.769645  0  2.028897  0  0  -0.788885  0  1.997851  0  -1.222764  0  -0.572174  -0.756105  0  2.050571  0
O  O101  1  0.11241971  0.32470853  0.09419893  1  0  -0.819456  0  1.837737  0  0  -0.767567  0  2.030414  0  0  -0.787156  0  1.999535  0  -1.237015  0  -0.572765  -0.753759  0  2.051953  0
O  O102  1  0.27360334  0.99638221  0.59314125  1  0  -0.820756  0  1.838312  0  0  -0.769603  0  2.028989  0  0  -0.788834  0  1.997953  0  -1.222687  0  -0.572212  -0.75606  0  2.050658  0
O  O103  1  0.88757434  0.67529529  0.90579978  1  0  -0.819378  0  1.837971  0  0  -0.767498  0  2.030667  0  0  -0.787076  0  1.999776  0  -1.237039  0  -0.572763  -0.753683  0  2.052189  0
O  O104  1  0.04620410  0.99755725  0.24651789  1  0  -0.79827  0  1.856227  0  0  -0.743165  0  2.032966  0  0  -0.76371  0  2.006063  0  -1.215367  0  -0.571706  -0.728655  0  2.051539  0
O  O105  1  0.25897510  0.79657736  0.25698168  1  0  -0.800351  0  1.854993  0  0  -0.744113  0  2.034587  0  0  -0.764818  0  2.007202  0  -1.223956  0  -0.571166  -0.729494  0  2.053524  0
O  O106  1  0.95379208  0.00244410  0.75347680  1  0  -0.798361  0  1.856149  0  0  -0.743236  0  2.032919  0  0  -0.763768  0  2.006038  0  -1.215446  0  -0.571767  -0.728726  0  2.051493  0
O  O107  1  0.74100914  0.20341409  0.74301701  1  0  -0.800333  0  1.854977  0  0  -0.744104  0  2.034553  0  0  -0.7648  0  2.007159  0  -1.223762  0  -0.571147  -0.729485  0  2.053489  0
