# generated using pymatgen
data_PrP2H12C6NO11
_symmetry_space_group_name_H-M   'P 1'
_cell_length_a   9.09008960
_cell_length_b   11.05409922
_cell_length_c   15.18900000
_cell_angle_alpha   93.10779889
_cell_angle_beta   90.00000000
_cell_angle_gamma   90.00000000
_symmetry_Int_Tables_number   1
_chemical_formula_structural   PrP2H12C6NO11
_chemical_formula_sum   'Pr4 P8 H48 C24 N4 O44'
_cell_volume   1523.98789656
_cell_formula_units_Z   4
loop_
 _symmetry_equiv_pos_site_id
 _symmetry_equiv_pos_as_xyz
  1  'x, y, z'
loop_
 _atom_site_type_symbol
 _atom_site_label
 _atom_site_symmetry_multiplicity
 _atom_site_fract_x
 _atom_site_fract_y
 _atom_site_fract_z
 _atom_site_occupancy
 _atom_site_hle17_bader_spin_density
 _atom_site_hle17_ddec_charge
 _atom_site_hle17_ddec_spin_density
 _atom_site_hle17_ddec_sum_bond_order
 _atom_site_hle17_magmom
 _atom_site_hse06_10hf_bader_spin_density
 _atom_site_hse06_10hf_ddec_charge
 _atom_site_hse06_10hf_ddec_spin_density
 _atom_site_hse06_10hf_ddec_sum_bond_order
 _atom_site_hse06_10hf_magmom
 _atom_site_hse06_bader_spin_density
 _atom_site_hse06_ddec_charge
 _atom_site_hse06_ddec_spin_density
 _atom_site_hse06_ddec_sum_bond_order
 _atom_site_hse06_magmom
 _atom_site_pbe_bader_charge
 _atom_site_pbe_bader_spin_density
 _atom_site_pbe_cm5_charge
 _atom_site_pbe_ddec_charge
 _atom_site_pbe_ddec_spin_density
 _atom_site_pbe_ddec_sum_bond_order
 _atom_site_pbe_magmom
Pr  Pr0  1  0.25013285  0.40708229  0.61352968  1  0  2.360155  0  1.621123  0  0  2.252862  0  1.992143  0  0  2.285367  0  1.952513  0  2.294268  0  1.50986  2.18239  0  2.107261  0
Pr  Pr1  1  0.75013342  0.59291028  0.88646574  1  0  2.360143  0  1.621078  0  0  2.252834  0  1.992097  0  0  2.285349  0  1.952463  0  2.29402  0  1.509837  2.182212  0  2.107467  0
Pr  Pr2  1  0.74986280  0.59291481  0.38646658  1  0  2.360156  0  1.62105  0  0  2.252863  0  1.992062  0  0  2.285374  0  1.952429  0  2.294141  0  1.509855  2.182284  0  2.107361  0
Pr  Pr3  1  0.24986552  0.40708592  0.11353180  1  0  2.360133  0  1.621123  0  0  2.252832  0  1.99215  0  0  2.28534  0  1.952518  0  2.294178  0  1.509838  2.182266  0  2.107431  0
P  P4  1  0.15441322  0.64135635  0.45135109  1  0  1.501258  0  4.755881  0  0  1.34981  0  5.262864  0  0  1.400395  0  5.222148  0  3.393541  0  0.398949  1.314229  0  5.28672  0
P  P5  1  0.65441489  0.35864348  0.04864989  1  0  1.501258  0  4.756051  0  0  1.34979  0  5.263013  0  0  1.40037  0  5.222304  0  3.393653  0  0.398939  1.314215  0  5.286853  0
P  P6  1  0.84558352  0.35864619  0.54864868  1  0  1.501119  0  4.756028  0  0  1.349636  0  5.263086  0  0  1.40022  0  5.222373  0  3.393702  0  0.398902  1.314059  0  5.286935  0
P  P7  1  0.34558735  0.64135544  0.95135237  1  0  1.501227  0  4.756043  0  0  1.349782  0  5.26303  0  0  1.400365  0  5.222317  0  3.393692  0  0.398944  1.314199  0  5.286887  0
P  P8  1  0.19680114  0.05951073  0.60200306  1  0  1.504894  0  4.811737  0  0  1.352692  0  5.333077  0  0  1.403056  0  5.291034  0  3.385257  0  0.377378  1.317464  0  5.360014  0
P  P9  1  0.69680721  0.94048638  0.89799452  1  0  1.505148  0  4.811457  0  0  1.352969  0  5.332777  0  0  1.403331  0  5.290733  0  3.385364  0  0.377532  1.317736  0  5.359712  0
P  P10  1  0.80319780  0.94048819  0.39799657  1  0  1.504979  0  4.811605  0  0  1.352786  0  5.332931  0  0  1.403151  0  5.290884  0  3.385438  0  0.37744  1.317556  0  5.359865  0
P  P11  1  0.30319393  0.05951163  0.10200639  1  0  1.504954  0  4.811676  0  0  1.35278  0  5.333006  0  0  1.403144  0  5.290957  0  3.384903  0  0.377392  1.317552  0  5.359937  0
H  H12  1  0.35678746  0.04606698  0.70639724  1  0  0.4349  0  0.789536  0  0  0.422058  0  0.835518  0  0  0.43058  0  0.826223  0  0.612595  0  0.353985  0.416523  0  0.841509  0
H  H13  1  0.85679243  0.95393285  0.79360242  1  0  0.434898  0  0.789492  0  0  0.422053  0  0.835478  0  0  0.430578  0  0.826179  0  0.612673  0  0.353975  0.416518  0  0.841468  0
H  H14  1  0.64321148  0.95393285  0.29360242  1  0  0.434915  0  0.789481  0  0  0.422076  0  0.835458  0  0  0.430599  0  0.826162  0  0.612578  0  0.353991  0.416541  0  0.84145  0
H  H15  1  0.14320871  0.04606426  0.20639713  1  0  0.434897  0  0.789544  0  0  0.422052  0  0.835529  0  0  0.430576  0  0.82623  0  0.612677  0  0.353982  0.416518  0  0.841518  0
H  H16  1  0.47659596  0.36968186  0.44758236  1  0  0.444955  0  0.843687  0  0  0.418978  0  0.897905  0  0  0.430054  0  0.881555  0  0.63959  0  0.305736  0.410794  0  0.909922  0
H  H17  1  0.97659103  0.63031977  0.05241869  1  0  0.444877  0  0.843793  0  0  0.418889  0  0.89803  0  0  0.429967  0  0.881676  0  0.639571  0  0.305672  0.410703  0  0.910049  0
H  H18  1  0.52340408  0.63031524  0.55241719  1  0  0.444879  0  0.843773  0  0  0.41885  0  0.898072  0  0  0.429927  0  0.881721  0  0.639597  0  0.305679  0.410665  0  0.910089  0
H  H19  1  0.02341011  0.36968549  0.94758053  1  0  0.444866  0  0.843798  0  0  0.418877  0  0.898038  0  0  0.429954  0  0.881686  0  0.639554  0  0.305673  0.410692  0  0.910056  0
H  H20  1  0.55678989  0.39643528  0.53471471  1  0  0.420316  0  0.870455  0  0  0.390779  0  0.945219  0  0  0.400128  0  0.931418  0  0.647602  0  0.309779  0.384475  0  0.954219  0
H  H21  1  0.05678602  0.60356545  0.96528565  1  0  0.420338  0  0.870459  0  0  0.390814  0  0.94517  0  0  0.40016  0  0.931373  0  0.647597  0  0.309804  0.384509  0  0.954169  0
H  H22  1  0.44320575  0.60356363  0.46528690  1  0  0.420401  0  0.87031  0  0  0.390882  0  0.945061  0  0  0.40023  0  0.931261  0  0.647786  0  0.309862  0.38458  0  0.954056  0
H  H23  1  0.94321072  0.39643528  0.03471207  1  0  0.420304  0  0.870515  0  0  0.390768  0  0.945244  0  0  0.400115  0  0.931444  0  0.647624  0  0.309781  0.384463  0  0.954244  0
H  H24  1  0.09929055  0.91547696  0.43592605  1  0  0.294567  0  0.906078  0  0  0.275614  0  0.967375  0  0  0.283705  0  0.962505  0  0.547325  0  0.310799  0.270126  0  0.970566  0
H  H25  1  0.59929112  0.08452286  0.06407361  1  0  0.29452  0  0.906053  0  0  0.275572  0  0.967351  0  0  0.283663  0  0.962484  0  0.547137  0  0.310789  0.270089  0  0.970541  0
H  H26  1  0.90070839  0.08452649  0.56407244  1  0  0.294499  0  0.906085  0  0  0.275553  0  0.967376  0  0  0.283643  0  0.96251  0  0.547219  0  0.310767  0.27007  0  0.970566  0
H  H27  1  0.40071002  0.91547605  0.93592667  1  0  0.294522  0  0.906074  0  0  0.275586  0  0.967336  0  0  0.283677  0  0.962469  0  0.54713  0  0.310776  0.270099  0  0.970526  0
H  H28  1  0.13659491  0.80261885  0.56516001  1  0  0.159352  0  0.910693  0  0  0.171986  0  0.961945  0  0  0.175562  0  0.959587  0  0.146766  0  0.134801  0.169226  0  0.964128  0
H  H29  1  0.63660099  0.19738097  0.93483899  1  0  0.159344  0  0.910648  0  0  0.171958  0  0.96191  0  0  0.17553  0  0.959557  0  0.146704  0  0.134783  0.169195  0  0.964099  0
H  H30  1  0.86339633  0.19738641  0.43483855  1  0  0.159328  0  0.910676  0  0  0.171965  0  0.961931  0  0  0.175539  0  0.959577  0  0.146741  0  0.134782  0.169204  0  0.96412  0
H  H31  1  0.36340126  0.80261885  0.06516133  1  0  0.159327  0  0.910678  0  0  0.171958  0  0.961949  0  0  0.175532  0  0.959594  0  0.14667  0  0.134777  0.169197  0  0.964136  0
H  H32  1  0.32422013  0.77335951  0.53413592  1  0  0.143879  0  0.934895  0  0  0.155834  0  0.991194  0  0  0.158888  0  0.989546  0  0.137818  0  0.126341  0.153136  0  0.993248  0
H  H33  1  0.82422730  0.22664032  0.96586572  1  0  0.143832  0  0.934936  0  0  0.155813  0  0.991184  0  0  0.158863  0  0.989535  0  0.137738  0  0.126346  0.153119  0  0.99324  0
H  H34  1  0.67577002  0.22664213  0.46586447  1  0  0.143808  0  0.934842  0  0  0.155816  0  0.991093  0  0  0.158863  0  0.989447  0  0.1377  0  0.126333  0.153124  0  0.993148  0
H  H35  1  0.17577605  0.77335951  0.03413526  1  0  0.143858  0  0.934915  0  0  0.15583  0  0.991204  0  0  0.158882  0  0.989554  0  0.137756  0  0.126346  0.153136  0  0.993261  0
H  H36  1  0.26819758  0.07397461  0.45221098  1  0  0.148463  0  0.896716  0  0  0.165943  0  0.941743  0  0  0.168586  0  0.940626  0  0.089488  0  0.139218  0.163712  0  0.943315  0
H  H37  1  0.76819595  0.92602522  0.04778868  1  0  0.148477  0  0.896711  0  0  0.165949  0  0.941752  0  0  0.168588  0  0.940643  0  0.089462  0  0.139219  0.163718  0  0.943325  0
H  H38  1  0.73180577  0.92602703  0.54778941  1  0  0.148473  0  0.896762  0  0  0.165954  0  0.941782  0  0  0.168595  0  0.940666  0  0.089495  0  0.139218  0.163723  0  0.943355  0
H  H39  1  0.23180520  0.07397461  0.95221164  1  0  0.148477  0  0.89672  0  0  0.165951  0  0.941765  0  0  0.168589  0  0.940653  0  0.089477  0  0.139205  0.16372  0  0.943337  0
H  H40  1  0.39486739  0.98111298  0.50769939  1  0  0.115009  0  0.953888  0  0  0.129514  0  1.013314  0  0  0.13147  0  1.012698  0  0.070892  0  0.117893  0.128774  0  1.012536  0
H  H41  1  0.89486907  0.01888322  0.99230342  1  0  0.114997  0  0.953929  0  0  0.129501  0  1.013354  0  0  0.131475  0  1.012718  0  0.070577  0  0.117887  0.128762  0  1.012576  0
H  H42  1  0.60513265  0.01888594  0.49230155  1  0  0.115037  0  0.953891  0  0  0.129521  0  1.013336  0  0  0.131477  0  1.012721  0  0.070712  0  0.117894  0.128781  0  1.012559  0
H  H43  1  0.10513208  0.98111388  0.00769746  1  0  0.115022  0  0.953882  0  0  0.129517  0  1.01333  0  0  0.131473  0  1.012716  0  0.070882  0  0.117888  0.128778  0  1.012552  0
H  H44  1  0.28546583  0.94623841  0.32948686  1  0  0.100848  0  0.923553  0  0  0.115616  0  0.982689  0  0  0.117298  0  0.981375  0  0.074295  0  0.120724  0.114331  0  0.983632  0
H  H45  1  0.78546310  0.05376051  0.17051408  1  0  0.100887  0  0.923509  0  0  0.115646  0  0.982651  0  0  0.117325  0  0.98134  0  0.074489  0  0.120735  0.11436  0  0.983594  0
H  H46  1  0.71453861  0.05376232  0.67051284  1  0  0.100934  0  0.923508  0  0  0.115679  0  0.982646  0  0  0.11736  0  0.981334  0  0.074541  0  0.120761  0.114394  0  0.983587  0
H  H47  1  0.21453914  0.94623841  0.82948686  1  0  0.100931  0  0.923524  0  0  0.115679  0  0.982654  0  0  0.117358  0  0.981344  0  0.074498  0  0.120773  0.114393  0  0.983596  0
H  H48  1  0.40134478  0.83759036  0.37991071  1  0  0.101335  0  0.908178  0  0  0.116264  0  0.969333  0  0  0.117653  0  0.968903  0  0.088532  0  0.123163  0.115343  0  0.969105  0
H  H49  1  0.90134755  0.16240493  0.12009141  1  0  0.101328  0  0.908144  0  0  0.116238  0  0.969326  0  0  0.117625  0  0.9689  0  0.087876  0  0.123151  0.115318  0  0.969097  0
H  H50  1  0.59865526  0.16241037  0.62009229  1  0  0.101344  0  0.908222  0  0  0.116241  0  0.969393  0  0  0.117627  0  0.968968  0  0.088521  0  0.123159  0.11532  0  0.969166  0
H  H51  1  0.09865579  0.83759308  0.87990950  1  0  0.101367  0  0.908185  0  0  0.116271  0  0.969351  0  0  0.117657  0  0.968924  0  0.087873  0  0.123182  0.11535  0  0.969122  0
H  H52  1  0.09397817  0.78225255  0.30118178  1  0  0.080738  0  0.925597  0  0  0.089069  0  0.993755  0  0  0.09071  0  0.991897  0  0.111638  0  0.115346  0.087849  0  0.995018  0
H  H53  1  0.59397984  0.21774727  0.19881986  1  0  0.080751  0  0.925605  0  0  0.089047  0  0.993791  0  0  0.090688  0  0.991935  0  0.11166  0  0.115354  0.08783  0  0.995055  0
H  H54  1  0.90602407  0.21774818  0.69881858  1  0  0.080703  0  0.925551  0  0  0.089094  0  0.993656  0  0  0.090739  0  0.9918  0  0.111621  0  0.11535  0.087872  0  0.994919  0
H  H55  1  0.40602130  0.78224892  0.80118164  1  0  0.080731  0  0.925655  0  0  0.089043  0  0.993836  0  0  0.090685  0  0.991978  0  0.111628  0  0.11533  0.087825  0  0.995099  0
H  H56  1  0.26568385  0.74924519  0.24778517  1  0  0.105256  0  0.913272  0  0  0.11861  0  0.970354  0  0  0.119862  0  0.969589  0  0.14343  0  0.122612  0.1172  0  0.971676  0
H  H57  1  0.76568772  0.25075554  0.25221519  1  0  0.105254  0  0.913261  0  0  0.118598  0  0.970337  0  0  0.119858  0  0.969563  0  0.143397  0  0.122595  0.117189  0  0.971659  0
H  H58  1  0.73431729  0.25075554  0.75221519  1  0  0.105233  0  0.913283  0  0  0.118578  0  0.970397  0  0  0.119837  0  0.969624  0  0.143423  0  0.122607  0.117169  0  0.971719  0
H  H59  1  0.23431452  0.74924338  0.74778575  1  0  0.105277  0  0.913263  0  0  0.118624  0  0.970354  0  0  0.119882  0  0.969582  0  0.143435  0  0.122614  0.117217  0  0.971673  0
C  C60  1  0.21169428  0.78380539  0.50955169  1  0  -0.347851  0  3.480924  0  0  -0.384037  0  3.718706  0  0  -0.389384  0  3.723737  0  -0.349137  0  -0.065009  -0.380537  0  3.716783  0
C  C61  1  0.71169926  0.21619353  0.99044925  1  0  -0.347788  0  3.480854  0  0  -0.383925  0  3.718552  0  0  -0.389261  0  3.723576  0  -0.348949  0  -0.065012  -0.380436  0  3.716642  0
C  C62  1  0.78830026  0.21619625  0.49044804  1  0  -0.347715  0  3.480673  0  0  -0.383954  0  3.718481  0  0  -0.389291  0  3.723505  0  -0.349014  0  -0.064996  -0.380466  0  3.716569  0
C  C63  1  0.28830189  0.78380629  0.00955239  1  0  -0.347762  0  3.480811  0  0  -0.383984  0  3.718634  0  0  -0.389325  0  3.723663  0  -0.349007  0  -0.065021  -0.380494  0  3.716722  0
C  C64  1  0.27785425  0.00002446  0.49734246  1  0  -0.334538  0  3.537201  0  0  -0.380727  0  3.796937  0  0  -0.385066  0  3.802587  0  -0.238316  0  -0.064114  -0.377973  0  3.793391  0
C  C65  1  0.77785702  0.99997446  0.00265914  1  0  -0.334566  0  3.537177  0  0  -0.380797  0  3.796995  0  0  -0.385148  0  3.802641  0  -0.238133  0  -0.064138  -0.378038  0  3.793442  0
C  C66  1  0.72214580  0.99997627  0.50265790  1  0  -0.334606  0  3.537264  0  0  -0.380799  0  3.797022  0  0  -0.385134  0  3.802667  0  -0.238297  0  -0.064146  -0.378043  0  3.793474  0
C  C67  1  0.22214522  0.00002537  0.99734118  1  0  -0.334519  0  3.537119  0  0  -0.38076  0  3.796969  0  0  -0.385095  0  3.802616  0  -0.238265  0  -0.0641  -0.378004  0  3.793419  0
C  C68  1  0.28715339  0.86313249  0.36569958  1  0  -0.052241  0  3.541154  0  0  -0.118566  0  3.808678  0  0  -0.116236  0  3.818129  0  0.231213  0  -0.060532  -0.119769  0  3.80169  0
C  C69  1  0.78715286  0.13686733  0.13430008  1  0  -0.052254  0  3.541095  0  0  -0.118566  0  3.808631  0  0  -0.116235  0  3.818081  0  0.231469  0  -0.060524  -0.119774  0  3.801653  0
C  C70  1  0.71284666  0.13687005  0.63429887  1  0  -0.052387  0  3.54127  0  0  -0.118639  0  3.808757  0  0  -0.116306  0  3.818205  0  0.231014  0  -0.060555  -0.119846  0  3.801776  0
C  C71  1  0.21284719  0.86313249  0.86569893  1  0  -0.05237  0  3.541262  0  0  -0.118625  0  3.808725  0  0  -0.116294  0  3.818177  0  0.231637  0  -0.060591  -0.119826  0  3.801735  0
C  C72  1  0.21102102  0.76256211  0.31189148  1  0  0.096401  0  3.583894  0  0  0.037004  0  3.852051  0  0  0.04432  0  3.857058  0  0.3516  0  -0.055337  0.031924  0  3.849439  0
C  C73  1  0.71102489  0.23743591  0.18810877  1  0  0.096404  0  3.583806  0  0  0.037067  0  3.851915  0  0  0.044377  0  3.856921  0  0.351578  0  -0.055301  0.031985  0  3.849306  0
C  C74  1  0.78897902  0.23743862  0.68810954  1  0  0.096539  0  3.58369  0  0  0.037077  0  3.851853  0  0  0.044382  0  3.856864  0  0.351453  0  -0.055319  0.032002  0  3.849237  0
C  C75  1  0.28897845  0.76256211  0.81189214  1  0  0.096379  0  3.583964  0  0  0.036978  0  3.852108  0  0  0.044292  0  3.857109  0  0.351452  0  -0.05533  0.031896  0  3.849496  0
C  C76  1  0.53146451  0.55291062  0.71406522  1  0  0.568065  0  3.920003  0  0  0.519383  0  4.233641  0  0  0.549516  0  4.222941  0  1.586395  0  0.217018  0.499126  0  4.23534  0
C  C77  1  0.03148044  0.44708921  0.78594037  1  0  0.568432  0  3.919781  0  0  0.519645  0  4.233597  0  0  0.549777  0  4.222895  0  1.586766  0  0.217196  0.499388  0  4.235298  0
C  C78  1  0.46852893  0.44708015  0.28594002  1  0  0.568382  0  3.919784  0  0  0.519582  0  4.233575  0  0  0.549703  0  4.222892  0  1.586836  0  0.217175  0.499323  0  4.235274  0
C  C79  1  0.96852841  0.55292330  0.21406045  1  0  0.568406  0  3.919905  0  0  0.519675  0  4.233644  0  0  0.549782  0  4.222984  0  1.586726  0  0.217226  0.499417  0  4.235342  0
C  C80  1  0.52538866  0.42829840  0.75769880  1  0  0.564382  0  3.951329  0  0  0.518129  0  4.266234  0  0  0.548409  0  4.255252  0  1.609878  0  0.212213  0.497835  0  4.26795  0
C  C81  1  0.02539579  0.57168965  0.74229842  1  0  0.56417  0  3.95106  0  0  0.517945  0  4.265998  0  0  0.548224  0  4.25502  0  1.609472  0  0.212243  0.49765  0  4.267712  0
C  C82  1  0.47460588  0.57169056  0.24230307  1  0  0.564198  0  3.95114  0  0  0.518057  0  4.265942  0  0  0.548341  0  4.254962  0  1.609328  0  0.212218  0.497763  0  4.267653  0
C  C83  1  0.97460425  0.42831561  0.25769619  1  0  0.564508  0  3.951014  0  0  0.518246  0  4.265985  0  0  0.548534  0  4.255007  0  1.609391  0  0.212244  0.49795  0  4.267698  0
N  N84  1  0.21023555  0.89044852  0.45243079  1  0  -0.024976  0  3.389431  0  0  0.056472  0  3.6015  0  0  0.045069  0  3.622369  0  -1.023821  0  -0.336837  0.063666  0  3.587637  0
N  N85  1  0.71023942  0.10955040  0.04756883  1  0  -0.024925  0  3.389376  0  0  0.056519  0  3.6014  0  0  0.045117  0  3.622272  0  -1.023606  0  -0.336803  0.06371  0  3.587538  0
N  N86  1  0.78976339  0.10955493  0.54756835  1  0  -0.024876  0  3.389397  0  0  0.056578  0  3.6014  0  0  0.045176  0  3.622266  0  -1.023673  0  -0.336765  0.063768  0  3.587539  0
N  N87  1  0.28976282  0.89044852  0.95243211  1  0  -0.024956  0  3.38942  0  0  0.056507  0  3.601482  0  0  0.045104  0  3.622349  0  -1.02355  0  -0.336819  0.063701  0  3.587618  0
O  O88  1  0.23770173  0.53905465  0.49032608  1  0  -0.914169  0  1.978954  0  0  -0.845058  0  2.241603  0  0  -0.868565  0  2.219348  0  -1.465963  0  -0.436348  -0.821814  0  2.257757  0
O  O89  1  0.73770230  0.46094336  0.00967352  1  0  -0.914152  0  1.978973  0  0  -0.845025  0  2.241617  0  0  -0.868533  0  2.219364  0  -1.465992  0  -0.436333  -0.821756  0  2.257776  0
O  O90  1  0.76229502  0.46094699  0.50967432  1  0  -0.914141  0  1.978982  0  0  -0.845016  0  2.241626  0  0  -0.868522  0  2.219374  0  -1.466062  0  -0.436356  -0.821753  0  2.25778  0
O  O91  1  0.26229884  0.53905736  0.99032816  1  0  -0.914154  0  1.979053  0  0  -0.845052  0  2.241737  0  0  -0.868559  0  2.219483  0  -1.466004  0  -0.436324  -0.821791  0  2.257892  0
O  O92  1  0.22678874  0.64943039  0.35460072  1  0  -0.498244  0  2.205763  0  0  -0.415343  0  2.454384  0  0  -0.436981  0  2.448199  0  -1.285398  0  -0.204131  -0.400206  0  2.458757  0
O  O93  1  0.72679042  0.35057034  0.14539832  1  0  -0.498295  0  2.205783  0  0  -0.415404  0  2.454391  0  0  -0.437042  0  2.448207  0  -1.285241  0  -0.204168  -0.400266  0  2.458765  0
O  O94  1  0.77321240  0.35057215  0.64539971  1  0  -0.498273  0  2.20575  0  0  -0.415351  0  2.454377  0  0  -0.436996  0  2.448212  0  -1.285257  0  -0.204115  -0.400212  0  2.458739  0
O  O95  1  0.27321073  0.64942948  0.85460266  1  0  -0.498224  0  2.205693  0  0  -0.415317  0  2.454304  0  0  -0.436955  0  2.448118  0  -1.285216  0  -0.204123  -0.400185  0  2.458684  0
O  O96  1  0.98967671  0.64096497  0.44718330  1  0  -0.922088  0  1.981492  0  0  -0.860516  0  2.253196  0  0  -0.883741  0  2.231826  0  -1.461801  0  -0.44331  -0.836858  0  2.269617  0
O  O97  1  0.48968054  0.35903304  0.05281630  1  0  -0.92207  0  1.981577  0  0  -0.860496  0  2.253283  0  0  -0.883717  0  2.231916  0  -1.46194  0  -0.443297  -0.836836  0  2.269702  0
O  O98  1  0.01032113  0.35903304  0.55281366  1  0  -0.922057  0  1.981572  0  0  -0.860472  0  2.253258  0  0  -0.883695  0  2.231892  0  -1.461938  0  -0.443309  -0.836824  0  2.269656  0
O  O99  1  0.51032170  0.64096678  0.94718666  1  0  -0.922102  0  1.981612  0  0  -0.860519  0  2.2533  0  0  -0.88374  0  2.231931  0  -1.461979  0  -0.443321  -0.836843  0  2.269704  0
O  O100  1  0.03782691  0.02263758  0.60615555  1  0  -0.803407  0  1.879377  0  0  -0.737208  0  2.113357  0  0  -0.761593  0  2.095273  0  -1.456917  0  -0.369814  -0.720239  0  2.125331  0
O  O101  1  0.53783298  0.97735953  0.89384533  1  0  -0.803552  0  1.879172  0  0  -0.737347  0  2.113137  0  0  -0.761728  0  2.09505  0  -1.457034  0  -0.369906  -0.720373  0  2.125111  0
O  O102  1  0.96217203  0.97736315  0.39384415  1  0  -0.803487  0  1.87929  0  0  -0.737282  0  2.113269  0  0  -0.761667  0  2.095182  0  -1.457036  0  -0.369852  -0.72031  0  2.125244  0
O  O103  1  0.46216926  0.02264301  0.10615708  1  0  -0.803473  0  1.879304  0  0  -0.737269  0  2.113267  0  0  -0.761652  0  2.095181  0  -1.456672  0  -0.369869  -0.720298  0  2.125241  0
O  O104  1  0.24466425  0.18969922  0.60622528  1  0  -0.938676  0  2.008023  0  0  -0.875124  0  2.285337  0  0  -0.898104  0  2.261526  0  -1.473408  0  -0.458786  -0.852034  0  2.303264  0
O  O105  1  0.74467143  0.81029879  0.89377365  1  0  -0.938809  0  2.007981  0  0  -0.875245  0  2.285258  0  0  -0.898241  0  2.261484  0  -1.473321  0  -0.458864  -0.852143  0  2.303224  0
O  O106  1  0.75533359  0.81030151  0.39377639  1  0  -0.938695  0  2.007997  0  0  -0.875142  0  2.285298  0  0  -0.898128  0  2.261501  0  -1.473414  0  -0.458813  -0.852037  0  2.303236  0
O  O107  1  0.25532642  0.18970013  0.10622532  1  0  -0.938774  0  2.007964  0  0  -0.875214  0  2.285259  0  0  -0.898202  0  2.261464  0  -1.473218  0  -0.458791  -0.852121  0  2.30322  0
O  O108  1  0.28361547  0.99145920  0.67884828  1  0  -0.723318  0  1.940257  0  0  -0.663747  0  2.153328  0  0  -0.682573  0  2.131512  0  -1.352104  0  -0.38503  -0.650877  0  2.167443  0
O  O109  1  0.78361824  0.00853971  0.82115266  1  0  -0.723314  0  1.940335  0  0  -0.66374  0  2.153398  0  0  -0.682563  0  2.131578  0  -1.352227  0  -0.384983  -0.650869  0  2.167513  0
O  O110  1  0.71638568  0.00854062  0.32115072  1  0  -0.723337  0  1.940211  0  0  -0.663775  0  2.153285  0  0  -0.682599  0  2.131465  0  -1.352094  0  -0.385035  -0.650904  0  2.1674  0
O  O111  1  0.21638511  0.99145920  0.17884828  1  0  -0.72325  0  1.940458  0  0  -0.663673  0  2.153519  0  0  -0.682497  0  2.131699  0  -1.352235  0  -0.38496  -0.650801  0  2.167632  0
O  O112  1  0.45077553  0.56360655  0.64599688  1  0  -0.702586  0  2.061994  0  0  -0.64741  0  2.298274  0  0  -0.671012  0  2.287223  0  -1.206175  0  -0.367219  -0.625788  0  2.306856  0
O  O113  1  0.95080141  0.43639599  0.85400421  1  0  -0.702603  0  2.062148  0  0  -0.647407  0  2.298498  0  0  -0.671005  0  2.287446  0  -1.206037  0  -0.367141  -0.625767  0  2.30708  0
O  O114  1  0.54921461  0.43639056  0.35400399  1  0  -0.702559  0  2.061969  0  0  -0.647382  0  2.298328  0  0  -0.670977  0  2.287282  0  -1.206201  0  -0.367204  -0.625748  0  2.306909  0
O  O115  1  0.04921514  0.56361742  0.14599797  1  0  -0.702558  0  2.062059  0  0  -0.647378  0  2.298376  0  0  -0.670969  0  2.28734  0  -1.206231  0  -0.367186  -0.625745  0  2.306956  0
O  O116  1  0.61532067  0.63321526  0.74773012  1  0  -0.648151  0  2.012488  0  0  -0.610087  0  2.25144  0  0  -0.630038  0  2.239877  0  -1.179497  0  -0.367465  -0.591029  0  2.260744  0
O  O117  1  0.11535310  0.36678818  0.75227825  1  0  -0.648362  0  2.012185  0  0  -0.610266  0  2.251189  0  0  -0.630219  0  2.239625  0  -1.179741  0  -0.367645  -0.591229  0  2.260488  0
O  O118  1  0.38466177  0.36678365  0.25227214  1  0  -0.648332  0  2.012286  0  0  -0.610242  0  2.251293  0  0  -0.63019  0  2.239734  0  -1.179654  0  -0.367598  -0.591192  0  2.2606  0
O  O119  1  0.88466345  0.63322070  0.24772441  1  0  -0.648405  0  2.012299  0  0  -0.610332  0  2.25128  0  0  -0.630275  0  2.239729  0  -1.179745  0  -0.367613  -0.591281  0  2.260586  0
O  O120  1  0.43999016  0.34882996  0.72322220  1  0  -0.66458  0  1.99422  0  0  -0.625785  0  2.233909  0  0  -0.646254  0  2.222198  0  -1.184533  0  -0.378752  -0.605987  0  2.243108  0
O  O121  1  0.93998853  0.65116261  0.77677125  1  0  -0.66455  0  1.994008  0  0  -0.625745  0  2.233667  0  0  -0.646218  0  2.221967  0  -1.184215  0  -0.378771  -0.605925  0  2.242869  0
O  O122  1  0.56001098  0.65116352  0.27677853  1  0  -0.664576  0  1.994086  0  0  -0.625796  0  2.233705  0  0  -0.646273  0  2.222007  0  -1.184292  0  -0.378782  -0.605982  0  2.242907  0
O  O123  1  0.06000931  0.34884265  0.22322270  1  0  -0.664684  0  1.994134  0  0  -0.625873  0  2.233823  0  0  -0.64635  0  2.222127  0  -1.184141  0  -0.378793  -0.60606  0  2.243024  0
O  O124  1  0.60942744  0.41626796  0.82328773  1  0  -0.673122  0  2.018777  0  0  -0.633913  0  2.264163  0  0  -0.655751  0  2.253677  0  -1.194602  0  -0.377611  -0.613146  0  2.272537  0
O  O125  1  0.10943456  0.58372733  0.67670320  1  0  -0.673063  0  2.018543  0  0  -0.633855  0  2.263929  0  0  -0.655692  0  2.253444  0  -1.194702  0  -0.377677  -0.613108  0  2.272299  0
O  O126  1  0.39056491  0.58372823  0.17670982  1  0  -0.673099  0  2.018541  0  0  -0.633913  0  2.263886  0  0  -0.655749  0  2.2534  0  -1.19451  0  -0.377647  -0.613154  0  2.272257  0
O  O127  1  0.89056218  0.41627612  0.32328805  1  0  -0.673258  0  2.018472  0  0  -0.634034  0  2.263867  0  0  -0.65587  0  2.253378  0  -1.194529  0  -0.377675  -0.61327  0  2.27224  0
O  O128  1  0.47074783  0.35132139  0.51109719  1  0  -0.896809  0  1.811698  0  0  -0.859079  0  1.994158  0  0  -0.875313  0  1.962279  0  -1.290278  0  -0.625508  -0.841805  0  2.019558  0
O  O129  1  0.97074511  0.64867934  0.98890120  1  0  -0.89674  0  1.811768  0  0  -0.858996  0  1.994206  0  0  -0.875229  0  1.962329  0  -1.290233  0  -0.625468  -0.841699  0  2.019621  0
O  O130  1  0.52924891  0.64867662  0.48890241  1  0  -0.896809  0  1.811634  0  0  -0.859037  0  1.99417  0  0  -0.875271  0  1.962295  0  -1.290498  0  -0.625541  -0.841747  0  2.019574  0
O  O131  1  0.02925384  0.35132139  0.01109719  1  0  -0.896707  0  1.811824  0  0  -0.858964  0  1.994264  0  0  -0.875198  0  1.96239  0  -1.290299  0  -0.625458  -0.841675  0  2.019673  0
