# generated using pymatgen
data_CdH14C13(IN)2
_symmetry_space_group_name_H-M   'P 1'
_cell_length_a   4.99993539
_cell_length_b   11.71577114
_cell_length_c   13.45232518
_cell_angle_alpha   90.00037289
_cell_angle_beta   89.99964505
_cell_angle_gamma   90.62716944
_symmetry_Int_Tables_number   1
_chemical_formula_structural   CdH14C13(IN)2
_chemical_formula_sum   'Cd2 H28 C26 I4 N4'
_cell_volume   787.96442402
_cell_formula_units_Z   2
loop_
 _symmetry_equiv_pos_site_id
 _symmetry_equiv_pos_as_xyz
  1  'x, y, z'
loop_
 _atom_site_type_symbol
 _atom_site_label
 _atom_site_symmetry_multiplicity
 _atom_site_fract_x
 _atom_site_fract_y
 _atom_site_fract_z
 _atom_site_occupancy
 _atom_site_hle17_bader_spin_density
 _atom_site_hle17_ddec_charge
 _atom_site_hle17_ddec_spin_density
 _atom_site_hle17_ddec_sum_bond_order
 _atom_site_hle17_magmom
 _atom_site_hse06_10hf_bader_spin_density
 _atom_site_hse06_10hf_ddec_charge
 _atom_site_hse06_10hf_ddec_spin_density
 _atom_site_hse06_10hf_ddec_sum_bond_order
 _atom_site_hse06_10hf_magmom
 _atom_site_hse06_bader_spin_density
 _atom_site_hse06_ddec_charge
 _atom_site_hse06_ddec_spin_density
 _atom_site_hse06_ddec_sum_bond_order
 _atom_site_hse06_magmom
 _atom_site_pbe_bader_spin_density
 _atom_site_pbe_cm5_charge
 _atom_site_pbe_ddec_charge
 _atom_site_pbe_ddec_spin_density
 _atom_site_pbe_ddec_sum_bond_order
 _atom_site_pbe_magmom
Cd  Cd0  1  0.53190317  0.22222201  0.75000121  1  0  0.783932  0  2.016679  0  0  0.606649  0  2.482193  0  0  0.653399  0  2.447879  0  0  0.539455  0.57479  0  2.505062  0
Cd  Cd1  1  0.46808414  0.77777240  0.24999785  1  0  0.783927  0  2.016714  0  0  0.606653  0  2.482246  0  0  0.653407  0  2.447927  0  0  0.539446  0.574792  0  2.505118  0
H  H2  1  0.94992350  0.08238484  0.61938722  1  0  0.061729  0  0.991594  0  0  0.065129  0  1.06793  0  0  0.06797  0  1.065146  0  0  0.093301  0.062984  0  1.070065  0
H  H3  1  0.05009393  0.91760779  0.11938413  1  0  0.061457  0  0.991776  0  0  0.064966  0  1.06805  0  0  0.067806  0  1.065269  0  0  0.093203  0.06282  0  1.070186  0
H  H4  1  0.05008975  0.91760619  0.38061407  1  0  0.061462  0  0.991778  0  0  0.064966  0  1.068063  0  0  0.067804  0  1.065283  0  0  0.093187  0.062819  0  1.070201  0
H  H5  1  0.94991946  0.08239093  0.88061344  1  0  0.061544  0  0.991746  0  0  0.065011  0  1.068051  0  0  0.067851  0  1.065269  0  0  0.093232  0.062865  0  1.070185  0
H  H6  1  0.24911687  0.10746011  0.47216226  1  0  0.109932  0  0.944005  0  0  0.118779  0  1.006248  0  0  0.122229  0  1.005327  0  0  0.102454  0.116317  0  1.007067  0
H  H7  1  0.75088480  0.89253512  0.97216668  1  0  0.110002  0  0.943951  0  0  0.118847  0  1.006176  0  0  0.122297  0  1.005254  0  0  0.102475  0.116384  0  1.006996  0
H  H8  1  0.75087851  0.89253773  0.52783309  1  0  0.109896  0  0.943967  0  0  0.118767  0  1.006166  0  0  0.122219  0  1.005243  0  0  0.102453  0.116305  0  1.006985  0
H  H9  1  0.24912259  0.10746359  0.02783535  1  0  0.109963  0  0.943964  0  0  0.118826  0  1.006173  0  0  0.122277  0  1.005252  0  0  0.10245  0.116364  0  1.00699  0
H  H10  1  0.88587850  0.43572027  0.42479592  1  0  0.100724  0  0.984929  0  0  0.109278  0  1.051547  0  0  0.112586  0  1.050848  0  0  0.091446  0.106942  0  1.052164  0
H  H11  1  0.11412200  0.56427802  0.92477988  1  0  0.100723  0  0.98513  0  0  0.109304  0  1.051699  0  0  0.112614  0  1.050999  0  0  0.091455  0.106968  0  1.052315  0
H  H12  1  0.11412497  0.56428270  0.57521578  1  0  0.100727  0  0.985061  0  0  0.109271  0  1.051673  0  0  0.112579  0  1.050974  0  0  0.091457  0.106936  0  1.05229  0
H  H13  1  0.88587549  0.43572579  0.07521100  1  0  0.100767  0  0.985248  0  0  0.109327  0  1.051821  0  0  0.112638  0  1.051119  0  0  0.091468  0.106991  0  1.052437  0
H  H14  1  0.61093735  0.39981334  0.57731029  1  0  0.06391  0  0.968869  0  0  0.070705  0  1.039222  0  0  0.073462  0  1.036506  0  0  0.096967  0.068682  0  1.041206  0
H  H15  1  0.38906679  0.60017981  0.07729644  1  0  0.063979  0  0.968835  0  0  0.070719  0  1.039259  0  0  0.073478  0  1.036541  0  0  0.096956  0.068696  0  1.04124  0
H  H16  1  0.38906796  0.60018110  0.42269992  1  0  0.06397  0  0.968883  0  0  0.070716  0  1.039293  0  0  0.073474  0  1.036577  0  0  0.096982  0.068693  0  1.041275  0
H  H17  1  0.61092860  0.39981887  0.92269667  1  0  0.063955  0  0.968877  0  0  0.070684  0  1.039303  0  0  0.073441  0  1.036589  0  0  0.096962  0.068661  0  1.041282  0
H  H18  1  0.43834219  0.24043476  0.34653729  1  0  0.082828  0  0.945687  0  0  0.098892  0  1.00845  0  0  0.10017  0  1.008619  0  0  0.08487  0.097937  0  1.008417  0
H  H19  1  0.56165175  0.75957147  0.84653694  1  0  0.082967  0  0.94544  0  0  0.098964  0  1.008294  0  0  0.100237  0  1.008468  0  0  0.084945  0.098014  0  1.008257  0
H  H20  1  0.56164736  0.75957245  0.65346251  1  0  0.083024  0  0.945369  0  0  0.098975  0  1.008277  0  0  0.100247  0  1.008453  0  0  0.084953  0.098027  0  1.008234  0
H  H21  1  0.43834577  0.24043405  0.15346138  1  0  0.082854  0  0.945662  0  0  0.09891  0  1.008415  0  0  0.100187  0  1.008584  0  0  0.08488  0.097956  0  1.008382  0
H  H22  1  0.32871619  0.38414834  0.34224860  1  0  0.075693  0  0.946334  0  0  0.090706  0  1.01358  0  0  0.092112  0  1.012962  0  0  0.084923  0.089639  0  1.014138  0
H  H23  1  0.67126979  0.61585614  0.84224347  1  0  0.075633  0  0.94635  0  0  0.090676  0  1.013576  0  0  0.092063  0  1.012976  0  0  0.084864  0.089606  0  1.014135  0
H  H24  1  0.67127132  0.61585631  0.65775343  1  0  0.075636  0  0.946351  0  0  0.090682  0  1.013559  0  0  0.092075  0  1.012953  0  0  0.084862  0.089612  0  1.014118  0
H  H25  1  0.32872376  0.38415108  0.15775485  1  0  0.075709  0  0.946286  0  0  0.090719  0  1.01353  0  0  0.092124  0  1.012913  0  0  0.0849  0.089654  0  1.014087  0
H  H26  1  0.91489743  0.31926366  0.24999975  1  0  0.063322  0  0.945756  0  0  0.083576  0  1.006843  0  0  0.084182  0  1.007867  0  0  0.079908  0.08312  0  1.006145  0
H  H27  1  0.08509609  0.68074185  0.74999857  1  0  0.063364  0  0.945808  0  0  0.083587  0  1.006913  0  0  0.084193  0  1.007936  0  0  0.07992  0.083136  0  1.006206  0
H  H28  1  0.03716923  0.17776817  0.24999813  1  0  0.063359  0  0.970558  0  0  0.078196  0  1.040934  0  0  0.079486  0  1.04096  0  0  0.070365  0.077116  0  1.041214  0
H  H29  1  0.96282432  0.82223906  0.74999944  1  0  0.063401  0  0.970638  0  0  0.078229  0  1.040991  0  0  0.079516  0  1.041022  0  0  0.070412  0.077152  0  1.041272  0
C  C30  1  0.94256704  0.15965969  0.57421310  1  0  0.112364  0  3.758194  0  0  0.083464  0  4.005953  0  0  0.090797  0  4.025209  0  0  0.031291  0.078834  0  3.992776  0
C  C31  1  0.05743516  0.84033429  0.07420807  1  0  0.11261  0  3.758237  0  0  0.08362  0  4.006036  0  0  0.090953  0  4.025294  0  0  0.031355  0.078991  0  3.992856  0
C  C32  1  0.05743226  0.84033388  0.42578967  1  0  0.112567  0  3.758155  0  0  0.083579  0  4.005954  0  0  0.090912  0  4.025214  0  0  0.031382  0.078951  0  3.992772  0
C  C33  1  0.94256826  0.15966612  0.92578801  1  0  0.112512  0  3.758134  0  0  0.083575  0  4.005911  0  0  0.090909  0  4.02517  0  0  0.031339  0.078943  0  3.992726  0
C  C34  1  0.10820978  0.17416699  0.49195175  1  0  -0.165647  0  3.691606  0  0  -0.181954  0  3.93613  0  0  -0.190801  0  3.958124  0  0  -0.08645  -0.176312  0  3.921387  0
C  C35  1  0.89179553  0.82582668  0.99194952  1  0  -0.165954  0  3.69182  0  0  -0.182232  0  3.93638  0  0  -0.191077  0  3.95837  0  0  -0.086591  -0.176589  0  3.921636  0
C  C36  1  0.89179356  0.82582915  0.50805102  1  0  -0.165636  0  3.69155  0  0  -0.18193  0  3.93608  0  0  -0.190776  0  3.958071  0  0  -0.086454  -0.176286  0  3.921335  0
C  C37  1  0.10821588  0.17417289  0.00804879  1  0  -0.165864  0  3.691631  0  0  -0.182183  0  3.936208  0  0  -0.191033  0  3.958202  0  0  -0.086502  -0.176538  0  3.921457  0
C  C38  1  0.09370943  0.27466519  0.43582644  1  0  0.170836  0  3.697118  0  0  0.186775  0  3.932096  0  0  0.192818  0  3.953613  0  0  0.017503  0.182975  0  3.917315  0
C  C39  1  0.90628886  0.72533147  0.93582212  1  0  0.171014  0  3.697391  0  0  0.186954  0  3.932344  0  0  0.192999  0  3.953854  0  0  0.017615  0.183152  0  3.91756  0
C  C40  1  0.90628594  0.72533265  0.56417633  1  0  0.170841  0  3.697398  0  0  0.186807  0  3.932331  0  0  0.192852  0  3.953842  0  0  0.017513  0.183006  0  3.91755  0
C  C41  1  0.09371260  0.27467064  0.06417545  1  0  0.171072  0  3.697311  0  0  0.186996  0  3.932263  0  0  0.193041  0  3.953779  0  0  0.017534  0.183195  0  3.917477  0
C  C42  1  0.90823999  0.35643337  0.46637955  1  0  -0.171907  0  3.702197  0  0  -0.185785  0  3.94322  0  0  -0.194562  0  3.964512  0  0  -0.089077  -0.180148  0  3.928893  0
C  C43  1  0.09176186  0.64356694  0.96636700  1  0  -0.171948  0  3.702612  0  0  -0.185833  0  3.943591  0  0  -0.194611  0  3.964884  0  0  -0.089139  -0.180193  0  3.92926  0
C  C44  1  0.09175745  0.64356789  0.53362917  1  0  -0.171933  0  3.70266  0  0  -0.185803  0  3.943646  0  0  -0.19458  0  3.964938  0  0  -0.089126  -0.180164  0  3.929318  0
C  C45  1  0.90824167  0.35643944  0.03362686  1  0  -0.172001  0  3.702558  0  0  -0.18587  0  3.943511  0  0  -0.19465  0  3.964801  0  0  -0.08908  -0.180231  0  3.929178  0
C  C46  1  0.75303582  0.33684835  0.55016148  1  0  0.129044  0  3.74689  0  0  0.098427  0  3.99479  0  0  0.106295  0  4.013375  0  0  0.033445  0.093389  0  3.982129  0
C  C47  1  0.24697679  0.66314632  0.05014906  1  0  0.128824  0  3.74685  0  0  0.09828  0  3.994767  0  0  0.106146  0  4.013353  0  0  0.033358  0.09324  0  3.982102  0
C  C48  1  0.24697551  0.66314695  0.44984799  1  0  0.128837  0  3.747012  0  0  0.098299  0  3.994897  0  0  0.106167  0  4.013481  0  0  0.033345  0.093259  0  3.982234  0
C  C49  1  0.75302863  0.33685409  0.94984480  1  0  0.12882  0  3.746916  0  0  0.098292  0  3.994821  0  0  0.106158  0  4.013408  0  0  0.033328  0.093253  0  3.982148  0
C  C50  1  0.26011222  0.29448579  0.34460267  1  0  -0.166983  0  3.702061  0  0  -0.206904  0  3.945948  0  0  -0.209038  0  3.958188  0  0  -0.164471  -0.205257  0  3.937256  0
C  C51  1  0.73987570  0.70551786  0.84460011  1  0  -0.166998  0  3.701876  0  0  -0.206914  0  3.945837  0  0  -0.209033  0  3.958087  0  0  -0.164508  -0.205267  0  3.93715  0
C  C52  1  0.73987526  0.70551801  0.65539862  1  0  -0.167047  0  3.701826  0  0  -0.206941  0  3.945788  0  0  -0.209065  0  3.958035  0  0  -0.164505  -0.205289  0  3.937098  0
C  C53  1  0.26011782  0.29448766  0.15539820  1  0  -0.167129  0  3.702138  0  0  -0.207011  0  3.945971  0  0  -0.209144  0  3.958211  0  0  -0.164486  -0.205367  0  3.937283  0
C  C54  1  0.09892831  0.26825408  0.25000055  1  0  -0.087571  0  3.652036  0  0  -0.122397  0  3.900328  0  0  -0.124324  0  3.914652  0  0  -0.165496  -0.120826  0  3.890258  0
C  C55  1  0.90106516  0.73174887  0.74999925  1  0  -0.087841  0  3.652326  0  0  -0.122607  0  3.900601  0  0  -0.124529  0  3.914914  0  0  -0.165576  -0.121044  0  3.89054  0
I  I56  1  0.41405796  0.99237447  0.75000056  1  0  -0.480858  0  1.01974  0  0  -0.422503  0  1.336838  0  0  -0.44057  0  1.315031  0  0  -0.219744  -0.409677  0  1.352005  0
I  I57  1  0.58592736  0.00761994  0.24999999  1  0  -0.480847  0  1.019729  0  0  -0.422492  0  1.336846  0  0  -0.440562  0  1.315047  0  0  -0.219738  -0.40966  0  1.352014  0
I  I58  1  0.24259712  0.42160656  0.75000062  1  0  -0.469379  0  1.086149  0  0  -0.416801  0  1.420463  0  0  -0.434652  0  1.399483  0  0  -0.202548  -0.404266  0  1.435281  0
I  I59  1  0.75740824  0.57839044  0.24999918  1  0  -0.469409  0  1.086101  0  0  -0.416831  0  1.420418  0  0  -0.434688  0  1.39945  0  0  -0.20257  -0.404291  0  1.435236  0
N  N60  1  0.76906367  0.23999178  0.60349843  1  0  -0.338918  0  3.344191  0  0  -0.250854  0  3.599942  0  0  -0.272774  0  3.621976  0  0  -0.347159  -0.236089  0  3.584588  0
N  N61  1  0.23094604  0.76000158  0.10349180  1  0  -0.338603  0  3.343866  0  0  -0.250621  0  3.599698  0  0  -0.272543  0  3.621736  0  0  -0.346945  -0.235861  0  3.584361  0
N  N62  1  0.23094361  0.76000095  0.39650657  1  0  -0.338652  0  3.343908  0  0  -0.250671  0  3.599737  0  0  -0.272591  0  3.621776  0  0  -0.346992  -0.235921  0  3.584429  0
N  N63  1  0.76905937  0.23999798  0.89650651  1  0  -0.338604  0  3.34394  0  0  -0.250642  0  3.59977  0  0  -0.272562  0  3.62181  0  0  -0.346997  -0.235893  0  3.584458  0
