# generated using pymatgen
data_Mn3H44C52(NO10)2
_symmetry_space_group_name_H-M   'P 1'
_cell_length_a   9.34194963
_cell_length_b   17.42053437
_cell_length_c   17.42055281
_cell_angle_alpha   74.83912638
_cell_angle_beta   77.52390666
_cell_angle_gamma   77.52405184
_symmetry_Int_Tables_number   1
_chemical_formula_structural   Mn3H44C52(NO10)2
_chemical_formula_sum   'Mn6 H88 C104 N4 O40'
_cell_volume   2633.20281022
_cell_formula_units_Z   2
loop_
 _symmetry_equiv_pos_site_id
 _symmetry_equiv_pos_as_xyz
  1  'x, y, z'
loop_
 _atom_site_type_symbol
 _atom_site_label
 _atom_site_symmetry_multiplicity
 _atom_site_fract_x
 _atom_site_fract_y
 _atom_site_fract_z
 _atom_site_occupancy
 _atom_site_pbe_bader_charge
 _atom_site_pbe_bader_spin_density
 _atom_site_pbe_cm5_charge
 _atom_site_pbe_ddec_charge
 _atom_site_pbe_ddec_spin_density
 _atom_site_pbe_ddec_sum_bond_order
 _atom_site_pbe_magmom
Mn  Mn0  1  0.50008784  0.49999340  0.00001841  1  1.563771  4.585149  0.627394  1.113846  4.711912  2.160071  4.501
Mn  Mn1  1  0.00001270  0.99995445  0.49997068  1  1.564011  4.585045  0.627386  1.113815  4.711838  2.16022  4.501
Mn  Mn2  1  0.43970093  0.68514897  0.80830845  1  1.53282  4.529179  0.615302  1.046434  4.64649  2.335193  4.452
Mn  Mn3  1  0.06016036  0.19169672  0.31484160  1  1.533545  4.529051  0.61529  1.046508  4.646644  2.334904  4.452
Mn  Mn4  1  0.56022380  0.31479705  0.19170717  1  1.533157  4.52913  0.615236  1.046458  4.646486  2.335023  4.452
Mn  Mn5  1  0.93998354  0.80829558  0.68513979  1  1.534292  4.528787  0.615194  1.046491  4.646852  2.335045  4.451
H  H6  1  0.60112873  0.82669775  0.79208413  1  0.651615  0.001041  0.303384  0.397267  -0.000145  0.928404  0.001
H  H7  1  0.89887650  0.20791424  0.17329523  1  0.651633  0.001042  0.303401  0.397286  -0.000145  0.928386  0.001
H  H8  1  0.39887747  0.17328685  0.20791830  1  0.651658  0.001044  0.303391  0.397306  -0.000144  0.928379  0.001
H  H9  1  0.10111422  0.79208054  0.82670601  1  0.65178  0.00104  0.303408  0.397216  -0.000146  0.928498  0.001
H  H10  1  0.40610742  0.52960779  0.67315542  1  0.10064  0.000273  0.107047  0.130486  -0.000121  1.042489  0.0
H  H11  1  0.09388918  0.32685082  0.47038785  1  0.100455  0.000273  0.107112  0.13053  -0.000121  1.042563  0.0
H  H12  1  0.59387090  0.47037838  0.32685233  1  0.100251  0.000273  0.107052  0.130399  -0.000121  1.042715  0.0
H  H13  1  0.90611371  0.67316028  0.52961302  1  0.100583  0.000273  0.107068  0.130475  -0.000121  1.04254  0.0
H  H14  1  0.43501774  0.33564017  0.88495966  1  0.101409  0.000296  0.112741  0.13403  -0.000114  1.007165  0.0
H  H15  1  0.06498525  0.11504570  0.66435199  1  0.101549  0.000296  0.112725  0.13406  -0.000114  1.007245  0.0
H  H16  1  0.56496209  0.66434835  0.11505192  1  0.101624  0.000297  0.112752  0.134092  -0.000114  1.007243  0.0
H  H17  1  0.93506243  0.88495559  0.33563838  1  0.101456  0.000297  0.112667  0.133979  -0.000114  1.007242  0.0
H  H18  1  0.30076307  0.42335225  0.45868836  1  0.110961  4.9e-05  0.105034  0.122427  -2.9e-05  1.039187  0.0
H  H19  1  0.19924159  0.54132134  0.57664788  1  0.11087  4.9e-05  0.104998  0.122417  -2.8e-05  1.039146  0.0
H  H20  1  0.69923871  0.57664608  0.54131925  1  0.110923  4.9e-05  0.105007  0.122414  -2.9e-05  1.039163  0.0
H  H21  1  0.80076203  0.45868481  0.42336102  1  0.110975  4.9e-05  0.105019  0.122325  -2.8e-05  1.039307  0.0
H  H22  1  0.84012096  0.10804049  0.64736790  1  0.123101  0.000174  0.107593  0.109791  -0.000477  1.036091  0.0
H  H23  1  0.65987132  0.35262591  0.89196350  1  0.123117  0.000174  0.107587  0.109813  -0.000477  1.036083  0.0
H  H24  1  0.15986934  0.89197538  0.35263219  1  0.122775  0.000175  0.107486  0.109677  -0.000477  1.03623  0.0
H  H25  1  0.34014081  0.64736624  0.10802256  1  0.122656  0.000175  0.107507  0.109727  -0.000477  1.036136  0.0
H  H26  1  0.42852309  0.34337484  0.35528969  1  0.111039  0.00034  0.108439  0.099496  0.000268  1.044519  0.0
H  H27  1  0.07145876  0.64471613  0.65662938  1  0.11063  0.000342  0.108427  0.099476  0.00027  1.044562  0.0
H  H28  1  0.57146554  0.65663264  0.64470808  1  0.110888  0.00034  0.108461  0.099532  0.000268  1.044554  0.0
H  H29  1  0.92853036  0.35528749  0.34338192  1  0.110442  0.00034  0.108461  0.099494  0.000268  1.044516  0.0
H  H30  1  0.52180356  0.96191220  0.79469545  1  0.115109  0.000725  0.105032  0.101994  0.000242  1.03171  0.0
H  H31  1  0.97819483  0.20530351  0.03808769  1  0.115179  0.000727  0.105076  0.102115  0.000243  1.031682  0.0
H  H32  1  0.47820439  0.03808287  0.20529441  1  0.115221  0.000727  0.10507  0.102093  0.000243  1.031808  0.0
H  H33  1  0.02179802  0.79469487  0.96191469  1  0.11516  0.000728  0.105082  0.102122  0.000244  1.031668  0.0
H  H34  1  0.43164286  0.28396552  0.65638980  1  0.086021  0.000124  0.112217  0.14316  8.4e-05  1.008623  0.0
H  H35  1  0.06837640  0.34361332  0.71602815  1  0.085817  0.000124  0.112194  0.143127  8.4e-05  1.008691  0.0
H  H36  1  0.56836265  0.71601835  0.34361978  1  0.086039  0.000125  0.112202  0.143068  8.4e-05  1.008731  0.0
H  H37  1  0.93165200  0.65638709  0.28397168  1  0.086068  0.000125  0.112196  0.143145  8.4e-05  1.008496  0.0
H  H38  1  0.68695109  0.35006754  0.57458992  1  0.071668  4.2e-05  0.102826  0.115177  -1.3e-05  1.00884  0.0
H  H39  1  0.81306600  0.42540804  0.64992468  1  0.071203  4.2e-05  0.102799  0.115129  -1.3e-05  1.008889  0.0
H  H40  1  0.31305770  0.64991894  0.42540885  1  0.071064  4.2e-05  0.102788  0.115162  -1.4e-05  1.008816  0.0
H  H41  1  0.18694329  0.57459351  0.35007318  1  0.071671  4.2e-05  0.102787  0.115146  -1.3e-05  1.008821  0.0
H  H42  1  0.69570428  0.22673888  0.70005723  1  0.062794  3.4e-05  0.099846  0.110831  5e-06  1.0288  0.0
H  H43  1  0.80430003  0.29995004  0.77326055  1  0.06328  3.4e-05  0.099851  0.110825  5e-06  1.02886  0.0
H  H44  1  0.30426763  0.77326703  0.29995560  1  0.063112  3.4e-05  0.099805  0.110722  5e-06  1.02885  0.0
H  H45  1  0.19574472  0.70005004  0.22672875  1  0.062651  3.4e-05  0.099826  0.110744  5e-06  1.028812  0.0
H  H46  1  0.81364053  0.27058918  0.47126137  1  0.111693  0.00019  0.109144  0.113311  -0.00047  1.01824  0.0
H  H47  1  0.68635901  0.52873304  0.72940720  1  0.111788  0.00019  0.10907  0.113205  -0.00047  1.018279  0.0
H  H48  1  0.18635581  0.72940458  0.52873082  1  0.111757  0.00019  0.109078  0.113247  -0.00047  1.018294  0.0
H  H49  1  0.31363203  0.47127028  0.27058786  1  0.111879  0.00019  0.109071  0.113143  -0.00047  1.018302  0.0
H  H50  1  0.28881884  0.33797799  0.08962154  1  0.096051  0.000495  0.107152  0.12291  -5.9e-05  1.013207  0.0
H  H51  1  0.21117169  0.91037727  0.66202831  1  0.095878  0.000499  0.107137  0.122777  -5.5e-05  1.013311  0.0
H  H52  1  0.71116917  0.66201853  0.91038246  1  0.096065  0.000495  0.107154  0.122943  -5.9e-05  1.013137  0.0
H  H53  1  0.78883667  0.08962110  0.33797907  1  0.095884  0.000497  0.107124  0.122834  -5.7e-05  1.013341  0.0
H  H54  1  0.27071911  0.38778654  0.98906310  1  0.068075  0.0003  0.101557  0.121241  -0.000178  1.025422  0.0
H  H55  1  0.22926074  0.01094054  0.61222846  1  0.068053  0.0003  0.101585  0.121217  -0.000178  1.025254  0.0
H  H56  1  0.72926756  0.61221415  0.01094291  1  0.067697  0.000302  0.101556  0.121195  -0.000176  1.025416  0.0
H  H57  1  0.77073348  0.98906123  0.38778669  1  0.067816  0.000301  0.101555  0.121169  -0.000177  1.025383  0.0
H  H58  1  0.02049904  0.36298159  0.01017124  1  0.030869  0.000103  0.087687  0.081648  -1.9e-05  1.030458  0.0
H  H59  1  0.47948750  0.98983091  0.63702921  1  0.031013  0.000103  0.08766  0.081626  -1.9e-05  1.030311  0.0
H  H60  1  0.97948594  0.63703061  0.98983099  1  0.031123  0.000103  0.08766  0.081581  -1.9e-05  1.03033  0.0
H  H61  1  0.52052189  0.01017011  0.36296533  1  0.031118  0.000103  0.087617  0.081509  -1.9e-05  1.030336  0.0
H  H62  1  0.05969890  0.29400331  0.10043692  1  0.051952  0.000187  0.097956  0.108254  -0.000361  1.012685  0.0
H  H63  1  0.44029054  0.89956253  0.70600228  1  0.052319  0.000187  0.097941  0.108239  -0.00036  1.012605  0.0
H  H64  1  0.94027781  0.70600046  0.89956265  1  0.051983  0.000187  0.097932  0.108188  -0.000361  1.012609  0.0
H  H65  1  0.55972880  0.10043849  0.29399506  1  0.051845  0.000186  0.097894  0.108159  -0.000361  1.012657  0.0
H  H66  1  0.85274698  0.44343027  0.09028855  1  0.06314  0.000526  0.104846  0.085898  -0.000169  1.000985  0.0
H  H67  1  0.64723453  0.90971965  0.55657231  1  0.063123  0.000529  0.104859  0.085916  -0.000168  1.000919  0.0
H  H68  1  0.14724043  0.55657516  0.90972194  1  0.063164  0.000528  0.104882  0.085935  -0.000168  1.000978  0.0
H  H69  1  0.35275928  0.09027835  0.44341856  1  0.063161  0.000527  0.104861  0.085927  -0.000169  1.00105  0.0
H  H70  1  0.92068573  0.38570659  0.17925654  1  0.085322  0.000537  0.106048  0.089399  -3.4e-05  0.987813  0.0
H  H71  1  0.57930478  0.82075065  0.61429439  1  0.085316  0.000539  0.106071  0.089486  -3.3e-05  0.987768  0.0
H  H72  1  0.07931079  0.61429772  0.82075196  1  0.085213  0.000539  0.10606  0.089447  -3.2e-05  0.987863  0.0
H  H73  1  0.42068388  0.17924971  0.38569768  1  0.085138  0.000537  0.106044  0.089498  -3.4e-05  0.987776  0.0
H  H74  1  0.06848295  0.58006125  0.14057356  1  0.102772  0.000337  0.104556  0.121545  -2.7e-05  1.03981  0.0
H  H75  1  0.43149764  0.85942527  0.41994913  1  0.102378  0.000338  0.104601  0.121589  -2.7e-05  1.039766  0.0
H  H76  1  0.93152677  0.41994523  0.85941844  1  0.102795  0.000338  0.104541  0.121459  -2.7e-05  1.039812  0.0
H  H77  1  0.56845894  0.14058622  0.58005100  1  0.103004  0.000338  0.104492  0.121395  -2.7e-05  1.039898  0.0
H  H78  1  0.93559382  0.52457185  0.21107781  1  0.060177  0.000398  0.098158  0.111172  0.000224  1.026672  0.0
H  H79  1  0.56438822  0.78892661  0.47544019  1  0.060006  0.0004  0.098111  0.111175  0.000226  1.026653  0.0
H  H80  1  0.06441618  0.47544108  0.78892347  1  0.060104  0.000399  0.098137  0.111206  0.000225  1.026625  0.0
H  H81  1  0.43556998  0.21107957  0.52455417  1  0.059941  0.000398  0.098125  0.111128  0.000225  1.026651  0.0
H  H82  1  0.88940591  0.58349582  0.11686663  1  0.052439  0.000439  0.09969  0.111976  0.000222  1.012493  0.0
H  H83  1  0.61057438  0.88313660  0.41651004  1  0.052578  0.000441  0.099713  0.112009  0.000223  1.012388  0.0
H  H84  1  0.11059726  0.41651108  0.88313353  1  0.05244  0.000441  0.099752  0.112065  0.000222  1.012452  0.0
H  H85  1  0.38939331  0.11686727  0.58348143  1  0.052305  0.00044  0.099731  0.11202  0.000222  1.012505  0.0
H  H86  1  0.37118200  0.08171657  0.84415115  1  0.096567  4.2e-05  0.108546  0.123461  -2e-06  0.995166  0.0
H  H87  1  0.12882763  0.15585879  0.91828340  1  0.096554  4.1e-05  0.108554  0.123482  -2e-06  0.995037  0.0
H  H88  1  0.62881624  0.91827219  0.15585179  1  0.097246  4.2e-05  0.108519  0.123439  -2e-06  0.995114  0.0
H  H89  1  0.87119452  0.84414445  0.08172453  1  0.097229  4.2e-05  0.10853  0.123413  -2e-06  0.995197  0.0
H  H90  1  0.53713081  0.79173038  0.88178317  1  0.600786  0.00136  0.323646  0.397602  0.000635  0.882376  0.001
H  H91  1  0.96288784  0.11821621  0.20826530  1  0.600858  0.001362  0.323669  0.397617  0.000637  0.882248  0.001
H  H92  1  0.46287985  0.20825727  0.11821796  1  0.600779  0.001365  0.323665  0.397538  0.000638  0.882433  0.001
H  H93  1  0.03711787  0.88178434  0.79175392  1  0.600481  0.001366  0.323632  0.39753  0.000639  0.882418  0.001
C  C94  1  0.48612707  0.39041478  0.52204573  1  0.414524  0.006751  0.08734  0.264673  0.005486  4.03427  0.005
C  C95  1  0.01388371  0.47795656  0.60958352  1  0.41436  0.006721  0.087351  0.264853  0.005462  4.034136  0.004
C  C96  1  0.51387675  0.60957703  0.47795693  1  0.414571  0.006774  0.087389  0.264839  0.005505  4.034096  0.005
C  C97  1  0.98612776  0.52204549  0.39042084  1  0.414216  0.006736  0.087223  0.264533  0.005474  4.034312  0.004
C  C98  1  0.41371627  0.46571902  0.70145997  1  -0.012167  0.003793  -0.102485  -0.230095  0.002708  3.95857  0.002
C  C99  1  0.08628507  0.29854385  0.53427402  1  -0.012434  0.003785  -0.102419  -0.230026  0.002702  3.958539  0.002
C  C100  1  0.58626549  0.53426660  0.29854577  1  -0.011856  0.003794  -0.102429  -0.229923  0.002709  3.95851  0.002
C  C101  1  0.91373188  0.70146438  0.46572298  1  -0.011638  0.003806  -0.102438  -0.229953  0.002719  3.95849  0.002
C  C102  1  0.41799646  0.43910411  0.78402625  1  0.049523  0.003354  -0.016672  -0.001123  0.002028  3.997669  0.002
C  C103  1  0.08200515  0.21597668  0.56088891  1  0.049881  0.003356  -0.016681  -0.001026  0.002031  3.997324  0.002
C  C104  1  0.58198158  0.56088272  0.21597850  1  0.049404  0.003357  -0.016712  -0.000954  0.00203  3.997078  0.002
C  C105  1  0.91802518  0.78403102  0.43910830  1  0.049649  0.003354  -0.016699  -0.001002  0.002026  3.997183  0.002
C  C106  1  0.52502130  0.16068004  0.77626277  1  0.36568  0.003457  0.088806  0.271574  0.002805  4.031247  0.002
C  C107  1  0.97498419  0.22374167  0.83931725  1  0.366035  0.003471  0.088892  0.271657  0.002817  4.03126  0.002
C  C108  1  0.47496649  0.83931402  0.22374417  1  0.36669  0.003467  0.088898  0.271661  0.002813  4.031093  0.002
C  C109  1  0.02504697  0.77626004  0.16067790  1  0.366519  0.003471  0.088787  0.271524  0.002817  4.031141  0.002
C  C110  1  0.42986875  0.35665166  0.82088696  1  -0.038812  0.004035  -0.101461  -0.237173  0.00295  3.960449  0.002
C  C111  1  0.07013220  0.17911689  0.64334387  1  -0.039488  0.004027  -0.101531  -0.237348  0.002944  3.960324  0.002
C  C112  1  0.57010844  0.64333807  0.17912292  1  -0.039632  0.004038  -0.101475  -0.237275  0.002952  3.960225  0.002
C  C113  1  0.92990735  0.82088607  0.35665167  1  -0.039794  0.004051  -0.101418  -0.237224  0.002962  3.960122  0.002
C  C114  1  0.41509497  0.50022343  0.83203932  1  1.591296  0.020179  0.228641  0.594843  0.019523  4.180498  0.018
C  C115  1  0.08490184  0.16795715  0.49977441  1  1.591035  0.020144  0.228694  0.594795  0.019488  4.18078  0.018
C  C116  1  0.58487839  0.49977018  0.16795514  1  1.591195  0.020192  0.228586  0.594579  0.019539  4.180886  0.018
C  C117  1  0.91511998  0.83204322  0.50022565  1  1.590891  0.020245  0.228574  0.594645  0.019591  4.18075  0.018
C  C118  1  0.78571476  0.95442070  0.69246630  1  1.520024  0.017772  0.216172  0.579747  0.017936  4.165425  0.015
C  C119  1  0.71426094  0.30753182  0.04558186  1  1.519509  0.01785  0.216152  0.579668  0.018013  4.164936  0.015
C  C120  1  0.21428127  0.04559362  0.30752142  1  1.519531  0.017822  0.215935  0.579183  0.01799  4.16535  0.015
C  C121  1  0.28572994  0.69246853  0.95441108  1  1.519558  0.01784  0.215996  0.579457  0.01801  4.165259  0.015
C  C122  1  0.42156872  0.40934167  0.65624531  1  0.416451  -0.000223  0.082845  0.274824  -0.000323  4.066846  0.0
C  C123  1  0.07844027  0.34375731  0.59065338  1  0.416234  -0.000221  0.082689  0.274659  -0.000322  4.0669  0.0
C  C124  1  0.57842488  0.59064463  0.34375939  1  0.416343  -0.000223  0.082748  0.274539  -0.000323  4.067054  0.0
C  C125  1  0.92157670  0.65624784  0.40934782  1  0.416077  -0.000224  0.082728  0.274558  -0.000325  4.066979  0.0
C  C126  1  0.69247897  0.02695442  0.71849005  1  0.002411  -0.001748  -0.02743  -0.069981  -0.003109  3.998376  -0.002
C  C127  1  0.80750869  0.28150578  0.97305363  1  0.002161  -0.001754  -0.027412  -0.069809  -0.003116  3.998309  -0.002
C  C128  1  0.30751252  0.97305737  0.28150287  1  0.002188  -0.001754  -0.027494  -0.069978  -0.003116  3.998393  -0.002
C  C129  1  0.19248920  0.71849338  0.02694048  1  0.001836  -0.001756  -0.027534  -0.069931  -0.003118  3.998269  -0.002
C  C130  1  0.41260976  0.38930063  0.46075337  1  -0.021612  -0.001561  -0.101512  -0.201249  -0.001579  3.978372  -0.001
C  C131  1  0.08739319  0.53925186  0.61069997  1  -0.021674  -0.001554  -0.101461  -0.201181  -0.001572  3.978321  -0.001
C  C132  1  0.58738972  0.61069776  0.53925049  1  -0.021604  -0.001566  -0.101499  -0.201251  -0.001584  3.978296  -0.001
C  C133  1  0.91260972  0.46075308  0.38930874  1  -0.021673  -0.001559  -0.101456  -0.200923  -0.001576  3.978207  -0.001
C  C134  1  0.62899702  0.30203858  0.40706359  1  -0.080218  -0.000316  -0.026574  -0.082751  -0.001488  4.001674  -0.001
C  C135  1  0.87100623  0.59293358  0.69795949  1  -0.080143  -0.000307  -0.02655  -0.08259  -0.001478  4.001702  -0.001
C  C136  1  0.37099446  0.69796352  0.59293288  1  -0.080268  -0.000324  -0.026603  -0.082728  -0.001497  4.001802  -0.001
C  C137  1  0.12898868  0.40707200  0.30204487  1  -0.080686  -0.000313  -0.026608  -0.082851  -0.001485  4.001857  -0.001
C  C138  1  0.70790732  0.25446912  0.34615593  1  1.571004  0.038664  0.232056  0.612562  0.037441  4.169774  0.034
C  C139  1  0.79210302  0.65384619  0.74553070  1  1.570226  0.038535  0.23185  0.612264  0.037303  4.16993  0.034
C  C140  1  0.29209672  0.74552516  0.65384380  1  1.569921  0.038768  0.23212  0.612667  0.037534  4.169944  0.034
C  C141  1  0.20789124  0.34616737  0.25446488  1  1.570914  0.038595  0.232123  0.612521  0.037365  4.16965  0.034
C  C142  1  0.73860337  0.10238269  0.69149077  1  -0.056415  0.004201  -0.077068  -0.058364  0.002823  3.967758  0.003
C  C143  1  0.76139088  0.30850413  0.89762114  1  -0.056089  0.004218  -0.077076  -0.058536  0.002837  3.967766  0.003
C  C144  1  0.26138319  0.89762778  0.30850767  1  -0.055776  0.004213  -0.0769  -0.058281  0.002833  3.96758  0.003
C  C145  1  0.23862604  0.69149040  0.10236834  1  -0.055649  0.004219  -0.076906  -0.058314  0.002838  3.96741  0.003
C  C146  1  0.43667183  0.30160089  0.77414117  1  0.389098  -0.000289  0.082702  0.279049  -0.000419  4.066031  0.0
C  C147  1  0.06333608  0.22586256  0.69839287  1  0.389575  -0.000288  0.082768  0.279178  -0.000418  4.06588  0.0
C  C148  1  0.56331034  0.69838707  0.22586853  1  0.390078  -0.00029  0.082655  0.278923  -0.000419  4.066046  0.0
C  C149  1  0.93670758  0.77413800  0.30160333  1  0.389379  -0.000291  0.082761  0.279108  -0.000422  4.06589  0.0
C  C150  1  0.48430636  0.34472469  0.40360609  1  -0.045875  0.00797  -0.0768  -0.067976  0.006122  3.985033  0.005
C  C151  1  0.01568888  0.59639536  0.65527622  1  -0.045698  0.007938  -0.076899  -0.068179  0.006097  3.985364  0.005
C  C152  1  0.51568603  0.65527800  0.59639069  1  -0.045632  0.007993  -0.076834  -0.068068  0.00614  3.985244  0.005
C  C153  1  0.98430472  0.40360775  0.34473121  1  -0.044942  0.007952  -0.076879  -0.068102  0.006109  3.985107  0.005
C  C154  1  0.55930658  0.02003859  0.77378606  1  -0.039722  0.004496  -0.080444  -0.064235  0.003349  3.986838  0.003
C  C155  1  0.94068513  0.22621433  0.97996503  1  -0.039906  0.004512  -0.080515  -0.0645  0.003362  3.986898  0.003
C  C156  1  0.44068962  0.97996237  0.22620780  1  -0.039925  0.004507  -0.080434  -0.064343  0.003358  3.986934  0.003
C  C157  1  0.05931476  0.77378592  0.02003603  1  -0.039723  0.004513  -0.080449  -0.064447  0.003362  3.986806  0.003
C  C158  1  0.42984076  0.32714471  0.69192710  1  0.022024  0.003838  -0.114382  -0.332551  0.003074  3.995153  0.002
C  C159  1  0.07017244  0.30807517  0.67285065  1  0.022337  0.00383  -0.114337  -0.332488  0.003068  3.995125  0.002
C  C160  1  0.57015499  0.67284211  0.30808295  1  0.021523  0.003841  -0.114204  -0.332208  0.003076  3.995126  0.002
C  C161  1  0.92985836  0.69192464  0.32714961  1  0.0225  0.003855  -0.114252  -0.332401  0.003088  3.994951  0.002
C  C162  1  0.63054945  0.34791680  0.52677220  1  -0.105188  -0.001609  -0.102037  -0.209654  -0.001636  4.007649  -0.001
C  C163  1  0.86945922  0.47322672  0.65207963  1  -0.10512  -0.001601  -0.102003  -0.209654  -0.001627  4.007693  -0.001
C  C164  1  0.36945646  0.65207509  0.47322674  1  -0.105124  -0.001615  -0.101977  -0.209768  -0.001641  4.007844  -0.001
C  C165  1  0.13054121  0.52677531  0.34792265  1  -0.105281  -0.001606  -0.102002  -0.209754  -0.001632  4.007814  -0.001
C  C166  1  0.65672077  0.16902426  0.72040847  1  -0.025037  -0.000771  -0.106593  -0.21648  -0.000736  3.995778  -0.001
C  C167  1  0.84327883  0.27959450  0.83097734  1  -0.025152  -0.000773  -0.106543  -0.216358  -0.000738  3.995891  -0.001
C  C168  1  0.34326120  0.83098063  0.27959707  1  -0.025161  -0.000773  -0.106539  -0.216238  -0.000737  3.995633  -0.001
C  C169  1  0.15675381  0.72040247  0.16901420  1  -0.024893  -0.000773  -0.106555  -0.216332  -0.000738  3.995459  -0.001
C  C170  1  0.18560912  0.45963938  0.07653068  1  1.354467  0.005787  0.250511  0.484434  0.005948  4.042535  0.005
C  C171  1  0.31438164  0.92347987  0.54036660  1  1.353618  0.005817  0.250548  0.484103  0.00598  4.042751  0.006
C  C172  1  0.81439221  0.54036019  0.92347496  1  1.355278  0.005809  0.250529  0.484325  0.00598  4.042519  0.006
C  C173  1  0.68560190  0.07653348  0.45963781  1  1.35521  0.005785  0.25041  0.48406  0.005955  4.042631  0.005
C  C174  1  0.70107789  0.30387246  0.46926830  1  0.066102  0.007193  -0.076977  -0.055681  0.005292  3.960198  0.004
C  C175  1  0.79892351  0.53072891  0.69612632  1  0.066082  0.007162  -0.076951  -0.05562  0.005267  3.960122  0.004
C  C176  1  0.29892103  0.69612367  0.53072700  1  0.066291  0.007215  -0.07691  -0.055604  0.005308  3.960109  0.004
C  C177  1  0.20107280  0.46927553  0.30387471  1  0.066307  0.007178  -0.076903  -0.055374  0.005279  3.959994  0.004
C  C178  1  0.21275028  0.38045316  0.05171373  1  -0.042864  0.001952  -0.161091  -0.295922  0.001477  3.916422  0.001
C  C179  1  0.28723678  0.94829063  0.61955510  1  -0.042519  0.001959  -0.161048  -0.295622  0.001483  3.916038  0.001
C  C180  1  0.78724028  0.61954575  0.94829225  1  -0.042649  0.001957  -0.161025  -0.295887  0.001483  3.916177  0.001
C  C181  1  0.71275992  0.05171309  0.38045238  1  -0.042592  0.001956  -0.161036  -0.29575  0.001482  3.916328  0.001
C  C182  1  0.05878779  0.35652473  0.06700130  1  -0.01183  0.000352  -0.164634  -0.15715  -2e-05  3.895264  0.0
C  C183  1  0.44119999  0.93300129  0.64348269  1  -0.012054  0.000352  -0.16443  -0.156937  -2e-05  3.89463  0.0
C  C184  1  0.94119870  0.64347962  0.93300210  1  -0.011912  0.000352  -0.164457  -0.156786  -2e-05  3.894484  0.0
C  C185  1  0.55880491  0.06700025  0.35651514  1  -0.011638  0.000352  -0.164389  -0.156716  -2e-05  3.894554  0.0
C  C186  1  0.95432639  0.41504397  0.11570199  1  0.275435  0.000857  -0.058692  -0.05404  0.000525  3.843442  0.0
C  C187  1  0.54565966  0.88430378  0.58496222  1  0.2753  0.000859  -0.058821  -0.054277  0.000527  3.843201  0.0
C  C188  1  0.04566642  0.58496155  0.88430552  1  0.275461  0.000857  -0.058866  -0.054319  0.000526  3.843443  0.0
C  C189  1  0.45433017  0.11569653  0.41503259  1  0.275307  0.000857  -0.058783  -0.054375  0.000525  3.843529  0.0
C  C190  1  0.98055619  0.54517739  0.14686331  1  0.258956  0.000336  -0.135053  -0.262328  0.000221  3.909877  0.0
C  C191  1  0.51942521  0.85313840  0.45483108  1  0.25935  0.000337  -0.135002  -0.26236  0.000222  3.909579  0.0
C  C192  1  0.01945004  0.45483015  0.85313575  1  0.259047  0.000337  -0.135012  -0.262218  0.000222  3.909575  0.0
C  C193  1  0.48053834  0.14686837  0.54516535  1  0.259269  0.000336  -0.134967  -0.262078  0.000221  3.909677  0.0
C  C194  1  0.47521061  0.08639288  0.80186150  1  0.003147  -0.000815  -0.101498  -0.200961  -0.000826  3.992675  -0.001
C  C195  1  0.02478872  0.19814384  0.91360663  1  0.003196  -0.000819  -0.101479  -0.200927  -0.00083  3.992359  -0.001
C  C196  1  0.52477921  0.91360129  0.19813999  1  0.002019  -0.000818  -0.101489  -0.200927  -0.000828  3.992437  -0.001
C  C197  1  0.97522835  0.80185769  0.08639487  1  0.002517  -0.000819  -0.10146  -0.200809  -0.00083  3.992431  -0.001
N  N198  1  0.04267225  0.47644942  0.11109073  1  -1.208391  0.009094  -0.275707  -0.05178  0.006736  3.64174  0.007
N  N199  1  0.45730578  0.88891766  0.52355634  1  -1.208155  0.009133  -0.275609  -0.051484  0.006766  3.641544  0.007
N  N200  1  0.95732219  0.52355433  0.88891472  1  -1.2084  0.009127  -0.275644  -0.051781  0.006761  3.641601  0.007
N  N201  1  0.54266576  0.11109155  0.47644022  1  -1.2083  0.009101  -0.27568  -0.051641  0.006741  3.641527  0.007
O  O202  1  0.39744011  0.57410496  0.79561947  1  -1.19994  0.070513  -0.304683  -0.568824  0.051176  2.350806  0.035
O  O203  1  0.10255994  0.20437144  0.42589159  1  -1.200138  0.070485  -0.304762  -0.56889  0.051129  2.350547  0.035
O  O204  1  0.60253928  0.42589257  0.20435950  1  -1.199822  0.070486  -0.304546  -0.568599  0.051144  2.35073  0.035
O  O205  1  0.89744967  0.79563558  0.57410374  1  -1.199997  0.070524  -0.30453  -0.568603  0.051154  2.350698  0.035
O  O206  1  0.44171243  0.22107978  0.81331766  1  -1.093596  0.000981  -0.152893  -0.21374  0.000661  2.546564  0.001
O  O207  1  0.05829622  0.18668875  0.77891701  1  -1.093478  0.000986  -0.152942  -0.213817  0.000665  2.546601  0.001
O  O208  1  0.55826835  0.77890931  0.18669538  1  -1.093578  0.000984  -0.152911  -0.213785  0.000663  2.546642  0.001
O  O209  1  0.94175803  0.81331305  0.22107988  1  -1.093433  0.000985  -0.152963  -0.213776  0.000664  2.546764  0.001
O  O210  1  0.41351768  0.43851145  0.57526659  1  -1.095964  0.001611  -0.1457  -0.20639  0.001054  2.595446  0.001
O  O211  1  0.08649283  0.42473662  0.56148476  1  -1.096033  0.001603  -0.145735  -0.206557  0.001049  2.595599  0.001
O  O212  1  0.58648580  0.56147490  0.42473804  1  -1.096166  0.001616  -0.145712  -0.206344  0.001058  2.595386  0.001
O  O213  1  0.91351477  0.57527028  0.43851658  1  -1.096016  0.001605  -0.145625  -0.206311  0.00105  2.595243  0.001
O  O214  1  0.64001282  0.24701299  0.29311555  1  -1.20976  0.085257  -0.316679  -0.565072  0.059382  2.358626  0.04
O  O215  1  0.86000062  0.70689639  0.75296707  1  -1.209593  0.085187  -0.316501  -0.56494  0.059299  2.358174  0.04
O  O216  1  0.35998043  0.75297093  0.70688748  1  -1.208847  0.085212  -0.316615  -0.564988  0.059401  2.358938  0.04
O  O217  1  0.14000009  0.29312345  0.24701641  1  -1.209942  0.085186  -0.316659  -0.564971  0.05932  2.358261  0.04
O  O218  1  0.74128431  0.88589667  0.72223964  1  -1.190644  0.059906  -0.308384  -0.565974  0.040765  2.292125  0.027
O  O219  1  0.75869807  0.27776277  0.11411286  1  -1.189941  0.060021  -0.30843  -0.565996  0.040898  2.2926  0.027
O  O220  1  0.25872762  0.11411952  0.27774912  1  -1.190201  0.059962  -0.30828  -0.565791  0.040844  2.292621  0.027
O  O221  1  0.24128166  0.72224473  0.88588083  1  -1.190325  0.060072  -0.308385  -0.565968  0.040912  2.292886  0.027
O  O222  1  0.91110238  0.95805273  0.64535769  1  -1.215304  0.072196  -0.295892  -0.593072  0.056254  2.250875  0.034
O  O223  1  0.58887390  0.35463784  0.04194982  1  -1.215362  0.072205  -0.295849  -0.592868  0.056242  2.250688  0.034
O  O224  1  0.08889128  0.04196879  0.35463083  1  -1.215346  0.072248  -0.295767  -0.592671  0.056268  2.250804  0.034
O  O225  1  0.41110871  0.64536023  0.95803321  1  -1.215264  0.07219  -0.295664  -0.592562  0.056232  2.250857  0.034
O  O226  1  0.51366123  0.80528991  0.82757927  1  -1.246601  0.038239  -0.557037  -0.754565  0.028733  2.024268  0.018
O  O227  1  0.98634533  0.17242379  0.19470322  1  -1.246713  0.038309  -0.556949  -0.75454  0.028783  2.024426  0.018
O  O228  1  0.48633365  0.19470906  0.17242444  1  -1.246596  0.038322  -0.556931  -0.754462  0.028798  2.024741  0.018
O  O229  1  0.01364904  0.82758001  0.80529993  1  -1.246452  0.038342  -0.556885  -0.754321  0.028803  2.024693  0.018
O  O230  1  0.28043786  0.50393262  0.06843951  1  -1.193985  0.056887  -0.294257  -0.527232  0.039478  2.338234  0.025
O  O231  1  0.21954648  0.93157834  0.49606956  1  -1.1936  0.057021  -0.294375  -0.527105  0.039545  2.338669  0.025
O  O232  1  0.71956501  0.49606217  0.93156426  1  -1.194688  0.057011  -0.29424  -0.527053  0.039543  2.338724  0.025
O  O233  1  0.78042500  0.06844820  0.50393478  1  -1.194846  0.05691  -0.294181  -0.527002  0.039479  2.338125  0.025
O  O234  1  0.42975536  0.47252629  0.90567243  1  -1.214791  0.064169  -0.307934  -0.583627  0.045355  2.38876  0.027
O  O235  1  0.07023508  0.09432344  0.52747937  1  -1.214706  0.064161  -0.307862  -0.583513  0.045336  2.388916  0.027
O  O236  1  0.57021092  0.52748535  0.09432188  1  -1.2148  0.064318  -0.307908  -0.583454  0.045435  2.389711  0.027
O  O237  1  0.92979611  0.90567825  0.47251693  1  -1.214761  0.064358  -0.307979  -0.583626  0.045466  2.389878  0.027
O  O238  1  0.84123529  0.22089642  0.35259038  1  -1.220938  0.083571  -0.320939  -0.590608  0.05859  2.46403  0.035
O  O239  1  0.65877246  0.64740682  0.77911566  1  -1.220471  0.083356  -0.320796  -0.590557  0.058477  2.463054  0.035
O  O240  1  0.15876942  0.77910571  0.64740790  1  -1.220919  0.083776  -0.321094  -0.590778  0.058698  2.464933  0.035
O  O241  1  0.34122295  0.35260672  0.22088151  1  -1.220439  0.083424  -0.32094  -0.590669  0.058514  2.463186  0.035
