# generated using pymatgen
data_CdH12C11(NO2)2
_symmetry_space_group_name_H-M   'P 1'
_cell_length_a   8.54229602
_cell_length_b   9.33956324
_cell_length_c   16.08190000
_cell_angle_alpha   90.00000000
_cell_angle_beta   90.00000000
_cell_angle_gamma   90.00000000
_symmetry_Int_Tables_number   1
_chemical_formula_structural   CdH12C11(NO2)2
_chemical_formula_sum   'Cd4 H48 C44 N8 O16'
_cell_volume   1283.03511251
_cell_formula_units_Z   4
loop_
 _symmetry_equiv_pos_site_id
 _symmetry_equiv_pos_as_xyz
  1  'x, y, z'
loop_
 _atom_site_type_symbol
 _atom_site_label
 _atom_site_symmetry_multiplicity
 _atom_site_fract_x
 _atom_site_fract_y
 _atom_site_fract_z
 _atom_site_occupancy
 _atom_site_hle17_bader_spin_density
 _atom_site_hle17_ddec_charge
 _atom_site_hle17_ddec_spin_density
 _atom_site_hle17_ddec_sum_bond_order
 _atom_site_hle17_magmom
 _atom_site_hse06_10hf_bader_spin_density
 _atom_site_hse06_10hf_ddec_charge
 _atom_site_hse06_10hf_ddec_spin_density
 _atom_site_hse06_10hf_ddec_sum_bond_order
 _atom_site_hse06_10hf_magmom
 _atom_site_hse06_bader_spin_density
 _atom_site_hse06_ddec_charge
 _atom_site_hse06_ddec_spin_density
 _atom_site_hse06_ddec_sum_bond_order
 _atom_site_hse06_magmom
 _atom_site_pbe_bader_charge
 _atom_site_pbe_bader_spin_density
 _atom_site_pbe_cm5_charge
 _atom_site_pbe_ddec_charge
 _atom_site_pbe_ddec_spin_density
 _atom_site_pbe_ddec_sum_bond_order
 _atom_site_pbe_magmom
Cd  Cd0  1  0.95631549  0.41820264  0.77780175  1  0  1.088204  0  1.660273  0  0  0.895036  0  2.098907  0  0  0.954835  0  2.048267  0  1.242179  0  0.753532  0.853192  0  2.132596  0
Cd  Cd1  1  0.54368521  0.58179701  0.27780113  1  0  1.088201  0  1.66025  0  0  0.895032  0  2.098884  0  0  0.95483  0  2.048243  0  1.242181  0  0.753536  0.853185  0  2.132574  0
Cd  Cd2  1  0.04368498  0.91820247  0.72219887  1  0  1.088228  0  1.660247  0  0  0.895069  0  2.098884  0  0  0.954867  0  2.048243  0  1.242096  0  0.753541  0.853223  0  2.132576  0
Cd  Cd3  1  0.45631526  0.08179719  0.22219887  1  0  1.088206  0  1.660244  0  0  0.895041  0  2.098878  0  0  0.95484  0  2.048236  0  1.242095  0  0.753534  0.853195  0  2.132568  0
H  H4  1  0.19165807  0.55071205  0.67460313  1  0  0.274547  0  0.934782  0  0  0.261629  0  0.997012  0  0  0.268239  0  0.993283  0  0.470602  0  0.288392  0.25723  0  0.999409  0
H  H5  1  0.30834216  0.44928761  0.17460375  1  0  0.274548  0  0.934793  0  0  0.26163  0  0.997021  0  0  0.268239  0  0.993292  0  0.4706  0  0.288394  0.25723  0  0.999419  0
H  H6  1  0.80834239  0.05071222  0.82539687  1  0  0.274553  0  0.934783  0  0  0.261642  0  0.997007  0  0  0.26825  0  0.993277  0  0.470603  0  0.288391  0.257242  0  0.999405  0
H  H7  1  0.69165714  0.94928743  0.32539625  1  0  0.274543  0  0.934788  0  0  0.261623  0  0.997022  0  0  0.268232  0  0.993293  0  0.4706  0  0.288387  0.257223  0  0.999419  0
H  H8  1  0.46040666  0.17308839  0.78102152  1  0  0.101258  0  0.935872  0  0  0.116717  0  0.992775  0  0  0.119127  0  0.991545  0  0.063529  0  0.096914  0.114752  0  0.994323  0
H  H9  1  0.03959240  0.82691233  0.28102214  1  0  0.101322  0  0.935801  0  0  0.11677  0  0.992704  0  0  0.119184  0  0.991475  0  0.063525  0  0.096931  0.114804  0  0.994256  0
H  H10  1  0.53959146  0.67308715  0.71897786  1  0  0.101256  0  0.935868  0  0  0.116685  0  0.992791  0  0  0.119093  0  0.99156  0  0.063527  0  0.096906  0.114724  0  0.994338  0
H  H11  1  0.96040689  0.32691250  0.21897848  1  0  0.101248  0  0.935868  0  0  0.11668  0  0.992791  0  0  0.119088  0  0.99156  0  0.063528  0  0.09691  0.114718  0  0.994337  0
H  H12  1  0.50515341  0.18159200  0.67401862  1  0  0.09989  0  0.938995  0  0  0.114179  0  1.00285  0  0  0.115807  0  1.003362  0  0.064483  0  0.098073  0.112977  0  1.00279  0
H  H13  1  0.99484611  0.81840872  0.17401862  1  0  0.099864  0  0.939007  0  0  0.114142  0  1.002861  0  0  0.11577  0  1.003374  0  0.064488  0  0.09806  0.112942  0  1.002801  0
H  H14  1  0.49484588  0.68159183  0.82598138  1  0  0.099874  0  0.939008  0  0  0.114158  0  1.002851  0  0  0.115786  0  1.003364  0  0.06448  0  0.098062  0.112958  0  1.002793  0
H  H15  1  0.00515435  0.31840889  0.32598076  1  0  0.099893  0  0.938973  0  0  0.114181  0  1.002811  0  0  0.115809  0  1.003323  0  0.064485  0  0.098074  0.112981  0  1.002753  0
H  H16  1  0.45212786  0.46112006  0.69234232  1  0  0.086568  0  0.94069  0  0  0.102548  0  1.002019  0  0  0.104923  0  1.000178  0  0.053272  0  0.097795  0.100606  0  1.003776  0
H  H17  1  0.04787238  0.53888066  0.19234232  1  0  0.086576  0  0.940683  0  0  0.102568  0  1.001994  0  0  0.104944  0  1.000153  0  0.053272  0  0.097798  0.100626  0  1.003752  0
H  H18  1  0.54787144  0.96111882  0.80765830  1  0  0.086568  0  0.940689  0  0  0.102555  0  1.002013  0  0  0.104931  0  1.000171  0  0.053257  0  0.097795  0.100613  0  1.00377  0
H  H19  1  0.95212809  0.03888083  0.30765768  1  0  0.086563  0  0.940697  0  0  0.102552  0  1.002019  0  0  0.104927  0  1.000179  0  0.053272  0  0.097795  0.100611  0  1.003777  0
H  H20  1  0.34391807  0.40652865  0.78072616  1  0  0.072346  0  0.955612  0  0  0.089759  0  1.015626  0  0  0.089766  0  1.018083  0  0.056872  0  0.091711  0.089717  0  1.013996  0
H  H21  1  0.15608216  0.59347208  0.28072616  1  0  0.072356  0  0.955605  0  0  0.089747  0  1.015644  0  0  0.089754  0  1.018101  0  0.056879  0  0.09171  0.089705  0  1.014014  0
H  H22  1  0.65608239  0.90652740  0.71927384  1  0  0.072368  0  0.955587  0  0  0.089781  0  1.015601  0  0  0.089788  0  1.018058  0  0.056884  0  0.091722  0.089739  0  1.013971  0
H  H23  1  0.84391831  0.09347225  0.21927384  1  0  0.072362  0  0.955593  0  0  0.089773  0  1.01561  0  0  0.089781  0  1.018066  0  0.056882  0  0.091718  0.089732  0  1.01398  0
H  H24  1  0.29954593  0.32185445  0.59946026  1  0  0.05197  0  0.946884  0  0  0.06423  0  1.006188  0  0  0.065455  0  1.006092  0  0.082293  0  0.102266  0.063363  0  1.00637  0
H  H25  1  0.20045547  0.67814413  0.09946026  1  0  0.051973  0  0.946889  0  0  0.064238  0  1.006202  0  0  0.065465  0  1.006103  0  0.082298  0  0.10227  0.063371  0  1.006384  0
H  H26  1  0.70045571  0.82185535  0.90053974  1  0  0.051979  0  0.9469  0  0  0.064231  0  1.006211  0  0  0.065458  0  1.006111  0  0.082295  0  0.102276  0.063364  0  1.006392  0
H  H27  1  0.79954499  0.17814430  0.40053974  1  0  0.051978  0  0.946884  0  0  0.064235  0  1.006191  0  0  0.065462  0  1.006092  0  0.082298  0  0.102274  0.063368  0  1.006373  0
H  H28  1  0.95642553  0.55099043  0.59635988  1  0  0.084028  0  0.932453  0  0  0.102579  0  0.990205  0  0  0.103813  0  0.988753  0  0.058043  0  0.112493  0.101493  0  0.991549  0
H  H29  1  0.54357400  0.44900922  0.09635988  1  0  0.084048  0  0.93242  0  0  0.102594  0  0.990179  0  0  0.103828  0  0.988727  0  0.058044  0  0.112489  0.101506  0  0.991524  0
H  H30  1  0.04357377  0.05098954  0.90364012  1  0  0.084088  0  0.932386  0  0  0.102594  0  0.990187  0  0  0.103828  0  0.988734  0  0.058046  0  0.112504  0.101508  0  0.99153  0
H  H31  1  0.45642530  0.94900905  0.40364012  1  0  0.084078  0  0.932389  0  0  0.102586  0  0.990191  0  0  0.10382  0  0.988739  0  0.058032  0  0.112489  0.101499  0  0.991535  0
H  H32  1  0.97806374  0.36633940  0.57668932  1  0  0.07918  0  0.921212  0  0  0.095889  0  0.98273  0  0  0.096624  0  0.982245  0  0.051455  0  0.109783  0.095104  0  0.983398  0
H  H33  1  0.52193579  0.63366132  0.07668932  1  0  0.079183  0  0.921213  0  0  0.095894  0  0.98273  0  0  0.096628  0  0.982246  0  0.051449  0  0.109781  0.095108  0  0.983398  0
H  H34  1  0.02193673  0.86633923  0.92331068  1  0  0.079163  0  0.921219  0  0  0.095874  0  0.982733  0  0  0.096608  0  0.982249  0  0.051456  0  0.10978  0.095089  0  0.983401  0
H  H35  1  0.47806351  0.13366043  0.42331068  1  0  0.079175  0  0.921218  0  0  0.095887  0  0.982731  0  0  0.096621  0  0.982247  0  0.05146  0  0.109782  0.095102  0  0.983399  0
H  H36  1  0.35770477  0.76409141  0.42117847  1  0  0.073332  0  0.954624  0  0  0.084306  0  1.015213  0  0  0.086477  0  1.013173  0  0.077651  0  0.116596  0.082511  0  1.017038  0
H  H37  1  0.14229547  0.23590932  0.92117847  1  0  0.07336  0  0.954617  0  0  0.084328  0  1.015206  0  0  0.0865  0  1.013165  0  0.077662  0  0.116603  0.082533  0  1.017031  0
H  H38  1  0.64229570  0.26409158  0.07882029  1  0  0.07335  0  0.954623  0  0  0.08432  0  1.015215  0  0  0.086491  0  1.013176  0  0.07766  0  0.116594  0.082526  0  1.017038  0
H  H39  1  0.85770500  0.73590915  0.57882091  1  0  0.073359  0  0.954613  0  0  0.084327  0  1.015207  0  0  0.086499  0  1.013167  0  0.07766  0  0.116603  0.082532  0  1.017033  0
H  H40  1  0.17264679  0.72546968  0.53882004  1  0  0.124492  0  0.938117  0  0  0.135688  0  0.994432  0  0  0.13901  0  0.993233  0  0.126672  0  0.115365  0.133208  0  0.995636  0
H  H41  1  0.32735461  0.27453104  0.03882004  1  0  0.124502  0  0.938076  0  0  0.135694  0  0.994401  0  0  0.139016  0  0.993201  0  0.126676  0  0.115354  0.133211  0  0.995605  0
H  H42  1  0.82735484  0.22546879  0.96117996  1  0  0.1245  0  0.938092  0  0  0.135694  0  0.994412  0  0  0.139016  0  0.993212  0  0.126671  0  0.115354  0.133211  0  0.995615  0
H  H43  1  0.67264585  0.77453087  0.46117996  1  0  0.124503  0  0.938092  0  0  0.135696  0  0.994413  0  0  0.139018  0  0.993212  0  0.126669  0  0.115351  0.133213  0  0.995616  0
H  H44  1  0.15743660  0.27830959  0.46826930  1  0  0.119201  0  0.92651  0  0  0.130779  0  0.981282  0  0  0.134549  0  0.9796  0  0.091044  0  0.115244  0.128044  0  0.982724  0
H  H45  1  0.34256247  0.72169114  0.96826930  1  0  0.119194  0  0.926501  0  0  0.130773  0  0.981272  0  0  0.134543  0  0.979591  0  0.091039  0  0.115246  0.128037  0  0.982715  0
H  H46  1  0.84256387  0.77830941  0.03173070  1  0  0.119202  0  0.926488  0  0  0.130783  0  0.981259  0  0  0.134553  0  0.979577  0  0.091039  0  0.115242  0.128047  0  0.982702  0
H  H47  1  0.65743683  0.22169024  0.53173008  1  0  0.11921  0  0.926496  0  0  0.130789  0  0.981264  0  0  0.13456  0  0.979583  0  0.091053  0  0.115246  0.128054  0  0.982706  0
H  H48  1  0.35521832  0.33377257  0.35942644  1  0  0.078129  0  0.978539  0  0  0.083193  0  1.050534  0  0  0.085502  0  1.049008  0  0.121522  0  0.114062  0.081392  0  1.051977  0
H  H49  1  0.14478075  0.66622816  0.85942644  1  0  0.078138  0  0.978509  0  0  0.083194  0  1.050514  0  0  0.08551  0  1.048972  0  0.121517  0  0.114072  0.081394  0  1.051956  0
H  H50  1  0.64478098  0.83377239  0.14057294  1  0  0.078135  0  0.978509  0  0  0.083196  0  1.050505  0  0  0.085506  0  1.048979  0  0.121514  0  0.114067  0.081396  0  1.051948  0
H  H51  1  0.85521972  0.16622833  0.64057294  1  0  0.078134  0  0.978513  0  0  0.083195  0  1.05051  0  0  0.085504  0  1.048984  0  0.121513  0  0.114061  0.081394  0  1.051954  0
C  C52  1  0.66677038  0.29486390  0.74968256  1  0  0.685777  0  3.856737  0  0  0.643754  0  4.149162  0  0  0.676901  0  4.144481  0  1.532268  0  0.193177  0.621215  0  4.150981  0
C  C53  1  0.83322914  0.70513469  0.24968256  1  0  0.685689  0  3.856913  0  0  0.643659  0  4.149329  0  0  0.676805  0  4.144649  0  1.532263  0  0.193092  0.621122  0  4.151145  0
C  C54  1  0.33322891  0.79486372  0.75031744  1  0  0.685713  0  3.856824  0  0  0.643712  0  4.149193  0  0  0.676858  0  4.144515  0  1.532267  0  0.193155  0.621175  0  4.151011  0
C  C55  1  0.16677015  0.20513593  0.25031682  1  0  0.685658  0  3.856754  0  0  0.643657  0  4.149136  0  0  0.676803  0  4.144457  0  1.532254  0  0.193135  0.62112  0  4.150954  0
C  C56  1  0.50088758  0.24515600  0.73170521  1  0  -0.254  0  3.661696  0  0  -0.291834  0  3.911774  0  0  -0.29822  0  3.920915  0  -0.050632  0  -0.16716  -0.287692  0  3.906247  0
C  C57  1  0.99911195  0.75484258  0.23170583  1  0  -0.254046  0  3.661687  0  0  -0.291824  0  3.911682  0  0  -0.298215  0  3.92083  0  -0.050611  0  -0.167173  -0.287689  0  3.906164  0
C  C58  1  0.49911171  0.74515690  0.76829479  1  0  -0.253981  0  3.661738  0  0  -0.291748  0  3.911716  0  0  -0.298131  0  3.920855  0  -0.050622  0  -0.167136  -0.287617  0  3.906203  0
C  C59  1  0.00088852  0.25484382  0.26829479  1  0  -0.253971  0  3.66165  0  0  -0.291759  0  3.91167  0  0  -0.298141  0  3.920808  0  -0.050634  0  -0.167158  -0.287624  0  3.906154  0
C  C60  1  0.38814974  0.37098416  0.72007226  1  0  -0.110502  0  3.645274  0  0  -0.155556  0  3.901036  0  0  -0.1558  0  3.913373  0  -0.012482  0  -0.160041  -0.154984  0  3.892708  0
C  C61  1  0.11185049  0.62901550  0.22007163  1  0  -0.110512  0  3.645247  0  0  -0.155567  0  3.901026  0  0  -0.155814  0  3.913364  0  -0.012456  0  -0.16003  -0.154993  0  3.8927  0
C  C62  1  0.61184955  0.87098398  0.77992837  1  0  -0.110499  0  3.645255  0  0  -0.155572  0  3.900998  0  0  -0.155817  0  3.913332  0  -0.012443  0  -0.160037  -0.154999  0  3.892672  0
C  C63  1  0.88814997  0.12901567  0.27992837  1  0  -0.110506  0  3.645242  0  0  -0.155575  0  3.900991  0  0  -0.155821  0  3.913328  0  -0.012442  0  -0.160036  -0.155001  0  3.892666  0
C  C64  1  0.25071245  0.33626091  0.66230483  1  0  0.014491  0  3.638345  0  0  -0.001607  0  3.876736  0  0  -0.002391  0  3.890332  0  0.25257  0  -0.005387  -0.001  0  3.866917  0
C  C65  1  0.24928778  0.66373875  0.16230483  1  0  0.014491  0  3.638348  0  0  -0.001656  0  3.876798  0  0  -0.00244  0  3.890393  0  0.252531  0  -0.005394  -0.001049  0  3.866977  0
C  C66  1  0.74928801  0.83626073  0.83769579  1  0  0.014465  0  3.638415  0  0  -0.00162  0  3.876818  0  0  -0.002406  0  3.890412  0  0.252548  0  -0.005404  -0.001011  0  3.866997  0
C  C67  1  0.75071152  0.16373892  0.33769517  1  0  0.014473  0  3.638358  0  0  -0.001621  0  3.876755  0  0  -0.002406  0  3.890352  0  0.252527  0  -0.005387  -0.001014  0  3.866935  0
C  C68  1  0.17199942  0.19362897  0.68434389  1  0  0.628303  0  3.869165  0  0  0.581086  0  4.166311  0  0  0.613495  0  4.162638  0  1.540277  0  0.192147  0.55918  0  4.167778  0
C  C69  1  0.32800081  0.80637175  0.18434327  1  0  0.628329  0  3.869181  0  0  0.581152  0  4.166282  0  0  0.613561  0  4.16261  0  1.540286  0  0.192154  0.559246  0  4.16775  0
C  C70  1  0.82799987  0.69362880  0.81565611  1  0  0.62831  0  3.869207  0  0  0.581079  0  4.166365  0  0  0.613491  0  4.162691  0  1.540261  0  0.192158  0.559174  0  4.167831  0
C  C71  1  0.67199966  0.30637086  0.31565673  1  0  0.628352  0  3.8691  0  0  0.581124  0  4.166261  0  0  0.613533  0  4.16259  0  1.540271  0  0.192136  0.559218  0  4.167728  0
C  C72  1  0.04326354  0.46629804  0.58653082  1  0  -0.013415  0  3.65258  0  0  -0.078898  0  3.912742  0  0  -0.074268  0  3.921616  0  0.276881  0  -0.063341  -0.081669  0  3.906592  0
C  C73  1  0.45673669  0.53370269  0.08653144  1  0  -0.013415  0  3.652588  0  0  -0.078893  0  3.912747  0  0  -0.074263  0  3.921621  0  0.276879  0  -0.063318  -0.081666  0  3.906597  0
C  C74  1  0.95673692  0.96629786  0.91346856  1  0  -0.013379  0  3.652552  0  0  -0.07882  0  3.912696  0  0  -0.07419  0  3.921568  0  0.27686  0  -0.063307  -0.081591  0  3.906546  0
C  C75  1  0.54326261  0.03370179  0.41346856  1  0  -0.013418  0  3.652549  0  0  -0.078875  0  3.91271  0  0  -0.074245  0  3.921584  0  0.276876  0  -0.063316  -0.081647  0  3.90656  0
C  C76  1  0.31283158  0.65761640  0.43521474  1  0  0.134602  0  3.722439  0  0  0.103758  0  3.973694  0  0  0.111033  0  3.992164  0  0.475804  0  0.050199  0.099136  0  3.961167  0
C  C77  1  0.18716865  0.34238432  0.93521474  1  0  0.134543  0  3.722459  0  0  0.103717  0  3.973694  0  0  0.110992  0  3.992163  0  0.475801  0  0.050188  0.099094  0  3.961167  0
C  C78  1  0.68716888  0.15761551  0.06478526  1  0  0.134583  0  3.722431  0  0  0.103741  0  3.973692  0  0  0.111016  0  3.992163  0  0.475819  0  0.050215  0.099117  0  3.961165  0
C  C79  1  0.81283065  0.84238415  0.56478526  1  0  0.134567  0  3.72245  0  0  0.103721  0  3.973713  0  0  0.110996  0  3.992184  0  0.47581  0  0.050196  0.099099  0  3.961185  0
C  C80  1  0.20584747  0.63599013  0.49908593  1  0  -0.146836  0  3.673355  0  0  -0.165155  0  3.915598  0  0  -0.171972  0  3.935493  0  -0.020928  0  -0.074463  -0.160724  0  3.902293  0
C  C81  1  0.29415277  0.36400953  0.99908531  1  0  -0.146815  0  3.673332  0  0  -0.165135  0  3.915569  0  0  -0.171951  0  3.935463  0  -0.020932  0  -0.074447  -0.1607  0  3.902261  0
C  C82  1  0.79415417  0.13599030  0.00091407  1  0  -0.146823  0  3.673314  0  0  -0.165138  0  3.915554  0  0  -0.171954  0  3.935447  0  -0.020935  0  -0.074451  -0.160702  0  3.902245  0
C  C83  1  0.70584653  0.86400935  0.50091407  1  0  -0.146821  0  3.673279  0  0  -0.165135  0  3.915514  0  0  -0.171952  0  3.935408  0  -0.020942  0  -0.074437  -0.160699  0  3.902205  0
C  C84  1  0.14708692  0.49798581  0.51306873  1  0  0.128391  0  3.704232  0  0  0.145486  0  3.941653  0  0  0.149677  0  3.96347  0  -0.013789  0  0.014351  0.142715  0  3.926749  0
C  C85  1  0.35291331  0.50201384  0.01306935  1  0  0.128366  0  3.704191  0  0  0.145459  0  3.941612  0  0  0.149649  0  3.963433  0  -0.013759  0  0.014353  0.142688  0  3.926707  0
C  C86  1  0.85291355  0.99798564  0.98693127  1  0  0.128376  0  3.704231  0  0  0.145466  0  3.941657  0  0  0.149659  0  3.96347  0  -0.013787  0  0.014359  0.142695  0  3.926752  0
C  C87  1  0.64708715  0.00201401  0.48693127  1  0  0.128378  0  3.704181  0  0  0.145473  0  3.9416  0  0  0.149665  0  3.963414  0  -0.013777  0  0.014344  0.142701  0  3.926696  0
C  C88  1  0.19998019  0.38780293  0.46107985  1  0  -0.164263  0  3.706599  0  0  -0.182254  0  3.955217  0  0  -0.189245  0  3.974639  0  -0.037481  0  -0.078686  -0.177714  0  3.942236  0
C  C89  1  0.30001887  0.61219779  0.96107923  1  0  -0.164249  0  3.706577  0  0  -0.182243  0  3.9552  0  0  -0.189234  0  3.974624  0  -0.037472  0  -0.078716  -0.177702  0  3.942217  0
C  C90  1  0.80002027  0.88780276  0.03892015  1  0  -0.164263  0  3.706567  0  0  -0.182255  0  3.955184  0  0  -0.189246  0  3.974606  0  -0.037476  0  -0.078687  -0.177716  0  3.942205  0
C  C91  1  0.69998042  0.11219690  0.53892015  1  0  -0.164265  0  3.706594  0  0  -0.182255  0  3.955212  0  0  -0.189247  0  3.974633  0  -0.037486  0  -0.078687  -0.177715  0  3.942232  0
C  C92  1  0.31065653  0.41772938  0.40008643  1  0  0.125938  0  3.718429  0  0  0.092723  0  3.974912  0  0  0.099606  0  3.993761  0  0.469674  0  0.042931  0.088179  0  3.962485  0
C  C93  1  0.18934371  0.58227027  0.90008643  1  0  0.125929  0  3.718502  0  0  0.092724  0  3.974973  0  0  0.099607  0  3.993825  0  0.469665  0  0.042931  0.088179  0  3.962547  0
C  C94  1  0.68934277  0.91772921  0.09991357  1  0  0.125945  0  3.718373  0  0  0.092732  0  3.974862  0  0  0.099616  0  3.993709  0  0.469677  0  0.042929  0.088187  0  3.962435  0
C  C95  1  0.81065676  0.08227044  0.59991357  1  0  0.125897  0  3.718488  0  0  0.092689  0  3.974971  0  0  0.099573  0  3.993819  0  0.469681  0  0.042899  0.088145  0  3.962545  0
N  N96  1  0.13580190  0.45394414  0.66416593  1  0  -0.435661  0  3.190216  0  0  -0.366146  0  3.441719  0  0  -0.386891  0  3.45347  0  -1.054921  0  -0.474002  -0.35182  0  3.432878  0
N  N97  1  0.36419834  0.54605551  0.16416593  1  0  -0.435682  0  3.190236  0  0  -0.366163  0  3.441758  0  0  -0.386911  0  3.453517  0  -1.054936  0  -0.474037  -0.351833  0  3.432913  0
N  N98  1  0.86419740  0.95394397  0.83583470  1  0  -0.435727  0  3.190315  0  0  -0.366232  0  3.441828  0  0  -0.386988  0  3.453605  0  -1.054845  0  -0.474053  -0.351908  0  3.43299  0
N  N99  1  0.63580213  0.04605569  0.33583407  1  0  -0.435677  0  3.190223  0  0  -0.366166  0  3.441729  0  0  -0.386913  0  3.453487  0  -1.054852  0  -0.474031  -0.351837  0  3.432885  0
N  N100  1  0.36645066  0.55046900  0.38708859  1  0  -0.339167  0  3.279561  0  0  -0.261129  0  3.545377  0  0  -0.281137  0  3.563799  0  -1.229206  0  -0.33183  -0.247751  0  3.532778  0
N  N101  1  0.13354840  0.44953173  0.88708859  1  0  -0.339131  0  3.279625  0  0  -0.261104  0  3.545434  0  0  -0.281114  0  3.563858  0  -1.229224  0  -0.3318  -0.247728  0  3.532837  0
N  N102  1  0.63354864  0.05046917  0.11291141  1  0  -0.339189  0  3.279581  0  0  -0.261157  0  3.545407  0  0  -0.281165  0  3.563828  0  -1.229217  0  -0.331844  -0.24778  0  3.532809  0
N  N103  1  0.86645089  0.94953048  0.61291203  1  0  -0.339148  0  3.279653  0  0  -0.261116  0  3.545476  0  0  -0.281124  0  3.563897  0  -1.229215  0  -0.33181  -0.247739  0  3.532878  0
O  O104  1  0.72777389  0.38531138  0.69945031  1  0  -0.651556  0  1.913374  0  0  -0.589128  0  2.146574  0  0  -0.61853  0  2.13787  0  -1.171778  0  -0.345617  -0.568594  0  2.151477  0
O  O105  1  0.77222681  0.61468827  0.19945094  1  0  -0.651488  0  1.913462  0  0  -0.589057  0  2.146659  0  0  -0.618455  0  2.13795  0  -1.171791  0  -0.345555  -0.568523  0  2.15156  0
O  O106  1  0.27222658  0.88531228  0.80054906  1  0  -0.651547  0  1.913428  0  0  -0.589126  0  2.146615  0  0  -0.618526  0  2.137906  0  -1.171772  0  -0.345607  -0.568591  0  2.151516  0
O  O107  1  0.22777366  0.11468845  0.30054906  1  0  -0.651473  0  1.913347  0  0  -0.589055  0  2.146538  0  0  -0.618454  0  2.137828  0  -1.171768  0  -0.345557  -0.568521  0  2.151438  0
O  O108  1  0.74052456  0.24481552  0.81223985  1  0  -0.656978  0  1.937513  0  0  -0.597278  0  2.167908  0  0  -0.624309  0  2.158507  0  -1.188874  0  -0.336343  -0.578216  0  2.17302  0
O  O109  1  0.75947497  0.75518414  0.31223985  1  0  -0.656951  0  1.937558  0  0  -0.597252  0  2.167949  0  0  -0.624285  0  2.15855  0  -1.18887  0  -0.336321  -0.57819  0  2.173057  0
O  O110  1  0.25947474  0.74481748  0.68776015  1  0  -0.656929  0  1.937533  0  0  -0.597265  0  2.167945  0  0  -0.624295  0  2.158545  0  -1.188879  0  -0.336341  -0.578203  0  2.173056  0
O  O111  1  0.24052433  0.25518324  0.18776015  1  0  -0.656958  0  1.937548  0  0  -0.597281  0  2.167948  0  0  -0.624311  0  2.158547  0  -1.188878  0  -0.33637  -0.578219  0  2.173059  0
O  O112  1  0.07227448  0.19079586  0.74420373  1  0  -0.667581  0  2.011067  0  0  -0.59565  0  2.267956  0  0  -0.627117  0  2.258484  0  -1.164002  0  -0.336752  -0.573753  0  2.273764  0
O  O113  1  0.42772458  0.80920379  0.24420373  1  0  -0.667599  0  2.0111  0  0  -0.595667  0  2.267961  0  0  -0.627134  0  2.258489  0  -1.163989  0  -0.336743  -0.57377  0  2.27377  0
O  O114  1  0.92772482  0.69079569  0.75579627  1  0  -0.66757  0  2.01108  0  0  -0.595621  0  2.267959  0  0  -0.62709  0  2.258488  0  -1.163991  0  -0.336738  -0.573725  0  2.273768  0
O  O115  1  0.57227471  0.30920397  0.25579627  1  0  -0.667605  0  2.01107  0  0  -0.595663  0  2.267954  0  0  -0.627131  0  2.258484  0  -1.163989  0  -0.336746  -0.573765  0  2.273763  0
O  O116  1  0.20905152  0.08407138  0.64289729  1  0  -0.610713  0  1.913896  0  0  -0.558725  0  2.138299  0  0  -0.584979  0  2.130467  0  -1.162983  0  -0.331413  -0.540115  0  2.14253  0
O  O117  1  0.29094754  0.91592934  0.14289729  1  0  -0.610723  0  1.913925  0  0  -0.558746  0  2.138311  0  0  -0.584999  0  2.13048  0  -1.163006  0  -0.331422  -0.540135  0  2.142542  0
O  O118  1  0.79094894  0.58407014  0.85710333  1  0  -0.61072  0  1.913885  0  0  -0.558732  0  2.1383  0  0  -0.584984  0  2.130463  0  -1.163004  0  -0.331435  -0.540121  0  2.14253  0
O  O119  1  0.70905176  0.41592844  0.35710271  1  0  -0.610734  0  1.913854  0  0  -0.558744  0  2.138264  0  0  -0.584996  0  2.130434  0  -1.162989  0  -0.33141  -0.540133  0  2.142495  0
