# generated using pymatgen
data_ZnH12C15N3O4
_symmetry_space_group_name_H-M   'P 1'
_cell_length_a   8.55301437
_cell_length_b   10.82709680
_cell_length_c   15.74467651
_cell_angle_alpha   102.34085278
_cell_angle_beta   90.00000708
_cell_angle_gamma   89.99979342
_symmetry_Int_Tables_number   1
_chemical_formula_structural   ZnH12C15N3O4
_chemical_formula_sum   'Zn4 H48 C60 N12 O16'
_cell_volume   1424.33502157
_cell_formula_units_Z   4
loop_
 _symmetry_equiv_pos_site_id
 _symmetry_equiv_pos_as_xyz
  1  'x, y, z'
loop_
 _atom_site_type_symbol
 _atom_site_label
 _atom_site_symmetry_multiplicity
 _atom_site_fract_x
 _atom_site_fract_y
 _atom_site_fract_z
 _atom_site_occupancy
 _atom_site_hle17_bader_spin_density
 _atom_site_hle17_ddec_charge
 _atom_site_hle17_ddec_spin_density
 _atom_site_hle17_ddec_sum_bond_order
 _atom_site_hle17_magmom
 _atom_site_hse06_10hf_bader_spin_density
 _atom_site_hse06_10hf_ddec_charge
 _atom_site_hse06_10hf_ddec_spin_density
 _atom_site_hse06_10hf_ddec_sum_bond_order
 _atom_site_hse06_10hf_magmom
 _atom_site_hse06_bader_spin_density
 _atom_site_hse06_ddec_charge
 _atom_site_hse06_ddec_spin_density
 _atom_site_hse06_ddec_sum_bond_order
 _atom_site_hse06_magmom
 _atom_site_pbe_bader_spin_density
 _atom_site_pbe_cm5_charge
 _atom_site_pbe_ddec_charge
 _atom_site_pbe_ddec_spin_density
 _atom_site_pbe_ddec_sum_bond_order
 _atom_site_pbe_magmom
Zn  Zn0  1  0.52507091  0.11372480  0.88530833  1  0  0.979999  0  1.840968  0  0  0.782288  0  2.316664  0  0  0.830313  0  2.263173  0  0  0.692775  0.749415  0  2.352322  0
Zn  Zn1  1  0.02507459  0.88627369  0.61469071  1  0  0.97995  0  1.840922  0  0  0.782258  0  2.316614  0  0  0.83026  0  2.263155  0  0  0.692792  0.749387  0  2.352277  0
Zn  Zn2  1  0.47493111  0.88627539  0.11469362  1  0  0.979986  0  1.840956  0  0  0.782288  0  2.316654  0  0  0.83032  0  2.263149  0  0  0.692775  0.749415  0  2.352313  0
Zn  Zn3  1  0.97492743  0.11372462  0.38530525  1  0  0.979991  0  1.840914  0  0  0.782291  0  2.316617  0  0  0.830296  0  2.263165  0  0  0.692774  0.74942  0  2.352282  0
H  H4  1  0.70488401  0.39002789  0.56844117  1  0  0.111149  0  0.949001  0  0  0.121707  0  1.00937  0  0  0.1248  0  1.007645  0  0  0.109358  0.119463  0  1.010713  0
H  H5  1  0.20488206  0.60997291  0.93155949  1  0  0.111142  0  0.949044  0  0  0.1217  0  1.0094  0  0  0.124793  0  1.007673  0  0  0.109355  0.119457  0  1.010743  0
H  H6  1  0.29511216  0.60997324  0.43156156  1  0  0.111116  0  0.949016  0  0  0.121672  0  1.009388  0  0  0.124766  0  1.007662  0  0  0.109338  0.119429  0  1.010732  0
H  H7  1  0.79511644  0.39002539  0.06843964  1  0  0.111124  0  0.949023  0  0  0.121683  0  1.009388  0  0  0.124777  0  1.007661  0  0  0.109359  0.119439  0  1.010731  0
H  H8  1  0.67972570  0.34699492  0.40992066  1  0  0.100678  0  0.980972  0  0  0.10958  0  1.045804  0  0  0.111735  0  1.045816  0  0  0.105753  0.108031  0  1.045813  0
H  H9  1  0.17972578  0.65300878  0.09008129  1  0  0.100723  0  0.980848  0  0  0.109605  0  1.045685  0  0  0.111757  0  1.045711  0  0  0.105747  0.108056  0  1.045695  0
H  H10  1  0.32027047  0.65300810  0.59008361  1  0  0.100785  0  0.98087  0  0  0.109645  0  1.045728  0  0  0.111792  0  1.045765  0  0  0.105782  0.108095  0  1.045738  0
H  H11  1  0.82027389  0.34699141  0.90991876  1  0  0.100694  0  0.980888  0  0  0.109585  0  1.045726  0  0  0.111736  0  1.045752  0  0  0.105735  0.108035  0  1.045736  0
H  H12  1  0.45759754  0.13445718  0.69642820  1  0  0.097213  0  0.979423  0  0  0.103449  0  1.047314  0  0  0.106789  0  1.043729  0  0  0.115734  0.100891  0  1.050059  0
H  H13  1  0.95759736  0.86554099  0.80356890  1  0  0.097204  0  0.979504  0  0  0.103482  0  1.047354  0  0  0.106828  0  1.043769  0  0  0.115721  0.100922  0  1.0501  0
H  H14  1  0.54241032  0.86554301  0.30357375  1  0  0.097195  0  0.979506  0  0  0.103446  0  1.047388  0  0  0.10678  0  1.043802  0  0  0.115748  0.100887  0  1.050131  0
H  H15  1  0.04240115  0.13445731  0.19642960  1  0  0.097218  0  0.979515  0  0  0.103454  0  1.047407  0  0  0.106795  0  1.043821  0  0  0.115737  0.100897  0  1.050146  0
H  H16  1  0.45044292  0.30672347  0.61667424  1  0  0.112057  0  0.991163  0  0  0.11947  0  1.057039  0  0  0.122594  0  1.056364  0  0  0.107784  0.117147  0  1.057867  0
H  H17  1  0.95044006  0.69327661  0.88332441  1  0  0.112042  0  0.991224  0  0  0.119432  0  1.057127  0  0  0.122564  0  1.056441  0  0  0.107783  0.117112  0  1.057947  0
H  H18  1  0.54955909  0.69327766  0.38333039  1  0  0.111979  0  0.991213  0  0  0.119398  0  1.057108  0  0  0.122508  0  1.056448  0  0  0.107721  0.117074  0  1.057935  0
H  H19  1  0.04955611  0.30672264  0.11667232  1  0  0.112038  0  0.991121  0  0  0.119435  0  1.057028  0  0  0.122561  0  1.056348  0  0  0.107756  0.117113  0  1.057855  0
H  H20  1  0.57723041  0.56593283  0.85813487  1  0  0.138452  0  0.989813  0  0  0.143278  0  1.054838  0  0  0.148028  0  1.052524  0  0  0.107879  0.139993  0  1.056489  0
H  H21  1  0.07722918  0.43406267  0.64186500  1  0  0.138401  0  0.989822  0  0  0.143229  0  1.054856  0  0  0.147979  0  1.052542  0  0  0.10786  0.139944  0  1.056509  0
H  H22  1  0.42277160  0.43406736  0.14186899  1  0  0.138498  0  0.989797  0  0  0.14331  0  1.054837  0  0  0.148062  0  1.052516  0  0  0.107881  0.140023  0  1.05649  0
H  H23  1  0.92276699  0.56593469  0.35813336  1  0  0.138459  0  0.989788  0  0  0.143286  0  1.054812  0  0  0.148038  0  1.052493  0  0  0.107887  0.140002  0  1.056464  0
H  H24  1  0.55845149  0.38648697  0.92878791  1  0  0.095816  0  0.928885  0  0  0.105321  0  0.988086  0  0  0.108384  0  0.984498  0  0  0.123773  0.103045  0  0.990704  0
H  H25  1  0.05845292  0.61350575  0.57121091  1  0  0.095829  0  0.928865  0  0  0.105349  0  0.988053  0  0  0.108416  0  0.984456  0  0  0.123772  0.103072  0  0.990673  0
H  H26  1  0.44155169  0.61351132  0.07121440  1  0  0.095748  0  0.928876  0  0  0.105281  0  0.988063  0  0  0.108346  0  0.98447  0  0  0.123753  0.103005  0  0.990684  0
H  H27  1  0.94154442  0.38648972  0.42878780  1  0  0.095838  0  0.928851  0  0  0.105336  0  0.988058  0  0  0.108401  0  0.984466  0  0  0.123764  0.10306  0  0.990677  0
H  H28  1  0.34484493  0.88772294  0.89341520  1  0  0.099111  0  0.966063  0  0  0.103857  0  1.032688  0  0  0.107226  0  1.029303  0  0  0.119212  0.101255  0  1.035345  0
H  H29  1  0.84485520  0.11227650  0.60658526  1  0  0.099211  0  0.966053  0  0  0.103919  0  1.032722  0  0  0.107289  0  1.029335  0  0  0.119232  0.101323  0  1.035368  0
H  H30  1  0.65514656  0.11227914  0.10658386  1  0  0.099174  0  0.966034  0  0  0.103881  0  1.032706  0  0  0.107251  0  1.029319  0  0  0.119217  0.101281  0  1.035359  0
H  H31  1  0.15514448  0.88772086  0.39341119  1  0  0.099183  0  0.966041  0  0  0.103883  0  1.032718  0  0  0.107252  0  1.02933  0  0  0.119243  0.101285  0  1.035364  0
H  H32  1  0.33572469  0.66063812  0.82060104  1  0  0.113479  0  0.95893  0  0  0.123799  0  1.020256  0  0  0.12663  0  1.02026  0  0  0.109773  0.12177  0  1.020567  0
H  H33  1  0.83572807  0.33935757  0.67939823  1  0  0.113503  0  0.958964  0  0  0.12382  0  1.020279  0  0  0.126667  0  1.020263  0  0  0.109793  0.121791  0  1.020584  0
H  H34  1  0.66427031  0.33936018  0.17939619  1  0  0.113448  0  0.958958  0  0  0.123779  0  1.020272  0  0  0.126607  0  1.020289  0  0  0.109768  0.121751  0  1.020577  0
H  H35  1  0.16426459  0.66063885  0.32059872  1  0  0.113557  0  0.958958  0  0  0.123887  0  1.020276  0  0  0.126724  0  1.02027  0  0  0.109787  0.121858  0  1.020582  0
H  H36  1  0.68734788  0.73805633  0.64166714  1  0  0.125513  0  0.953296  0  0  0.134236  0  1.013981  0  0  0.137189  0  1.014367  0  0  0.113604  0.132116  0  1.013916  0
H  H37  1  0.18735336  0.26194074  0.85833169  1  0  0.125635  0  0.953198  0  0  0.134346  0  1.013896  0  0  0.137302  0  1.014274  0  0  0.113638  0.132227  0  1.013831  0
H  H38  1  0.31265530  0.26194196  0.35833453  1  0  0.12562  0  0.953238  0  0  0.134347  0  1.013928  0  0  0.137303  0  1.014304  0  0  0.113653  0.132228  0  1.013865  0
H  H39  1  0.81264631  0.73805663  0.14166159  1  0  0.125663  0  0.953119  0  0  0.134337  0  1.013858  0  0  0.137279  0  1.014278  0  0  0.113649  0.132217  0  1.013794  0
H  H40  1  0.68439520  0.96174633  0.72227621  1  0  0.083462  0  0.930035  0  0  0.093268  0  0.992333  0  0  0.095432  0  0.989769  0  0  0.120905  0.091412  0  0.994717  0
H  H41  1  0.18440169  0.03825264  0.77772354  1  0  0.083444  0  0.930079  0  0  0.093261  0  0.992349  0  0  0.095423  0  0.98979  0  0  0.120911  0.091407  0  0.994733  0
H  H42  1  0.31560799  0.03825481  0.27772588  1  0  0.083462  0  0.930128  0  0  0.093278  0  0.992411  0  0  0.095442  0  0.989848  0  0  0.120926  0.091423  0  0.994797  0
H  H43  1  0.81559798  0.96174472  0.22227292  1  0  0.083496  0  0.930082  0  0  0.093272  0  0.99241  0  0  0.095436  0  0.989846  0  0  0.120906  0.091418  0  0.994795  0
H  H44  1  0.92433833  0.11901365  0.99210390  1  0  -0.001277  0  0.910422  0  0  0.013456  0  0.97644  0  0  0.013077  0  0.971749  0  0  0.101532  0.013693  0  0.979726  0
H  H45  1  0.42434317  0.88098651  0.50789350  1  0  -0.001278  0  0.910359  0  0  0.013432  0  0.976414  0  0  0.013054  0  0.971721  0  0  0.101506  0.013666  0  0.979695  0
H  H46  1  0.07566368  0.88098464  0.00789905  1  0  -0.001278  0  0.910431  0  0  0.013497  0  0.976402  0  0  0.013121  0  0.971708  0  0  0.101527  0.013731  0  0.979691  0
H  H47  1  0.57566936  0.11902028  0.49211451  1  0  -0.001415  0  0.91036  0  0  0.013375  0  0.976352  0  0  0.012995  0  0.97166  0  0  0.101488  0.013615  0  0.979623  0
H  H48  1  0.20837877  0.17585908  0.06066838  1  0  -0.008668  0  0.948087  0  0  0.005144  0  1.018706  0  0  0.004478  0  1.014897  0  0  0.097126  0.005493  0  1.021397  0
H  H49  1  0.70836830  0.82414737  0.43933842  1  0  -0.008596  0  0.948013  0  0  0.005124  0  1.01871  0  0  0.004477  0  1.014881  0  0  0.097129  0.005478  0  1.021392  0
H  H50  1  0.79162441  0.82414206  0.93933435  1  0  -0.008621  0  0.948045  0  0  0.005177  0  1.018672  0  0  0.004522  0  1.014854  0  0  0.09714  0.005527  0  1.021362  0
H  H51  1  0.29163254  0.17585945  0.56065753  1  0  -0.008518  0  0.948053  0  0  0.005164  0  1.018784  0  0  0.004522  0  1.014952  0  0  0.097148  0.005518  0  1.021468  0
C  C52  1  0.51236094  0.52444500  0.59043810  1  0  0.178323  0  3.778161  0  0  0.173739  0  4.023596  0  0  0.179455  0  4.04546  0  0  0.091206  0.16992  0  4.008737  0
C  C53  1  0.01235960  0.47555541  0.90956186  1  0  0.178253  0  3.778193  0  0  0.173667  0  4.023631  0  0  0.179382  0  4.045498  0  0  0.091183  0.169846  0  4.008771  0
C  C54  1  0.48763289  0.47555613  0.40956526  1  0  0.178132  0  3.778071  0  0  0.173692  0  4.023371  0  0  0.179409  0  4.045233  0  0  0.091188  0.169872  0  4.008514  0
C  C55  1  0.98763657  0.52444573  0.09043516  1  0  0.178322  0  3.777911  0  0  0.173668  0  4.023445  0  0  0.179384  0  4.045307  0  0  0.091195  0.169848  0  4.008586  0
C  C56  1  0.61438130  0.43845969  0.53941915  1  0  -0.124159  0  3.732602  0  0  -0.144937  0  3.983798  0  0  -0.147845  0  4.003629  0  0  -0.084117  -0.142948  0  3.970438  0
C  C57  1  0.11438075  0.56154326  0.96057992  1  0  -0.124128  0  3.732545  0  0  -0.144897  0  3.983691  0  0  -0.147805  0  4.003523  0  0  -0.084119  -0.142908  0  3.970327  0
C  C58  1  0.38561487  0.56154049  0.46058154  1  0  -0.123992  0  3.73266  0  0  -0.144814  0  3.983785  0  0  -0.147722  0  4.003613  0  0  -0.084088  -0.142827  0  3.970428  0
C  C59  1  0.88561658  0.43845788  0.03941837  1  0  -0.124106  0  3.73261  0  0  -0.144861  0  3.983798  0  0  -0.147769  0  4.003627  0  0  -0.084138  -0.14287  0  3.970434  0
C  C60  1  0.60060608  0.41402418  0.44951343  1  0  -0.119003  0  3.737217  0  0  -0.14198  0  3.988372  0  0  -0.145429  0  4.010264  0  0  -0.084787  -0.139625  0  3.973678  0
C  C61  1  0.10060529  0.58597691  0.05049003  1  0  -0.119086  0  3.737165  0  0  -0.141949  0  3.988315  0  0  -0.145398  0  4.010197  0  0  -0.084735  -0.139598  0  3.97363  0
C  C62  1  0.39939009  0.58597317  0.55049001  1  0  -0.119229  0  3.737273  0  0  -0.142109  0  3.988442  0  0  -0.145568  0  4.010341  0  0  -0.084808  -0.139754  0  3.973747  0
C  C63  1  0.89939205  0.41402611  0.94951234  1  0  -0.119108  0  3.737331  0  0  -0.142016  0  3.988492  0  0  -0.145468  0  4.010383  0  0  -0.084774  -0.139659  0  3.973795  0
C  C64  1  0.48282468  0.23154767  0.73017515  1  0  0.12704  0  3.724378  0  0  0.096019  0  3.974896  0  0  0.104868  0  3.993237  0  0  0.038234  0.090573  0  3.962388  0
C  C65  1  0.98282260  0.76845042  0.76982068  1  0  0.127025  0  3.724622  0  0  0.095945  0  3.975172  0  0  0.104786  0  3.993522  0  0  0.03825  0.090501  0  3.962663  0
C  C66  1  0.51718318  0.76845156  0.26982857  1  0  0.127109  0  3.724412  0  0  0.096056  0  3.974964  0  0  0.104913  0  3.993296  0  0  0.038268  0.090609  0  3.962452  0
C  C67  1  0.01717473  0.23154788  0.23017402  1  0  0.12701  0  3.724451  0  0  0.09597  0  3.97499  0  0  0.104819  0  3.993328  0  0  0.038223  0.090526  0  3.962482  0
C  C68  1  0.47961856  0.32832158  0.68533249  1  0  -0.221815  0  3.719856  0  0  -0.241123  0  3.977197  0  0  -0.252094  0  3.997166  0  0  -0.09762  -0.234312  0  3.964011  0
C  C69  1  0.97961461  0.67167557  0.81466764  1  0  -0.221821  0  3.719898  0  0  -0.241117  0  3.977275  0  0  -0.252093  0  3.99724  0  0  -0.097623  -0.234305  0  3.964084  0
C  C70  1  0.52038696  0.67167955  0.31466960  1  0  -0.221771  0  3.719964  0  0  -0.241078  0  3.977328  0  0  -0.252038  0  3.997306  0  0  -0.097539  -0.234264  0  3.964135  0
C  C71  1  0.02038039  0.32832367  0.18533227  1  0  -0.221796  0  3.719862  0  0  -0.241078  0  3.977227  0  0  -0.252049  0  3.997193  0  0  -0.097577  -0.234267  0  3.964038  0
C  C72  1  0.51395588  0.45335331  0.72855090  1  0  0.262141  0  3.76733  0  0  0.245529  0  4.020996  0  0  0.261936  0  4.036308  0  0  0.119389  0.234812  0  4.010251  0
C  C73  1  0.01395301  0.54664238  0.77144582  1  0  0.262068  0  3.767461  0  0  0.245481  0  4.021111  0  0  0.261885  0  4.036427  0  0  0.119349  0.234762  0  4.010366  0
C  C74  1  0.48604613  0.54664688  0.27145233  1  0  0.262161  0  3.76731  0  0  0.245542  0  4.021037  0  0  0.26195  0  4.036348  0  0  0.119332  0.234823  0  4.010291  0
C  C75  1  0.98604082  0.45335309  0.22854972  1  0  0.262148  0  3.767314  0  0  0.245494  0  4.021061  0  0  0.2619  0  4.036374  0  0  0.119293  0.234777  0  4.010314  0
C  C76  1  0.54609540  0.47374590  0.81842802  1  0  -0.229741  0  3.686869  0  0  -0.245974  0  3.940975  0  0  -0.256976  0  3.958492  0  0  -0.098983  -0.238916  0  3.929079  0
C  C77  1  0.04609141  0.52624969  0.68157376  1  0  -0.229522  0  3.686839  0  0  -0.245768  0  3.940931  0  0  -0.256769  0  3.958449  0  0  -0.098892  -0.238711  0  3.929035  0
C  C78  1  0.45390896  0.52625429  0.18157457  1  0  -0.229726  0  3.686804  0  0  -0.245943  0  3.940898  0  0  -0.256945  0  3.958417  0  0  -0.098907  -0.238882  0  3.929001  0
C  C79  1  0.95390358  0.47374577  0.31842686  1  0  -0.229748  0  3.686981  0  0  -0.245961  0  3.94108  0  0  -0.256964  0  3.958599  0  0  -0.098984  -0.238903  0  3.929184  0
C  C80  1  0.54068468  0.37230571  0.85885388  1  0  0.149016  0  3.713079  0  0  0.116363  0  3.966177  0  0  0.127237  0  3.980994  0  0  0.044803  0.109481  0  3.955943  0
C  C81  1  0.04068255  0.62769084  0.64114424  1  0  0.148792  0  3.712883  0  0  0.116129  0  3.965986  0  0  0.127004  0  3.980796  0  0  0.044704  0.109253  0  3.955747  0
C  C82  1  0.45932201  0.62769353  0.14114857  1  0  0.14903  0  3.713002  0  0  0.116345  0  3.966105  0  0  0.127218  0  3.980925  0  0  0.044791  0.109461  0  3.955868  0
C  C83  1  0.95931478  0.37230746  0.35885299  1  0  0.148947  0  3.713193  0  0  0.116295  0  3.966273  0  0  0.127168  0  3.981089  0  0  0.044821  0.109415  0  3.956038  0
C  C84  1  0.41853365  0.85094385  0.83723898  1  0  0.148005  0  3.675283  0  0  0.11732  0  3.921922  0  0  0.1258  0  3.938961  0  0  0.050875  0.112217  0  3.910215  0
C  C85  1  0.91854025  0.14904876  0.66275793  1  0  0.147648  0  3.675023  0  0  0.116989  0  3.921694  0  0  0.125458  0  3.93873  0  0  0.050718  0.111891  0  3.909994  0
C  C86  1  0.58146369  0.14905350  0.16275811  1  0  0.147801  0  3.674928  0  0  0.117139  0  3.921603  0  0  0.125618  0  3.938646  0  0  0.050839  0.112036  0  3.909897  0
C  C87  1  0.08145708  0.85094766  0.33723838  1  0  0.147699  0  3.675  0  0  0.117072  0  3.921675  0  0  0.125552  0  3.938714  0  0  0.050707  0.111972  0  3.909968  0
C  C88  1  0.41524270  0.72398669  0.79695543  1  0  -0.192452  0  3.704985  0  0  -0.212532  0  3.957807  0  0  -0.222151  0  3.978797  0  0  -0.084841  -0.206467  0  3.943796  0
C  C89  1  0.91524990  0.27601349  0.70304514  1  0  -0.192382  0  3.70489  0  0  -0.212439  0  3.9577  0  0  -0.222072  0  3.978681  0  0  -0.084814  -0.20637  0  3.943693  0
C  C90  1  0.58475347  0.27601634  0.20304567  1  0  -0.192284  0  3.704808  0  0  -0.212376  0  3.957645  0  0  -0.221999  0  3.978633  0  0  -0.084786  -0.206309  0  3.943637  0
C  C91  1  0.08474627  0.72398198  0.29695231  1  0  -0.192355  0  3.704943  0  0  -0.212492  0  3.957776  0  0  -0.222115  0  3.97876  0  0  -0.084792  -0.206424  0  3.943766  0
C  C92  1  0.51496670  0.67958383  0.72652202  1  0  0.244196  0  3.765568  0  0  0.23399  0  4.01268  0  0  0.246853  0  4.031005  0  0  0.116906  0.225383  0  4.000169  0
C  C93  1  0.01496955  0.32041185  0.77347661  1  0  0.244229  0  3.765615  0  0  0.234006  0  4.012749  0  0  0.246862  0  4.031082  0  0  0.116893  0.225397  0  4.000237  0
C  C94  1  0.48503766  0.32041352  0.27347825  1  0  0.244145  0  3.765595  0  0  0.233955  0  4.012741  0  0  0.246813  0  4.03107  0  0  0.116835  0.225349  0  4.000229  0
C  C95  1  0.98502311  0.67958551  0.22651922  1  0  0.244091  0  3.765852  0  0  0.233932  0  4.012915  0  0  0.246792  0  4.031242  0  0  0.116924  0.225327  0  4.0004  0
C  C96  1  0.61037145  0.76725536  0.69740873  1  0  -0.195603  0  3.687054  0  0  -0.215143  0  3.938265  0  0  -0.225469  0  3.959688  0  0  -0.083392  -0.208703  0  3.924239  0
C  C97  1  0.11037822  0.23274666  0.80259401  1  0  -0.195744  0  3.686883  0  0  -0.215255  0  3.938058  0  0  -0.225581  0  3.959486  0  0  -0.083433  -0.208816  0  3.924033  0
C  C98  1  0.38963056  0.23274860  0.30259696  1  0  -0.195699  0  3.686804  0  0  -0.215239  0  3.938018  0  0  -0.225564  0  3.959446  0  0  -0.083443  -0.208801  0  3.923997  0
C  C99  1  0.88962145  0.76725165  0.19740386  1  0  -0.195721  0  3.687051  0  0  -0.215202  0  3.938223  0  0  -0.225532  0  3.959646  0  0  -0.083484  -0.208762  0  3.924198  0
C  C100  1  0.60764230  0.89248006  0.74162298  1  0  0.174431  0  3.693654  0  0  0.13943  0  3.94953  0  0  0.149493  0  3.965208  0  0  0.058092  0.132614  0  3.939374  0
C  C101  1  0.10765081  0.10751441  0.75837420  1  0  0.174372  0  3.693574  0  0  0.139386  0  3.949462  0  0  0.149438  0  3.965133  0  0  0.058093  0.132576  0  3.93931  0
C  C102  1  0.39235971  0.10751541  0.25837764  1  0  0.174385  0  3.693551  0  0  0.139358  0  3.949466  0  0  0.149419  0  3.965146  0  0  0.058068  0.132542  0  3.939312  0
C  C103  1  0.89234769  0.89248390  0.24162049  1  0  0.174302  0  3.693621  0  0  0.139327  0  3.949488  0  0  0.149391  0  3.96516  0  0  0.058118  0.132514  0  3.939334  0
C  C104  1  0.82928883  0.10336357  0.94265688  1  0  0.563795  0  3.968888  0  0  0.494582  0  4.278435  0  0  0.528224  0  4.2704  0  0  0.129262  0.471663  0  4.282844  0
C  C105  1  0.32929361  0.89664158  0.55734633  1  0  0.56384  0  3.96903  0  0  0.494662  0  4.278536  0  0  0.528297  0  4.270506  0  0  0.129321  0.471748  0  4.282941  0
C  C106  1  0.17071201  0.89663661  0.05734698  1  0  0.563731  0  3.968918  0  0  0.494524  0  4.278467  0  0  0.52816  0  4.27044  0  0  0.129302  0.471608  0  4.28287  0
C  C107  1  0.67071541  0.10336522  0.44265851  1  0  0.564147  0  3.968918  0  0  0.494903  0  4.278479  0  0  0.528537  0  4.270447  0  0  0.129375  0.471989  0  4.282888  0
C  C108  1  0.29828269  0.19799235  0.01508383  1  0  0.558487  0  3.977701  0  0  0.490833  0  4.282753  0  0  0.523712  0  4.275783  0  0  0.124546  0.468617  0  4.286564  0
C  C109  1  0.79828052  0.80200911  0.48491970  1  0  0.558316  0  3.978016  0  0  0.49074  0  4.282995  0  0  0.523608  0  4.276022  0  0  0.124521  0.468524  0  4.286803  0
C  C110  1  0.70171816  0.80200311  0.98491806  1  0  0.558413  0  3.977917  0  0  0.490771  0  4.282972  0  0  0.523641  0  4.276002  0  0  0.12448  0.468555  0  4.286781  0
C  C111  1  0.20172500  0.19799488  0.51507583  1  0  0.55827  0  3.977946  0  0  0.49073  0  4.282872  0  0  0.523594  0  4.275902  0  0  0.124458  0.468513  0  4.286684  0
N  N112  1  0.51854818  0.55072624  0.68350336  1  0  -0.231512  0  3.436691  0  0  -0.152918  0  3.654311  0  0  -0.173798  0  3.674594  0  0  -0.239497  -0.138813  0  3.639941  0
N  N113  1  0.01855045  0.44927132  0.81649808  1  0  -0.231536  0  3.436677  0  0  -0.15297  0  3.654338  0  0  -0.17385  0  3.674622  0  0  -0.239498  -0.138859  0  3.639961  0
N  N114  1  0.48145032  0.44927301  0.31649845  1  0  -0.231499  0  3.436457  0  0  -0.152988  0  3.654136  0  0  -0.173869  0  3.674421  0  0  -0.239485  -0.138882  0  3.639767  0
N  N115  1  0.98144338  0.55072792  0.18350120  1  0  -0.231562  0  3.436477  0  0  -0.152985  0  3.654197  0  0  -0.173864  0  3.674479  0  0  -0.239521  -0.138876  0  3.639819  0
N  N116  1  0.51278134  0.25185645  0.81638912  1  0  -0.371024  0  3.330185  0  0  -0.286651  0  3.619823  0  0  -0.30809  0  3.63245  0  0  -0.350037  -0.27262  0  3.610958  0
N  N117  1  0.01277867  0.74813923  0.68361077  1  0  -0.370833  0  3.330193  0  0  -0.286442  0  3.619833  0  0  -0.307878  0  3.63246  0  0  -0.349962  -0.272412  0  3.610964  0
N  N118  1  0.48722652  0.74814373  0.18361284  1  0  -0.371049  0  3.330138  0  0  -0.286645  0  3.619786  0  0  -0.308082  0  3.632404  0  0  -0.350086  -0.272619  0  3.610934  0
N  N119  1  0.98721750  0.25185907  0.31638963  1  0  -0.370941  0  3.330137  0  0  -0.286548  0  3.619767  0  0  -0.307984  0  3.632391  0  0  -0.350006  -0.272518  0  3.610907  0
N  N120  1  0.51506550  0.93435852  0.81119797  1  0  -0.342845  0  3.291146  0  0  -0.256474  0  3.569806  0  0  -0.277083  0  3.58284  0  0  -0.333787  -0.242913  0  3.560673  0
N  N121  1  0.01507535  0.06563999  0.68880362  1  0  -0.342472  0  3.290784  0  0  -0.256155  0  3.569498  0  0  -0.276731  0  3.582504  0  0  -0.333643  -0.242613  0  3.560381  0
N  N122  1  0.48493067  0.06564072  0.18880448  1  0  -0.342707  0  3.290988  0  0  -0.256308  0  3.569607  0  0  -0.276917  0  3.582645  0  0  -0.333733  -0.242748  0  3.56047  0
N  N123  1  0.98492316  0.93435736  0.31119411  1  0  -0.342533  0  3.290868  0  0  -0.256177  0  3.569494  0  0  -0.276784  0  3.58253  0  0  -0.333642  -0.242626  0  3.560366  0
O  O124  1  0.70050019  0.16217408  0.96861013  1  0  -0.619045  0  2.082036  0  0  -0.541215  0  2.36025  0  0  -0.570237  0  2.345265  0  0  -0.338444  -0.520535  0  2.369471  0
O  O125  1  0.20050406  0.83782578  0.53138848  1  0  -0.619103  0  2.081955  0  0  -0.541296  0  2.360148  0  0  -0.570316  0  2.345163  0  0  -0.338461  -0.520616  0  2.369368  0
O  O126  1  0.29949715  0.83781947  0.03139592  1  0  -0.61903  0  2.081936  0  0  -0.541267  0  2.360182  0  0  -0.57029  0  2.345198  0  0  -0.33849  -0.520585  0  2.3694  0
O  O127  1  0.79950613  0.16218103  0.46861191  1  0  -0.619211  0  2.081768  0  0  -0.541426  0  2.360061  0  0  -0.570448  0  2.345076  0  0  -0.338547  -0.520745  0  2.369282  0
O  O128  1  0.85315308  0.03461130  0.86977662  1  0  -0.596161  0  2.016198  0  0  -0.548194  0  2.257986  0  0  -0.572868  0  2.251456  0  0  -0.326843  -0.530572  0  2.261723  0
O  O129  1  0.35315874  0.96538435  0.63021820  1  0  -0.596134  0  2.016449  0  0  -0.548159  0  2.258213  0  0  -0.572824  0  2.251685  0  0  -0.326876  -0.530542  0  2.261948  0
O  O130  1  0.14684426  0.96539267  0.13022463  1  0  -0.596087  0  2.016281  0  0  -0.548115  0  2.25805  0  0  -0.572787  0  2.251521  0  0  -0.326842  -0.530493  0  2.261781  0
O  O131  1  0.64684328  0.03462434  0.36978882  1  0  -0.596207  0  2.016601  0  0  -0.548226  0  2.258379  0  0  -0.572887  0  2.251846  0  0  -0.326814  -0.530608  0  2.262115  0
O  O132  1  0.33662744  0.10035898  0.95597419  1  0  -0.627035  0  2.095076  0  0  -0.5481  0  2.374857  0  0  -0.578223  0  2.360612  0  0  -0.345199  -0.527063  0  2.383698  0
O  O133  1  0.83662936  0.89964427  0.54402874  1  0  -0.627085  0  2.09512  0  0  -0.548128  0  2.37485  0  0  -0.578251  0  2.36061  0  0  -0.345252  -0.527096  0  2.383694  0
O  O134  1  0.66337457  0.89964026  0.04402763  1  0  -0.627079  0  2.095066  0  0  -0.548146  0  2.374836  0  0  -0.578271  0  2.360597  0  0  -0.345199  -0.527109  0  2.383676  0
O  O135  1  0.16338201  0.10036445  0.45596304  1  0  -0.626991  0  2.095109  0  0  -0.548046  0  2.374825  0  0  -0.578168  0  2.360589  0  0  -0.345162  -0.527015  0  2.38367  0
O  O136  1  0.35081128  0.30725903  0.02445115  1  0  -0.581999  0  1.95625  0  0  -0.531437  0  2.180747  0  0  -0.554004  0  2.173854  0  0  -0.33097  -0.515543  0  2.184838  0
O  O137  1  0.85080495  0.69274512  0.47554834  1  0  -0.581872  0  1.956502  0  0  -0.531314  0  2.180942  0  0  -0.55388  0  2.174057  0  0  -0.33093  -0.515423  0  2.18503  0
O  O138  1  0.64919424  0.69274116  0.97554954  1  0  -0.581923  0  1.956513  0  0  -0.531356  0  2.180989  0  0  -0.553921  0  2.1741  0  0  -0.330918  -0.515463  0  2.18508  0
O  O139  1  0.14919122  0.30726358  0.52444916  1  0  -0.581986  0  1.956335  0  0  -0.531413  0  2.180725  0  0  -0.55398  0  2.173841  0  0  -0.330956  -0.515518  0  2.184817  0
