# generated using pymatgen
data_ZnH27C37(NO)4
_symmetry_space_group_name_H-M   'P 1'
_cell_length_a   10.91981450
_cell_length_b   18.32448041
_cell_length_c   19.21872275
_cell_angle_alpha   89.06479033
_cell_angle_beta   89.09693804
_cell_angle_gamma   88.87801278
_symmetry_Int_Tables_number   1
_chemical_formula_structural   ZnH27C37(NO)4
_chemical_formula_sum   'Zn2 H54 C74 N8 O8'
_cell_volume   3843.95687903
_cell_formula_units_Z   2
loop_
 _symmetry_equiv_pos_site_id
 _symmetry_equiv_pos_as_xyz
  1  'x, y, z'
loop_
 _atom_site_type_symbol
 _atom_site_label
 _atom_site_symmetry_multiplicity
 _atom_site_fract_x
 _atom_site_fract_y
 _atom_site_fract_z
 _atom_site_occupancy
 _atom_site_pbe_bader_charge
 _atom_site_pbe_bader_spin_density
 _atom_site_pbe_cm5_charge
 _atom_site_pbe_ddec_charge
 _atom_site_pbe_ddec_spin_density
 _atom_site_pbe_ddec_sum_bond_order
 _atom_site_pbe_magmom
Zn  Zn0  1  0.48549289  0.57781640  0.49743668  1  1.295754  0  0.677963  0.827678  0  2.43087  0
Zn  Zn1  1  0.48176700  0.42398645  0.49626825  1  1.287317  0  0.679101  0.829769  0  2.449252  0
H  H2  1  0.74141211  0.16879348  0.59052545  1  0.068017  0  0.103452  0.10537  0  0.999284  0
H  H3  1  0.22922854  0.82383338  0.40585692  1  0.081172  0  0.10264  0.104921  0  0.999931  0
H  H4  1  0.74816697  0.40103687  0.62284045  1  0.100045  0  0.111032  0.118398  0  1.004267  0
H  H5  1  0.19987644  0.59193443  0.37678907  1  0.105418  0  0.116334  0.128435  0  0.972822  0
H  H6  1  0.97076098  0.30508186  0.46028241  1  0.097514  0  0.111991  0.117049  0  0.977067  0
H  H7  1  0.01663750  0.69350642  0.55111218  1  0.083151  0  0.112687  0.121022  0  0.983002  0
H  H8  1  0.89420032  0.18237110  0.49307800  1  0.068187  0  0.100718  0.097194  0  0.993903  0
H  H9  1  0.09776013  0.81406657  0.51313176  1  0.036766  0  0.100287  0.096447  0  0.994969  0
H  H10  1  0.10092609  0.38908558  0.54017816  1  0.086935  0  0.104253  0.110746  0  1.013812  0
H  H11  1  0.86567764  0.60859556  0.46743764  1  0.108794  0  0.106709  0.115691  0  1.008504  0
H  H12  1  0.45015578  0.40739285  0.72966607  1  0.100986  0  0.11101  0.121214  0  0.987238  0
H  H13  1  0.57913951  0.61955873  0.28952149  1  0.121262  0  0.106477  0.110922  0  1.002497  0
H  H14  1  0.48609665  0.41409499  0.85693719  1  0.088958  0  0.110911  0.11079  0  0.985453  0
H  H15  1  0.64766706  0.62107736  0.16526361  1  0.086914  0  0.110112  0.110712  0  0.978885  0
H  H16  1  0.75185144  0.58078854  0.81915059  1  0.095177  0  0.113347  0.120679  0  0.983394  0
H  H17  1  0.50089263  0.40701898  0.14155496  1  0.074306  0  0.114  0.121374  0  0.978259  0
H  H18  1  0.39244063  0.83428080  0.60089450  1  0.104294  0  0.123069  0.136796  0  0.976018  0
H  H19  1  0.60425064  0.16839149  0.40045446  1  0.101327  0  0.123175  0.136612  0  0.9765  0
H  H20  1  0.58158415  0.82868010  0.40149263  1  0.102186  0  0.121226  0.129515  0  0.976976  0
H  H21  1  0.37761053  0.17365201  0.58725021  1  0.090104  0  0.120158  0.128295  0  0.980379  0
H  H22  1  0.57119879  0.69265565  0.40850077  1  0.119182  0  0.135489  0.113426  0  0.971279  0
H  H23  1  0.38047689  0.30922957  0.57826847  1  0.144545  0  0.136742  0.115744  0  0.959194  0
H  H24  1  0.67192517  0.93089100  0.45479137  1  0.090213  0  0.110407  0.11043  0  0.988937  0
H  H25  1  0.30689049  0.07093585  0.54015210  1  0.055691  0  0.110209  0.109346  0  0.992412  0
H  H26  1  0.67268007  0.06548794  0.45205243  1  0.067141  0  0.108614  0.107207  0  0.99609  0
H  H27  1  0.30708233  0.93639195  0.54399685  1  0.056964  0  0.108251  0.10698  0  0.995367  0
H  H28  1  0.39667811  0.69391611  0.79465842  1  0.068278  0  0.081159  0.11592  0  1.027713  0
H  H29  1  0.32706717  0.73094881  0.87060428  1  -0.019713  0  0.081492  0.105866  0  1.005519  0
H  H30  1  0.45432243  0.77487468  0.83080946  1  0.012806  0  0.079973  0.102742  0  1.010999  0
H  H31  1  0.52147191  0.70409477  0.93750066  1  0.030825  0  0.084228  0.069783  0  0.98933  0
H  H32  1  0.59120115  0.66814121  0.86207269  1  -0.00028  0  0.082784  0.069588  0  1.000701  0
H  H33  1  0.43425028  0.57141180  0.85824847  1  0.066918  0  0.090306  0.091485  0  1.010031  0
H  H34  1  0.35988787  0.60698514  0.93198861  1  0.004139  0  0.091941  0.089691  0  1.004481  0
H  H35  1  0.94239199  0.42628188  0.20273490  1  0.031988  0  0.087469  0.117683  0  0.996854  0
H  H36  1  0.02839779  0.39795583  0.12854097  1  0.036031  0  0.083481  0.108471  0  1.002469  0
H  H37  1  0.06228714  0.48131961  0.16903364  1  0.04305  0  0.084177  0.110195  0  1.019206  0
H  H38  1  0.94245875  0.50633957  0.05985102  1  0.007213  0  0.083886  0.068263  0  0.992856  0
H  H39  1  0.85701858  0.53409919  0.13360396  1  0.016384  0  0.083104  0.069157  0  0.996488  0
H  H40  1  0.74435163  0.41689048  0.13455135  1  0.052766  0  0.091149  0.091216  0  1.004318  0
H  H41  1  0.83063441  0.38712290  0.06237270  1  0.025866  0  0.090641  0.086334  0  1.022937  0
H  H42  1  0.23207673  0.64066431  0.15177055  1  0.066973  0  0.083574  0.116915  0  1.010469  0
H  H43  1  0.18478946  0.66468412  0.06638975  1  0.017334  0  0.081316  0.105305  0  1.006183  0
H  H44  1  0.11658122  0.58991506  0.11106097  1  -0.003118  0  0.082805  0.108309  0  1.03424  0
H  H45  1  0.27116019  0.54390585  0.02269813  1  0.013989  0  0.083993  0.069462  0  0.98844  0
H  H46  1  0.31792455  0.52045467  0.10750069  1  0.016934  0  0.083783  0.072045  0  1.00065  0
H  H47  1  0.45378765  0.62785012  0.10860692  1  0.049318  0  0.090854  0.091265  0  1.017385  0
H  H48  1  0.40639348  0.65479682  0.02543303  1  0.023827  0  0.092114  0.089641  0  1.006205  0
H  H49  1  0.60599919  0.32931281  0.90977521  1  0.045968  0  0.081373  0.104926  0  1.021657  0
H  H50  1  0.70572486  0.32724763  0.83608731  1  0.029857  0  0.080416  0.111029  0  1.017959  0
H  H51  1  0.69634883  0.25015933  0.89266482  1  -0.013933  0  0.083988  0.110233  0  1.002214  0
H  H52  1  0.88695828  0.31512867  0.91763618  1  0.012956  0  0.086133  0.072579  0  0.975435  0
H  H53  1  0.78515170  0.32042370  0.98926276  1  0.021662  0  0.085289  0.071495  0  1.003277  0
H  H54  1  0.82376779  0.44038850  0.87800302  1  0.027653  0  0.088433  0.086569  0  1.003668  0
H  H55  1  0.89825525  0.43626847  0.95834156  1  0.030424  0  0.09223  0.08902  0  0.993102  0
C  C56  1  0.47510387  0.51257673  0.36254002  1  1.589275  0  0.216589  0.591725  0  4.182495  0
C  C57  1  0.53292744  0.49498825  0.62897407  1  1.596313  0  0.215388  0.589098  0  4.190358  0
C  C58  1  0.72009527  0.49963002  0.48683947  1  1.585397  0  0.216634  0.595017  0  4.164696  0
C  C59  1  0.24854736  0.49674858  0.51164516  1  1.599453  0  0.219881  0.600625  0  4.156177  0
C  C60  1  0.73596312  0.28449934  0.61207915  1  0.019148  0  -0.00153  0.054233  0  4.098668  0
C  C61  1  0.22234740  0.70818413  0.38509939  1  0.0623  0  -9.9e-05  0.060774  0  4.100932  0
C  C62  1  0.78090698  0.35362051  0.59420025  1  -0.007051  0  -0.063986  -0.120839  0  3.869385  0
C  C63  1  0.17686439  0.64031502  0.40676893  1  0.007183  0  -0.065597  -0.132605  0  3.875321  0
C  C64  1  0.86566502  0.36157120  0.53924612  1  0.075025  0  0.006963  0.096341  0  3.971584  0
C  C65  1  0.10286001  0.63484101  0.46664689  1  0.02558  0  0.007403  0.097096  0  3.985996  0
C  C66  1  0.90581976  0.29907335  0.50358013  1  -0.055956  0  -0.077615  -0.114673  0  3.938989  0
C  C67  1  0.07446607  0.69796171  0.50444969  1  -0.057926  0  -0.075135  -0.11105  0  3.922442  0
C  C68  1  0.86189520  0.23008453  0.52175791  1  -0.037226  0  -0.097224  -0.091193  0  4.07386  0
C  C69  1  0.12041288  0.76552057  0.48304660  1  0.003062  0  -0.097297  -0.089934  0  4.071753  0
C  C70  1  0.77687345  0.22214043  0.57581049  1  -0.044039  0  -0.089419  -0.135561  0  4.002599  0
C  C71  1  0.19400211  0.77133092  0.42349263  1  -0.034167  0  -0.090388  -0.140108  0  4.003682  0
C  C72  1  0.04769145  0.43711766  0.52394714  1  -0.024791  0  -0.080154  -0.13963  0  3.955163  0
C  C73  1  0.91915065  0.56081510  0.48398867  1  0.037901  0  -0.074996  -0.127178  0  3.943596  0
C  C74  1  0.11167210  0.50068293  0.50761304  1  -0.018811  0  -0.005111  -0.051099  0  3.921983  0
C  C75  1  0.85536103  0.49684189  0.49853488  1  -0.011555  0  -0.005002  -0.051525  0  3.909944  0
C  C76  1  0.04642137  0.56449104  0.48752185  1  -0.032757  0  0.005707  0.055002  0  3.957602  0
C  C77  1  0.92026444  0.43320362  0.52037993  1  -0.026544  0  0.004998  0.0558  0  3.943343  0
C  C78  1  0.51462223  0.44599557  0.74993123  1  -0.041766  0  -0.074839  -0.07926  0  3.976892  0
C  C79  1  0.56471863  0.57262416  0.25690072  1  -0.04039  0  -0.074912  -0.071417  0  3.975838  0
C  C80  1  0.53657269  0.44910622  0.82075822  1  -0.003898  0  -0.071761  -0.108849  0  3.952349  0
C  C81  1  0.60209354  0.57339613  0.18736379  1  -0.006533  0  -0.076017  -0.118863  0  3.958136  0
C  C82  1  0.62000520  0.49854048  0.84716104  1  -0.009777  0  0.00782  0.102079  0  3.996045  0
C  C83  1  0.57833977  0.51423735  0.14459603  1  0.014583  0  0.01023  0.109144  0  3.989466  0
C  C84  1  0.68436929  0.54313998  0.80023090  1  -0.049363  0  -0.071227  -0.16427  0  3.911639  0
C  C85  1  0.52069512  0.45331697  0.17415360  1  -0.051348  0  -0.0687  -0.160201  0  3.907312  0
C  C86  1  0.65927835  0.54256658  0.72858314  1  0.092853  0  0.010474  0.046149  0  4.055571  0
C  C87  1  0.48643866  0.45093499  0.24485146  1  0.137039  0  0.014201  0.052704  0  4.05253  0
C  C88  1  0.57160245  0.49422169  0.70330627  1  -0.025144  0  -0.005838  -0.062584  0  3.936348  0
C  C89  1  0.50703070  0.51205552  0.28671189  1  -0.055269  0  -0.004483  -0.05843  0  3.921176  0
C  C90  1  0.53378569  0.55413461  0.95344928  1  -0.062474  0  -0.012956  0.019853  0  3.938698  0
C  C91  1  0.69849930  0.47319208  0.03896949  1  -0.040942  0  -0.012405  0.021981  0  3.933272  0
C  C92  1  0.52316042  0.55897752  0.02629778  1  0.015343  0  -0.012208  0.022182  0  3.942413  0
C  C93  1  0.70939807  0.46830071  0.96580594  1  0.036814  0  -0.013781  0.021919  0  3.923829  0
C  C94  1  0.60291337  0.51624591  0.06810689  1  -0.035312  0  -0.015163  -0.056836  0  3.979745  0
C  C95  1  0.62455432  0.50735837  0.92418775  1  -0.04565  0  -0.015939  -0.057381  0  3.974235  0
C  C96  1  0.43037443  0.72951775  0.55602514  1  0.593208  0  0.153482  0.226991  0  4.037303  0
C  C97  1  0.55516184  0.27289088  0.44229236  1  0.614596  0  0.15578  0.231612  0  4.023965  0
C  C98  1  0.43252479  0.80563471  0.55661105  1  0.043311  0  -0.060698  -0.198505  0  3.883347  0
C  C99  1  0.55446724  0.19674370  0.44176026  1  -0.029537  0  -0.059188  -0.193053  0  3.877645  0
C  C100  1  0.48798179  0.84368454  0.50106129  1  -0.010992  0  0.020909  0.119057  0  4.00177  0
C  C101  1  0.48950326  0.15848559  0.49368479  1  -0.079026  0  0.020165  0.116584  0  4.000253  0
C  C102  1  0.53989519  0.80234065  0.44696152  1  0.004843  0  -0.067394  -0.164768  0  3.916183  0
C  C103  1  0.42606606  0.19977751  0.54394292  1  0.001499  0  -0.067876  -0.164017  0  3.921037  0
C  C104  1  0.53407363  0.72664887  0.45010472  1  0.507799  0  0.072484  0.124714  0  3.899272  0
C  C105  1  0.42845463  0.27547107  0.53999501  1  0.527237  0  0.070555  0.121843  0  3.907476  0
C  C106  1  0.59119429  0.96152580  0.47278842  1  -0.021658  0  -0.080341  -0.116102  0  3.97449  0
C  C107  1  0.38794590  0.04045158  0.52246371  1  -0.062401  0  -0.079069  -0.112258  0  3.972768  0
C  C108  1  0.59144290  0.03737883  0.47120311  1  -0.117113  0  -0.079984  -0.114328  0  3.972738  0
C  C109  1  0.38798381  0.96465398  0.52455317  1  0.0007  0  -0.081623  -0.117096  0  3.978736  0
C  C110  1  0.48968300  0.07809908  0.49573147  1  0.094814  0  -0.001525  0.063605  0  3.993971  0
C  C111  1  0.48939720  0.92402018  0.49955890  1  0.015575  0  -0.002647  0.06243  0  3.999238  0
C  C112  1  0.72550144  0.59168593  0.68398577  1  0.828042  0  0.172599  0.248609  0  4.034811  0
C  C113  1  0.42854593  0.38618797  0.27025171  1  0.841653  0  0.174024  0.256315  0  4.035085  0
C  C114  1  0.45047233  0.59976059  0.90705233  1  -0.030569  0  -0.165409  -0.199105  0  3.964468  0
C  C115  1  0.50214832  0.67538146  0.88904833  1  -0.011645  0  -0.165627  -0.085044  0  3.961495  0
C  C116  1  0.41553893  0.72132175  0.84373699  1  -0.058129  0  -0.248386  -0.353526  0  3.981779  0
C  C117  1  0.79053144  0.43602815  0.08656404  1  -0.029885  0  -0.165267  -0.199184  0  3.964806  0
C  C118  1  0.89562935  0.48570866  0.10724429  1  -0.010442  0  -0.165161  -0.088674  0  3.966298  0
C  C119  1  0.98720729  0.44581837  0.15445766  1  -0.105645  0  -0.244195  -0.353668  0  3.975913  0
C  C120  1  0.42358672  0.60651514  0.05879891  1  -0.021175  0  -0.165386  -0.200298  0  3.969481  0
C  C121  1  0.30203474  0.56719520  0.07180194  1  -0.013704  0  -0.165785  -0.085035  0  3.958641  0
C  C122  1  0.20326073  0.61824424  0.10199265  1  -0.08064  0  -0.247347  -0.356424  0  3.975133  0
C  C123  1  0.81206579  0.42312173  0.93275905  1  -0.032724  0  -0.161608  -0.188739  0  3.952975  0
C  C124  1  0.79878097  0.33934502  0.93511446  1  -0.01128  0  -0.164875  -0.087784  0  3.961128  0
C  C125  1  0.69630771  0.31012958  0.89094962  1  -0.055214  0  -0.249929  -0.353876  0  3.981548  0
C  C126  1  0.37179729  0.69223917  0.61328025  1  0.866329  0  0.194782  0.213859  0  3.950039  0
C  C127  1  0.62926451  0.30989236  0.39109166  1  0.895252  0  0.194057  0.219123  0  3.952235  0
C  C128  1  0.64568169  0.27621509  0.66601342  1  0.837329  0  0.177193  0.235122  0  4.031248  0
C  C129  1  0.29782832  0.71383798  0.32398109  1  0.816146  0  0.175708  0.236591  0  4.033041  0
N  N130  1  0.48057156  0.69041834  0.50336230  1  -1.200509  0  -0.299168  -0.222558  0  3.444366  0
N  N131  1  0.49167864  0.31182666  0.49047250  1  -1.197419  0  -0.300792  -0.22493  0  3.447158  0
N  N132  1  0.78554399  0.63249131  0.65160544  1  -1.137346  0  -0.332306  -0.387071  0  2.699989  0
N  N133  1  0.38194023  0.33104358  0.28498725  1  -1.147465  0  -0.34355  -0.399296  0  2.68717  0
N  N134  1  0.32122406  0.66776019  0.66193955  1  -1.060905  0  -0.269739  -0.293443  0  2.677564  0
N  N135  1  0.69578498  0.33364148  0.34878435  1  -1.069277  0  -0.279877  -0.304392  0  2.662116  0
N  N136  1  0.56982584  0.26718341  0.70872212  1  -1.145266  0  -0.321276  -0.382186  0  2.726659  0
N  N137  1  0.36008216  0.71991382  0.27424741  1  -1.153072  0  -0.323633  -0.385383  0  2.725304  0
O  O138  1  0.46328060  0.57462045  0.39136884  1  -1.168124  0  -0.316127  -0.556931  0  2.355193  0
O  O139  1  0.49863446  0.43501364  0.60394169  1  -1.165006  0  -0.31396  -0.549756  0  2.316529  0
O  O140  1  0.46485750  0.45090276  0.39289485  1  -1.162455  0  -0.304364  -0.535902  0  2.381911  0
O  O141  1  0.53707222  0.55634343  0.59729618  1  -1.154026  0  -0.304817  -0.537248  0  2.389233  0
O  O142  1  0.67049266  0.56166261  0.47408385  1  -1.165599  0  -0.31608  -0.540513  0  2.312782  0
O  O143  1  0.29742418  0.43313837  0.50906882  1  -1.15829  0  -0.316759  -0.538293  0  2.328853  0
O  O144  1  0.66462251  0.43920019  0.49058374  1  -1.168739  0  -0.306923  -0.54621  0  2.428065  0
O  O145  1  0.30543475  0.55634247  0.51645031  1  -1.166076  0  -0.308004  -0.547043  0  2.38387  0
