# generated using pymatgen
data_CdH16C23N8O5
_symmetry_space_group_name_H-M   'P 1'
_cell_length_a   9.07341702
_cell_length_b   9.60388829
_cell_length_c   14.69220000
_cell_angle_alpha   88.29260674
_cell_angle_beta   86.15365907
_cell_angle_gamma   64.52047344
_symmetry_Int_Tables_number   1
_chemical_formula_structural   CdH16C23N8O5
_chemical_formula_sum   'Cd2 H32 C46 N16 O10'
_cell_volume   1153.15441957
_cell_formula_units_Z   2
loop_
 _symmetry_equiv_pos_site_id
 _symmetry_equiv_pos_as_xyz
  1  'x, y, z'
loop_
 _atom_site_type_symbol
 _atom_site_label
 _atom_site_symmetry_multiplicity
 _atom_site_fract_x
 _atom_site_fract_y
 _atom_site_fract_z
 _atom_site_occupancy
 _atom_site_hle17_bader_spin_density
 _atom_site_hle17_ddec_charge
 _atom_site_hle17_ddec_spin_density
 _atom_site_hle17_ddec_sum_bond_order
 _atom_site_hle17_magmom
 _atom_site_hse06_10hf_bader_spin_density
 _atom_site_hse06_10hf_ddec_charge
 _atom_site_hse06_10hf_ddec_spin_density
 _atom_site_hse06_10hf_ddec_sum_bond_order
 _atom_site_hse06_10hf_magmom
 _atom_site_hse06_bader_spin_density
 _atom_site_hse06_ddec_charge
 _atom_site_hse06_ddec_spin_density
 _atom_site_hse06_ddec_sum_bond_order
 _atom_site_hse06_magmom
 _atom_site_pbe_bader_charge
 _atom_site_pbe_bader_spin_density
 _atom_site_pbe_cm5_charge
 _atom_site_pbe_ddec_charge
 _atom_site_pbe_ddec_spin_density
 _atom_site_pbe_ddec_sum_bond_order
 _atom_site_pbe_magmom
Cd  Cd0  1  0.95997290  0.05519620  0.87552206  1  0  1.122781  0  1.699593  0  0  0.926603  0  2.145239  0  0  0.985715  0  2.093687  0  1.269168  0  0.778001  0.884626  0  2.180108  0
Cd  Cd1  1  0.04002541  0.94480491  0.12447574  1  0  1.122778  0  1.699617  0  0  0.926616  0  2.14526  0  0  0.985728  0  2.093705  0  1.269162  0  0.778001  0.884638  0  2.180131  0
H  H2  1  0.96452015  0.35511429  0.77266481  1  0  0.079539  0  0.977718  0  0  0.082352  0  1.051131  0  0  0.08529  0  1.047905  0  0.152012  0  0.113977  0.079865  0  1.053956  0
H  H3  1  0.03548420  0.64488567  0.22733548  1  0  0.079539  0  0.977776  0  0  0.082345  0  1.051191  0  0  0.085284  0  1.047963  0  0.152008  0  0.113985  0.079856  0  1.054019  0
H  H4  1  0.08741457  0.43769174  0.63752871  1  0  0.116007  0  0.941062  0  0  0.122444  0  1.004735  0  0  0.126606  0  1.002609  0  0.080559  0  0.11028  0.119551  0  1.006189  0
H  H5  1  0.91259147  0.56230937  0.36247353  1  0  0.116004  0  0.941066  0  0  0.122429  0  1.004762  0  0  0.126591  0  1.002636  0  0.080578  0  0.110292  0.119537  0  1.006213  0
H  H6  1  0.28833831  0.96855517  0.53997019  1  0  0.110147  0  0.956339  0  0  0.118105  0  1.020462  0  0  0.121454  0  1.019498  0  0.11451  0  0.107032  0.115973  0  1.020682  0
H  H7  1  0.71166162  0.03144478  0.46002961  1  0  0.110191  0  0.956334  0  0  0.11815  0  1.020455  0  0  0.121499  0  1.01949  0  0.114498  0  0.107059  0.116018  0  1.020675  0
H  H8  1  0.16105129  0.90315459  0.68226324  1  0  0.081915  0  0.936437  0  0  0.091615  0  0.99698  0  0  0.094353  0  0.994422  0  0.06728  0  0.115064  0.08968  0  0.998589  0
H  H9  1  0.83894696  0.09684421  0.31773733  1  0  0.081869  0  0.936531  0  0  0.09157  0  0.99707  0  0  0.094308  0  0.994513  0  0.06728  0  0.115037  0.089636  0  0.998678  0
H  H10  1  0.20215691  0.68754063  0.45218190  1  0  0.108486  0  0.943922  0  0  0.118196  0  1.001984  0  0  0.121755  0  1.00096  0  0.094619  0  0.106765  0.115655  0  1.003015  0
H  H11  1  0.79784251  0.31246048  0.54781926  1  0  0.108525  0  0.943955  0  0  0.118229  0  1.002012  0  0  0.121788  0  1.000987  0  0.094639  0  0.106785  0.115688  0  1.003043  0
H  H12  1  0.27425378  0.89858355  0.38974660  1  0  0.061143  0  0.952869  0  0  0.063831  0  1.027001  0  0  0.067253  0  1.023895  0  0.046933  0  0.103926  0.062987  0  1.026699  0
H  H13  1  0.72574563  0.10141756  0.61025456  1  0  0.061117  0  0.952891  0  0  0.063823  0  1.027014  0  0  0.067244  0  1.023908  0  0.046958  0  0.103937  0.062978  0  1.026711  0
H  H14  1  0.66569531  0.59132157  0.23096581  1  0  0.072565  0  0.928628  0  0  0.082824  0  0.988135  0  0  0.084797  0  0.987196  0  0.086958  0  0.113881  0.081331  0  0.988944  0
H  H15  1  0.33430631  0.40867954  0.76903798  1  0  0.072544  0  0.928657  0  0  0.082838  0  0.988122  0  0  0.084811  0  0.987184  0  0.086903  0  0.113886  0.081345  0  0.98893  0
H  H16  1  0.61837098  0.36823339  0.28706842  1  0  0.111558  0  0.975971  0  0  0.119206  0  1.040929  0  0  0.123161  0  1.038291  0  0.113284  0  0.106684  0.116412  0  1.04247  0
H  H17  1  0.38163006  0.63176656  0.71293269  1  0  0.111524  0  0.976001  0  0  0.119169  0  1.040967  0  0  0.123124  0  1.038328  0  0.11327  0  0.106677  0.116375  0  1.042508  0
H  H18  1  0.53629915  0.09199520  0.26836182  1  0  0.111243  0  0.893622  0  0  0.122787  0  0.953632  0  0  0.123354  0  0.953264  0  0.145577  0  0.143011  0.121928  0  0.955588  0
H  H19  1  0.46369973  0.90800706  0.73163866  1  0  0.111255  0  0.893533  0  0  0.122787  0  0.953557  0  0  0.123354  0  0.953188  0  0.145544  0  0.143011  0.121943  0  0.955495  0
H  H20  1  0.46443847  0.29033540  0.23646484  1  0  0.099441  0  0.965446  0  0  0.105378  0  1.039916  0  0  0.106294  0  1.039124  0  0.160633  0  0.135147  0.104614  0  1.041463  0
H  H21  1  0.53556094  0.70966570  0.76353496  1  0  0.099495  0  0.965371  0  0  0.105394  0  1.039882  0  0  0.106311  0  1.039086  0  0.160635  0  0.135153  0.104628  0  1.041433  0
H  H22  1  0.38480225  0.95060666  0.21570989  1  0  0.118293  0  0.967364  0  0  0.120312  0  1.039042  0  0  0.124608  0  1.033762  0  0.231681  0  0.144889  0.117373  0  1.043332  0
H  H23  1  0.61519768  0.04939329  0.78428991  1  0  0.118295  0  0.967363  0  0  0.120318  0  1.039032  0  0  0.124613  0  1.033753  0  0.2317  0  0.14489  0.117378  0  1.043321  0
H  H24  1  0.93830711  0.33085075  0.16564052  1  0  0.106665  0  0.924661  0  0  0.116782  0  0.982355  0  0  0.118654  0  0.980334  0  0.163582  0  0.140393  0.115562  0  0.983732  0
H  H25  1  0.06169172  0.66914920  0.83435933  1  0  0.106676  0  0.924656  0  0  0.116792  0  0.98235  0  0  0.118664  0  0.980329  0  0.163588  0  0.140403  0.115572  0  0.983729  0
H  H26  1  0.41786657  0.93814040  0.03924908  1  0  0.112024  0  0.964083  0  0  0.119568  0  1.032952  0  0  0.122761  0  1.031229  0  0.102362  0  0.103288  0.117193  0  1.034415  0
H  H27  1  0.58213605  0.06185610  0.96074999  1  0  0.112065  0  0.964069  0  0  0.119605  0  1.032949  0  0  0.1228  0  1.031226  0  0.102309  0  0.103301  0.117232  0  1.034411  0
H  H28  1  0.88415908  0.54000667  0.03594567  1  0  0.117166  0  0.976217  0  0  0.12413  0  1.044975  0  0  0.128395  0  1.041439  0  0.132795  0  0.103286  0.120979  0  1.047694  0
H  H29  1  0.11584574  0.45998983  0.96405195  1  0  0.117165  0  0.976223  0  0  0.124135  0  1.044976  0  0  0.128398  0  1.041443  0  0.133013  0  0.103294  0.120983  0  1.047696  0
H  H30  1  0.50419810  0.54291792  0.87508490  1  0  0.103723  0  0.966102  0  0  0.11  0  1.03735  0  0  0.113563  0  1.035048  0  0.093124  0  0.100084  0.107214  0  1.039445  0
H  H31  1  0.49580131  0.45708319  0.12491354  1  0  0.103684  0  0.966145  0  0  0.109987  0  1.037379  0  0  0.113551  0  1.035076  0  0.093079  0  0.100066  0.10719  0  1.039486  0
H  H32  1  0.82950538  0.77582178  0.09871617  1  0  0.388732  0  0.887326  0  0  0.364173  0  0.962631  0  0  0.374021  0  0.95118  0  0.631663  0  0.301316  0.357186  0  0.970646  0
H  H33  1  0.17049345  0.22417817  0.90128096  1  0  0.388714  0  0.887339  0  0  0.364151  0  0.96265  0  0  0.373999  0  0.951196  0  0.631664  0  0.301318  0.357163  0  0.970669  0
C  C34  1  0.03819395  0.27185286  0.72040487  1  0  0.135626  0  3.709699  0  0  0.104754  0  3.964664  0  0  0.112348  0  3.982326  0  0.453471  0  0.048425  0.099882  0  3.952961  0
C  C35  1  0.96181145  0.72814479  0.27959543  1  0  0.135542  0  3.709794  0  0  0.10468  0  3.964735  0  0  0.112275  0  3.982395  0  0.453466  0  0.048387  0.099809  0  3.953035  0
C  C36  1  0.10595523  0.31819648  0.64465282  1  0  -0.132355  0  3.680477  0  0  -0.154369  0  3.930156  0  0  -0.161387  0  3.949498  0  0.044972  0  -0.074599  -0.149699  0  3.916991  0
C  C37  1  0.89405023  0.68180347  0.35535084  1  0  -0.132274  0  3.680515  0  0  -0.154276  0  3.930135  0  0  -0.161295  0  3.949477  0  0.044989  0  -0.074557  -0.149606  0  3.91697  0
C  C38  1  0.19906778  0.20907402  0.57799651  1  0  0.068021  0  3.766849  0  0  0.082017  0  3.995378  0  0  0.085841  0  4.015092  0  -0.05851  0  0.017979  0.079468  0  3.98227  0
C  C39  1  0.80093489  0.79092478  0.42200456  1  0  0.067942  0  3.766839  0  0  0.081956  0  3.995309  0  0  0.08578  0  4.015021  0  -0.058538  0  0.017904  0.079407  0  3.982205  0
C  C40  1  0.21695301  0.05712358  0.59017676  1  0  -0.153998  0  3.706424  0  0  -0.17608  0  3.955077  0  0  -0.182656  0  3.974805  0  -0.007716  0  -0.085101  -0.171831  0  3.941697  0
C  C41  1  0.78304641  0.94287753  0.40982508  1  0  -0.154038  0  3.706282  0  0  -0.176135  0  3.95494  0  0  -0.18271  0  3.974665  0  -0.007725  0  -0.08512  -0.171886  0  3.941558  0
C  C42  1  0.14617255  0.02068214  0.66865571  1  0  0.115623  0  3.744147  0  0  0.087259  0  3.998227  0  0  0.093939  0  4.016821  0  0.500367  0  0.040581  0.083038  0  3.985587  0
C  C43  1  0.85383018  0.97931897  0.33134531  1  0  0.115683  0  3.744064  0  0  0.087329  0  3.998146  0  0  0.094007  0  4.01674  0  0.500379  0  0.040635  0.083107  0  3.985504  0
C  C44  1  0.27362648  0.25477057  0.49851103  1  0  0.291906  0  3.801497  0  0  0.275314  0  4.073645  0  0  0.285491  0  4.087873  0  1.01473  0  0.218043  0.268544  0  4.06409  0
C  C45  1  0.72637456  0.74522938  0.50149008  1  0  0.291974  0  3.801385  0  0  0.275388  0  4.073518  0  0  0.285565  0  4.087746  0  1.014742  0  0.218066  0.268612  0  4.063972  0
C  C46  1  0.35883002  0.38837111  0.41071621  1  0  0.277414  0  3.728441  0  0  0.24113  0  4.001586  0  0  0.255582  0  4.014523  0  0.968104  0  0.234745  0.231983  0  3.992082  0
C  C47  1  0.64116881  0.61162884  0.58928432  1  0  0.277421  0  3.728449  0  0  0.241158  0  4.001598  0  0  0.255609  0  4.014535  0  0.968334  0  0.234751  0.232011  0  3.992094  0
C  C48  1  0.40214333  0.51012939  0.37403049  1  0  0.051004  0  3.783193  0  0  0.066185  0  4.018721  0  0  0.067084  0  4.040274  0  -0.052519  0  0.011077  0.0654  0  4.003825  0
C  C49  1  0.59785660  0.48987056  0.62597067  1  0  0.050983  0  3.783198  0  0  0.066101  0  4.0188  0  0  0.067002  0  4.040349  0  -0.052285  0  0.011031  0.065317  0  4.003903  0
C  C50  1  0.30669104  0.66225285  0.40375491  1  0  -0.133386  0  3.698153  0  0  -0.153115  0  3.940059  0  0  -0.158824  0  3.961532  0  0.011644  0  -0.080423  -0.150428  0  3.927251  0
C  C51  1  0.69330890  0.33774711  0.59624625  1  0  -0.133497  0  3.698271  0  0  -0.1532  0  3.9402  0  0  -0.158909  0  3.961671  0  0.011415  0  -0.080466  -0.150512  0  3.927391  0
C  C52  1  0.34689324  0.77855080  0.36892229  1  0  0.112332  0  3.750702  0  0  0.088282  0  4.013515  0  0  0.092637  0  4.031387  0  0.524481  0  0.038882  0.084363  0  4.001766  0
C  C53  1  0.65310727  0.22145031  0.63108018  1  0  0.112415  0  3.750783  0  0  0.088346  0  4.013587  0  0  0.092699  0  4.031459  0  0.523988  0  0.038895  0.084426  0  4.001838  0
C  C54  1  0.56447870  0.60849267  0.28082439  1  0  0.14675  0  3.713847  0  0  0.120759  0  3.977218  0  0  0.126492  0  3.993462  0  0.543835  0  0.05322  0.116915  0  3.965921  0
C  C55  1  0.43551798  0.39150959  0.71917618  1  0  0.146689  0  3.713891  0  0  0.120667  0  3.977272  0  0  0.126399  0  3.993515  0  0.543996  0  0.05316  0.116824  0  3.965974  0
C  C56  1  0.53608307  0.48307571  0.31214313  1  0  -0.154489  0  3.69613  0  0  -0.175921  0  3.944104  0  0  -0.181216  0  3.962623  0  -0.031803  0  -0.081579  -0.171339  0  3.930275  0
C  C57  1  0.46391634  0.51692540  0.68785803  1  0  -0.154377  0  3.696195  0  0  -0.175785  0  3.944179  0  0  -0.18108  0  3.962697  0  -0.031914  0  -0.081524  -0.171204  0  3.930349  0
C  C58  1  0.43226789  0.20598398  0.27359800  1  0  0.072924  0  3.606068  0  0  -0.011317  0  3.857511  0  0  -0.001638  0  3.865168  0  0.628332  0  0.072889  -0.027024  0  3.850501  0
C  C59  1  0.56773042  0.79401713  0.72640252  1  0  0.072982  0  3.605942  0  0  -0.011244  0  3.857378  0  0  -0.001559  0  3.865021  0  0.628328  0  0.072919  -0.026964  0  3.850365  0
C  C60  1  0.28762780  0.06641675  0.20739367  1  0  0.190968  0  3.614265  0  0  0.122402  0  3.884341  0  0  0.138066  0  3.894626  0  0.974219  0  0.174945  0.103158  0  3.872585  0
C  C61  1  0.71237213  0.93358320  0.79260613  1  0  0.190998  0  3.61423  0  0  0.1224  0  3.884292  0  0  0.138065  0  3.894579  0  0.974217  0  0.174936  0.103151  0  3.872532  0
C  C62  1  0.06229615  0.26323559  0.18550104  1  0  0.21874  0  3.678099  0  0  0.16843  0  3.959542  0  0  0.180652  0  3.972087  0  0.972033  0  0.155376  0.15966  0  3.954036  0
C  C63  1  0.93770379  0.73676437  0.81449876  1  0  0.21873  0  3.678082  0  0  0.168416  0  3.959535  0  0  0.18064  0  3.972078  0  0.971898  0  0.155358  0.159645  0  3.95403  0
C  C64  1  0.81409203  0.36754710  0.91866956  1  0  0.629814  0  3.924039  0  0  0.582121  0  4.210497  0  0  0.615793  0  4.204488  0  1.525855  0  0.191876  0.559427  0  4.213207  0
C  C65  1  0.18590570  0.63245285  0.08132625  1  0  0.629808  0  3.923833  0  0  0.582069  0  4.210367  0  0  0.615741  0  4.204354  0  1.52526  0  0.191848  0.559373  0  4.213076  0
C  C66  1  0.27816415  0.83265469  0.91775299  1  0  0.651593  0  3.894641  0  0  0.600957  0  4.180699  0  0  0.636163  0  4.17315  0  1.550345  0  0.199024  0.577327  0  4.184339  0
C  C67  1  0.72183305  0.16734641  0.08224622  1  0  0.651594  0  3.894544  0  0  0.600989  0  4.180555  0  0  0.636194  0  4.173009  0  1.52381  0  0.198995  0.577359  0  4.184197  0
C  C68  1  0.44429155  0.74974506  0.95334266  1  0  -0.046251  0  3.788793  0  0  -0.020677  0  4.024283  0  0  -0.027508  0  4.045824  0  -0.011269  0  -0.023159  -0.01672  0  4.010412  0
C  C69  1  0.55570838  0.25025490  0.04665782  1  0  -0.046277  0  3.788549  0  0  -0.020706  0  4.024058  0  0  -0.027539  0  4.045598  0  0.015472  0  -0.023128  -0.016749  0  4.010187  0
C  C70  1  0.49833949  0.82202700  0.01592213  1  0  -0.167951  0  3.665819  0  0  -0.202696  0  3.91657  0  0  -0.203847  0  3.933894  0  0.014751  0  -0.09504  -0.202424  0  3.905862  0
C  C71  1  0.50166040  0.17797065  0.98407567  1  0  -0.168067  0  3.665711  0  0  -0.202799  0  3.916513  0  0  -0.203954  0  3.933842  0  0.014755  0  -0.095099  -0.202528  0  3.905803  0
C  C72  1  0.65716100  0.74689839  0.04569785  1  0  0.325473  0  3.826841  0  0  0.325869  0  4.084653  0  0  0.334585  0  4.101336  0  0.44143  0  0.077771  0.320007  0  4.073206  0
C  C73  1  0.34284383  0.25309810  0.95430113  1  0  0.325574  0  3.826618  0  0  0.325911  0  4.084544  0  0  0.334626  0  4.101227  0  0.441745  0  0.077829  0.320048  0  4.0731  0
C  C74  1  0.76009093  0.59831366  0.01364472  1  0  -0.202899  0  3.705736  0  0  -0.237688  0  3.956065  0  0  -0.239722  0  3.973725  0  -0.066265  0  -0.102306  -0.235994  0  3.943881  0
C  C75  1  0.23990895  0.40168399  0.98635377  1  0  -0.20291  0  3.705716  0  0  -0.237708  0  3.95608  0  0  -0.239736  0  3.973726  0  -0.066708  0  -0.102322  -0.236018  0  3.943895  0
C  C76  1  0.70492704  0.52639389  0.95180684  1  0  -0.036477  0  3.80263  0  0  -0.013913  0  4.042772  0  0  -0.020767  0  4.065238  0  -0.068912  0  -0.02461  -0.009267  0  4.027085  0
C  C77  1  0.29506900  0.47360491  0.04819314  1  0  -0.03652  0  3.802708  0  0  -0.013884  0  4.042801  0  0  -0.020738  0  4.065266  0  -0.06856  0  -0.024528  -0.009228  0  4.027094  0
C  C78  1  0.54696807  0.60172666  0.92154627  1  0  -0.107779  0  3.735712  0  0  -0.148241  0  3.992041  0  0  -0.146904  0  4.010798  0  0.013909  0  -0.096337  -0.149141  0  3.979708  0
C  C79  1  0.45303181  0.39827099  0.07845357  1  0  -0.107668  0  3.735619  0  0  -0.148175  0  3.991946  0  0  -0.146839  0  4.010703  0  0.013707  0  -0.096347  -0.14907  0  3.979615  0
N  N80  1  0.05935620  0.12530162  0.73345773  1  0  -0.334846  0  3.237223  0  0  -0.262047  0  3.501866  0  0  -0.281455  0  3.520627  0  -1.225848  0  -0.323795  -0.248855  0  3.489103  0
N  N81  1  0.94064810  0.87469603  0.26654262  1  0  -0.334824  0  3.237239  0  0  -0.262041  0  3.501875  0  0  -0.281449  0  3.520635  0  -1.225808  0  -0.323808  -0.248848  0  3.489112  0
N  N82  1  0.28579968  0.39185331  0.49295465  1  0  -0.434933  0  2.920355  0  0  -0.411232  0  3.18753  0  0  -0.425588  0  3.199365  0  -1.157852  0  -0.323226  -0.401736  0  3.179299  0
N  N83  1  0.71420189  0.60814549  0.50704646  1  0  -0.434916  0  2.920327  0  0  -0.411206  0  3.187476  0  0  -0.425562  0  3.199311  0  -1.158053  0  -0.32319  -0.401708  0  3.179246  0
N  N84  1  0.33431981  0.16631755  0.42413141  1  0  -0.295876  0  2.826395  0  0  -0.296863  0  3.098185  0  0  -0.303873  0  3.112373  0  -0.663676  0  -0.215982  -0.292524  0  3.088167  0
N  N85  1  0.66567961  0.83368355  0.57586907  1  0  -0.295803  0  2.826273  0  0  -0.296799  0  3.098078  0  0  -0.303809  0  3.112266  0  -0.663707  0  -0.215928  -0.292459  0  3.088061  0
N  N86  1  0.38830319  0.25196197  0.36863909  1  0  -0.019985  0  3.512885  0  0  0.064022  0  3.74545  0  0  0.050359  0  3.770601  0  -0.775115  0  -0.125787  0.07266  0  3.730784  0
N  N87  1  0.61169623  0.74803914  0.63136139  1  0  -0.020129  0  3.512824  0  0  0.063867  0  3.745416  0  0  0.050202  0  3.770566  0  -0.775107  0  -0.125866  0.072505  0  3.730755  0
N  N88  1  0.47261518  0.75400236  0.30786564  1  0  -0.300171  0  3.075838  0  0  -0.264998  0  3.345974  0  0  -0.275462  0  3.360637  0  -1.199331  0  -0.314596  -0.25781  0  3.337087  0
N  N89  1  0.52738534  0.24599874  0.69213683  1  0  -0.300136  0  3.075797  0  0  -0.264963  0  3.345945  0  0  -0.275425  0  3.360607  0  -1.198908  0  -0.314555  -0.257775  0  3.337058  0
N  N90  1  0.29684749  0.19563311  0.23269303  1  0  0.0238  0  3.570621  0  0  0.111002  0  3.800973  0  0  0.098062  0  3.82661  0  -0.822181  0  -0.132574  0.147578  0  3.747833  0
N  N91  1  0.70315135  0.80436685  0.76730682  1  0  0.023665  0  3.570709  0  0  0.110962  0  3.800947  0  0  0.098021  0  3.826583  0  -0.822192  0  -0.132581  0.147552  0  3.747796  0
N  N92  1  0.15386022  0.32282750  0.21994837  1  0  -0.262042  0  2.824636  0  0  -0.254759  0  3.097822  0  0  -0.262841  0  3.112404  0  -0.680309  0  -0.216699  -0.258124  0  3.082893  0
N  N93  1  0.84613861  0.67717245  0.78005080  1  0  -0.262022  0  2.824659  0  0  -0.254768  0  3.097819  0  0  -0.262849  0  3.112401  0  -0.680167  0  -0.216703  -0.258138  0  3.082886  0
N  N94  1  0.13984670  0.10588940  0.17678167  1  0  -0.404573  0  3.190062  0  0  -0.32808  0  3.480817  0  0  -0.351888  0  3.493275  0  -1.208661  0  -0.345044  -0.311963  0  3.474965  0
N  N95  1  0.86015324  0.89411055  0.82321813  1  0  -0.404546  0  3.190049  0  0  -0.328048  0  3.480805  0  0  -0.351855  0  3.493264  0  -1.208661  0  -0.345039  -0.311931  0  3.474952  0
O  O96  1  0.96261823  0.30456757  0.94062547  1  0  -0.663057  0  1.98265  0  0  -0.600525  0  2.214996  0  0  -0.627321  0  2.206163  0  -1.197475  0  -0.330781  -0.581665  0  2.220187  0
O  O97  1  0.03737950  0.69543239  0.05936762  1  0  -0.663073  0  1.982457  0  0  -0.600568  0  2.214883  0  0  -0.627365  0  2.206048  0  -1.197055  0  -0.330856  -0.58171  0  2.220076  0
O  O98  1  0.75250685  0.29936906  0.87048230  1  0  -0.630418  0  1.977751  0  0  -0.565154  0  2.219114  0  0  -0.595059  0  2.213518  0  -1.139785  0  -0.332424  -0.543914  0  2.221999  0
O  O99  1  0.24748814  0.70063205  0.12951156  1  0  -0.630366  0  1.97772  0  0  -0.565094  0  2.219116  0  0  -0.595  0  2.213521  0  -1.139611  0  -0.332357  -0.543854  0  2.221999  0
O  O100  1  0.24998711  0.79845321  0.84041785  1  0  -0.650161  0  1.919296  0  0  -0.599224  0  2.154352  0  0  -0.624602  0  2.145847  0  -1.190312  0  -0.331468  -0.581152  0  2.15904  0
O  O101  1  0.75000352  0.20155020  0.15958226  1  0  -0.650168  0  1.919189  0  0  -0.599257  0  2.154257  0  0  -0.624626  0  2.145733  0  -1.19032  0  -0.331474  -0.581184  0  2.158938  0
O  O102  1  0.16863188  0.94188328  0.96751622  1  0  -0.668911  0  2.09848  0  0  -0.582514  0  2.359529  0  0  -0.615369  0  2.347435  0  -1.15948  0  -0.335305  -0.559477  0  2.366393  0
O  O103  1  0.83136701  0.05811899  0.03248358  1  0  -0.668885  0  2.098436  0  0  -0.58251  0  2.359505  0  0  -0.615366  0  2.347412  0  -1.159615  0  -0.33528  -0.559472  0  2.36637  0
O  O104  1  0.70809466  0.82019535  0.10584713  1  0  -0.532891  0  2.079881  0  0  -0.489401  0  2.291073  0  0  -0.507211  0  2.283131  0  -1.152275  0  -0.371021  -0.476453  0  2.295939  0
O  O105  1  0.29190691  0.17980345  0.89414990  1  0  -0.532911  0  2.079747  0  0  -0.489409  0  2.290981  0  0  -0.507219  0  2.283037  0  -1.152322  0  -0.371082  -0.476461  0  2.295847  0
