# generated using pymatgen
data_ZnH16C32N4(ClO)4
_symmetry_space_group_name_H-M   'P 1'
_cell_length_a   9.08557737
_cell_length_b   10.01401833
_cell_length_c   16.79042835
_cell_angle_alpha   95.39385087
_cell_angle_beta   90.74119735
_cell_angle_gamma   106.46000668
_symmetry_Int_Tables_number   1
_chemical_formula_structural   ZnH16C32N4(ClO)4
_chemical_formula_sum   'Zn2 H32 C64 N8 Cl8 O8'
_cell_volume   1457.29915515
_cell_formula_units_Z   2
loop_
 _symmetry_equiv_pos_site_id
 _symmetry_equiv_pos_as_xyz
  1  'x, y, z'
loop_
 _atom_site_type_symbol
 _atom_site_label
 _atom_site_symmetry_multiplicity
 _atom_site_fract_x
 _atom_site_fract_y
 _atom_site_fract_z
 _atom_site_occupancy
 _atom_site_hle17_bader_spin_density
 _atom_site_hle17_ddec_charge
 _atom_site_hle17_ddec_spin_density
 _atom_site_hle17_ddec_sum_bond_order
 _atom_site_hle17_magmom
 _atom_site_hse06_10hf_bader_spin_density
 _atom_site_hse06_10hf_ddec_charge
 _atom_site_hse06_10hf_ddec_spin_density
 _atom_site_hse06_10hf_ddec_sum_bond_order
 _atom_site_hse06_10hf_magmom
 _atom_site_hse06_bader_spin_density
 _atom_site_hse06_ddec_charge
 _atom_site_hse06_ddec_spin_density
 _atom_site_hse06_ddec_sum_bond_order
 _atom_site_hse06_magmom
 _atom_site_pbe_bader_spin_density
 _atom_site_pbe_cm5_charge
 _atom_site_pbe_ddec_charge
 _atom_site_pbe_ddec_spin_density
 _atom_site_pbe_ddec_sum_bond_order
 _atom_site_pbe_magmom
Zn  Zn0  1  0.94561149  0.71394738  0.75636435  1  0  0.956869  0  1.951807  0  0  0.764444  0  2.408043  0  0  0.809859  0  2.36067  0  0  0.690873  0.733058  0  2.440147  0
Zn  Zn1  1  0.05438068  0.28604122  0.24363207  1  0  0.956868  0  1.951891  0  0  0.764449  0  2.408105  0  0  0.809863  0  2.360733  0  0  0.69083  0.732984  0  2.440211  0
H  H2  1  0.66206449  0.76304885  0.85079291  1  0  0.078099  0  0.981586  0  0  0.081955  0  1.055373  0  0  0.084126  0  1.05424  0  0  0.109627  0.080467  0  1.055976  0
H  H3  1  0.33792674  0.23693659  0.14920095  1  0  0.078128  0  0.981547  0  0  0.081977  0  1.055386  0  0  0.084155  0  1.054232  0  0  0.109617  0.080486  0  1.055987  0
H  H4  1  0.49625535  0.92573199  0.84614774  1  0  0.100865  0  0.958724  0  0  0.113257  0  1.013277  0  0  0.115475  0  1.01463  0  0  0.10405  0.111703  0  1.012484  0
H  H5  1  0.50373879  0.07425241  0.15384849  1  0  0.100987  0  0.95871  0  0  0.113304  0  1.013304  0  0  0.11552  0  1.014662  0  0  0.104071  0.111752  0  1.012518  0
H  H6  1  0.56821134  0.12052045  0.75693817  1  0  0.11416  0  0.913822  0  0  0.129128  0  0.964683  0  0  0.132262  0  0.962401  0  0  0.116042  0.126953  0  0.966104  0
H  H7  1  0.43179140  0.87947761  0.24306423  1  0  0.114112  0  0.913921  0  0  0.129091  0  0.964764  0  0  0.132224  0  0.962482  0  0  0.116016  0.126918  0  0.966182  0
H  H8  1  0.74164137  0.23399979  0.65042585  1  0  0.105868  0  0.94121  0  0  0.115596  0  1.001741  0  0  0.11884  0  1.000334  0  0  0.102828  0.113317  0  1.002715  0
H  H9  1  0.25837021  0.76600563  0.34958061  1  0  0.105845  0  0.941267  0  0  0.115621  0  1.00174  0  0  0.118865  0  1.000331  0  0  0.102866  0.113347  0  1.002703  0
H  H10  1  0.96679159  0.24103801  0.56576141  1  0  0.116151  0  0.975816  0  0  0.126051  0  1.038053  0  0  0.129554  0  1.035784  0  0  0.101863  0.123412  0  1.039835  0
H  H11  1  0.03322316  0.75897056  0.43424704  1  0  0.116085  0  0.975972  0  0  0.125981  0  1.038174  0  0  0.129483  0  1.035908  0  0  0.101847  0.123357  0  1.039966  0
H  H12  1  0.18951232  0.15404120  0.52997719  1  0  0.105651  0  0.969541  0  0  0.11098  0  1.039966  0  0  0.114452  0  1.0373  0  0  0.102521  0.108435  0  1.041859  0
H  H13  1  0.81051128  0.84596731  0.47002840  1  0  0.105693  0  0.969522  0  0  0.11106  0  1.039898  0  0  0.114537  0  1.037222  0  0  0.10252  0.108513  0  1.04179  0
H  H14  1  0.35099590  0.99374587  0.55775520  1  0  0.093896  0  0.963665  0  0  0.098896  0  1.031321  0  0  0.102452  0  1.030114  0  0  0.096966  0.09651  0  1.032012  0
H  H15  1  0.64901075  0.00624690  0.44224342  1  0  0.093734  0  0.963801  0  0  0.098784  0  1.03141  0  0  0.102306  0  1.030238  0  0  0.096933  0.096393  0  1.0321  0
H  H16  1  0.26574479  0.82446248  0.65988021  1  0  0.064558  0  0.960714  0  0  0.06591  0  1.038504  0  0  0.068413  0  1.036379  0  0  0.10271  0.064068  0  1.04007  0
H  H17  1  0.73425492  0.17552187  0.34011312  1  0  0.064636  0  0.960718  0  0  0.066051  0  1.038438  0  0  0.068521  0  1.036344  0  0  0.102746  0.06421  0  1.040012  0
H  H18  1  0.02563024  0.96110966  0.91018632  1  0  0.071038  0  0.943886  0  0  0.076176  0  1.015912  0  0  0.079037  0  1.013102  0  0  0.108067  0.073933  0  1.018305  0
H  H19  1  0.97433087  0.03886746  0.08980550  1  0  0.071202  0  0.943872  0  0  0.076215  0  1.015996  0  0  0.079075  0  1.013188  0  0  0.108066  0.073975  0  1.018379  0
H  H20  1  0.19650061  0.01137996  0.03456391  1  0  0.092548  0  0.980877  0  0  0.099335  0  1.050148  0  0  0.102164  0  1.04983  0  0  0.095779  0.097277  0  1.050657  0
H  H21  1  0.80345515  0.98861190  0.96543334  1  0  0.092498  0  0.980818  0  0  0.099375  0  1.050024  0  0  0.102206  0  1.049704  0  0  0.095796  0.097317  0  1.050525  0
H  H22  1  0.37071723  0.86047027  0.05391687  1  0  0.108713  0  0.939459  0  0  0.119353  0  1.000159  0  0  0.122696  0  0.997635  0  0  0.109116  0.116873  0  1.002157  0
H  H23  1  0.62924177  0.13952902  0.94608913  1  0  0.108772  0  0.939592  0  0  0.119526  0  1.00013  0  0  0.122785  0  0.997706  0  0  0.109178  0.117036  0  1.002156  0
H  H24  1  0.47781120  0.66875916  0.99679698  1  0  0.107104  0  0.960675  0  0  0.117135  0  1.022501  0  0  0.120455  0  1.021031  0  0  0.099214  0.114654  0  1.023782  0
H  H25  1  0.52217448  0.33125162  0.00321295  1  0  0.107148  0  0.960622  0  0  0.117131  0  1.022545  0  0  0.120468  0  1.021033  0  0  0.099169  0.114673  0  1.023801  0
H  H26  1  0.49998001  0.50261716  0.87970915  1  0  0.117736  0  0.977412  0  0  0.123824  0  1.044237  0  0  0.127669  0  1.042025  0  0  0.103899  0.120902  0  1.046083  0
H  H27  1  0.50002502  0.49739566  0.12030176  1  0  0.117718  0  0.977489  0  0  0.123742  0  1.044366  0  0  0.127591  0  1.042138  0  0  0.103857  0.120829  0  1.04621  0
H  H28  1  0.42501778  0.40514499  0.73761139  1  0  0.119956  0  0.909048  0  0  0.133442  0  0.95995  0  0  0.13735  0  0.956477  0  0  0.11923  0.13056  0  0.962467  0
H  H29  1  0.57499936  0.59486778  0.26239850  1  0  0.119817  0  0.909107  0  0  0.133388  0  0.959923  0  0  0.137298  0  0.956446  0  0  0.119228  0.13051  0  0.962433  0
H  H30  1  0.23949859  0.37601925  0.61911233  1  0  0.107193  0  0.960822  0  0  0.116142  0  1.023666  0  0  0.118606  0  1.024042  0  0  0.105951  0.114431  0  1.023387  0
H  H31  1  0.76053186  0.62399341  0.38089238  1  0  0.107106  0  0.960823  0  0  0.116158  0  1.023568  0  0  0.118619  0  1.023945  0  0  0.106006  0.114447  0  1.023294  0
H  H32  1  0.03541046  0.49997369  0.62918341  1  0  0.088423  0  0.93835  0  0  0.092872  0  1.008145  0  0  0.095989  0  1.004974  0  0  0.116363  0.090584  0  1.010331  0
H  H33  1  0.96461273  0.50002949  0.37081477  1  0  0.088312  0  0.938346  0  0  0.092773  0  1.00818  0  0  0.095891  0  1.00501  0  0  0.116257  0.090488  0  1.01037  0
C  C34  1  0.68986024  0.84988887  0.81377436  1  0  0.143441  0  3.681675  0  0  0.109326  0  3.938613  0  0  0.117914  0  3.954346  0  0  0.054107  0.103938  0  3.927635  0
C  C35  1  0.31013701  0.15010180  0.18622164  1  0  0.143411  0  3.68177  0  0  0.109209  0  3.938722  0  0  0.117798  0  3.954485  0  0  0.054073  0.103816  0  3.927731  0
C  C36  1  0.59726862  0.94067664  0.81001079  1  0  -0.125494  0  3.736913  0  0  -0.137586  0  3.993619  0  0  -0.144943  0  4.015094  0  0  -0.088639  -0.132881  0  3.978995  0
C  C37  1  0.40272903  0.05931195  0.18998629  1  0  -0.125583  0  3.736892  0  0  -0.137559  0  3.99357  0  0  -0.144925  0  4.01506  0  0  -0.088624  -0.132858  0  3.978965  0
C  C38  1  0.63583170  0.04670851  0.76019644  1  0  -0.037418  0  3.671292  0  0  -0.065702  0  3.92281  0  0  -0.062213  0  3.938488  0  0  -0.060758  -0.067692  0  3.911818  0
C  C39  1  0.36417008  0.95328639  0.23980400  1  0  -0.037362  0  3.671427  0  0  -0.065677  0  3.922894  0  0  -0.062186  0  3.93858  0  0  -0.060725  -0.067667  0  3.911908  0
C  C40  1  0.76616114  0.06040501  0.71313257  1  0  0.021842  0  3.812659  0  0  0.038296  0  4.046183  0  0  0.036163  0  4.069767  0  0  -0.008818  0.039619  0  4.030306  0
C  C41  1  0.23384895  0.93959199  0.28687048  1  0  0.021767  0  3.812729  0  0  0.038286  0  4.046166  0  0  0.036134  0  4.06977  0  0  -0.008835  0.039616  0  4.030302  0
C  C42  1  0.85473348  0.96595506  0.72224542  1  0  0.124866  0  3.754998  0  0  0.11649  0  3.992728  0  0  0.120715  0  4.013897  0  0  0.114294  0.113772  0  3.97841  0
C  C43  1  0.14527161  0.03403983  0.27775507  1  0  0.124833  0  3.755147  0  0  0.116429  0  3.992757  0  0  0.120667  0  4.013935  0  0  0.114285  0.1137  0  3.978434  0
C  C44  1  0.81010348  0.16166194  0.65660362  1  0  -0.108798  0  3.746885  0  0  -0.133173  0  4.004924  0  0  -0.137387  0  4.028299  0  0  -0.09081  -0.130265  0  3.989199  0
C  C45  1  0.18990824  0.83834032  0.34340149  1  0  -0.108818  0  3.747171  0  0  -0.133277  0  4.005193  0  0  -0.137485  0  4.028567  0  0  -0.090817  -0.13036  0  3.989467  0
C  C46  1  0.93439575  0.16722819  0.61064263  1  0  -0.101207  0  3.733459  0  0  -0.125639  0  3.989077  0  0  -0.129213  0  4.013665  0  0  -0.085702  -0.123149  0  3.97268  0
C  C47  1  0.06562189  0.83277196  0.38936306  1  0  -0.10113  0  3.733551  0  0  -0.125503  0  3.989246  0  0  -0.129095  0  4.013826  0  0  -0.085714  -0.123003  0  3.97287  0
C  C48  1  0.02853986  0.07629741  0.62017137  1  0  0.036405  0  3.761916  0  0  0.055844  0  3.987004  0  0  0.053021  0  4.011656  0  0  0.00118  0.057263  0  3.970764  0
C  C49  1  0.97147747  0.92370168  0.37983307  1  0  0.036523  0  3.761757  0  0  0.055806  0  3.986977  0  0  0.053028  0  4.011572  0  0  0.001219  0.057214  0  3.970762  0
C  C50  1  0.99018762  0.97654515  0.67663917  1  0  0.140598  0  3.741549  0  0  0.134141  0  3.975078  0  0  0.138383  0  3.996023  0  0  0.118183  0.131173  0  3.961266  0
C  C51  1  0.00982508  0.02344976  0.32336500  1  0  0.140597  0  3.741593  0  0  0.134264  0  3.975031  0  0  0.138487  0  3.995971  0  0  0.11818  0.131308  0  3.961208  0
C  C52  1  0.16087178  0.08125775  0.57573773  1  0  -0.037766  0  3.657781  0  0  -0.060439  0  3.899924  0  0  -0.058135  0  3.918253  0  0  -0.061948  -0.061538  0  3.887413  0
C  C53  1  0.83914728  0.91874345  0.42426863  1  0  -0.037913  0  3.657859  0  0  -0.060579  0  3.900017  0  0  -0.058288  0  3.918326  0  0  -0.062002  -0.061669  0  3.887512  0
C  C54  1  0.24840292  0.99309136  0.59082529  1  0  -0.121921  0  3.746456  0  0  -0.134055  0  4.000616  0  0  -0.14168  0  4.022459  0  0  -0.087987  -0.129259  0  3.985966  0
C  C55  1  0.75160698  0.00690143  0.40917635  1  0  -0.121622  0  3.746533  0  0  -0.133793  0  4.00069  0  0  -0.141385  0  4.022543  0  0  -0.087899  -0.12899  0  3.986037  0
C  C56  1  0.20088211  0.89754359  0.64822655  1  0  0.154474  0  3.706078  0  0  0.119512  0  3.968966  0  0  0.128132  0  3.984146  0  0  0.05347  0.113935  0  3.958652  0
C  C57  1  0.79911801  0.10244608  0.35177360  1  0  0.154318  0  3.705877  0  0  0.119299  0  3.968828  0  0  0.127947  0  3.98401  0  0  0.053423  0.113716  0  3.958521  0
C  C58  1  0.10534680  0.89993207  0.91961943  1  0  0.143955  0  3.710509  0  0  0.109654  0  3.974446  0  0  0.117863  0  3.989518  0  0  0.049904  0.104401  0  3.964576  0
C  C59  1  0.89461987  0.10005241  0.08037582  1  0  0.143755  0  3.710976  0  0  0.109568  0  3.9749  0  0  0.117774  0  3.989984  0  0  0.049905  0.104311  0  3.96501  0
C  C60  1  0.20162759  0.92787418  0.98917670  1  0  -0.134494  0  3.760337  0  0  -0.149548  0  4.020476  0  0  -0.156642  0  4.041826  0  0  -0.094736  -0.145162  0  4.006798  0
C  C61  1  0.79833889  0.07212706  0.01081938  1  0  -0.134232  0  3.760169  0  0  -0.149379  0  4.020336  0  0  -0.156469  0  4.041659  0  0  -0.094718  -0.145  0  4.006684  0
C  C62  1  0.29951867  0.84674689  0.99933777  1  0  -0.036304  0  3.676193  0  0  -0.062896  0  3.926669  0  0  -0.059734  0  3.94331  0  0  -0.062672  -0.065285  0  3.916093  0
C  C63  1  0.70045518  0.15326068  0.00066409  1  0  -0.036471  0  3.676231  0  0  -0.063261  0  3.926633  0  0  -0.060037  0  3.943311  0  0  -0.062815  -0.065662  0  3.916058  0
C  C64  1  0.30595494  0.74191806  0.93810842  1  0  0.02777  0  3.790833  0  0  0.044738  0  4.023648  0  0  0.042286  0  4.048316  0  0  -0.002372  0.046042  0  4.007474  0
C  C65  1  0.69402368  0.25808743  0.06189638  1  0  0.027453  0  3.791308  0  0  0.044844  0  4.023577  0  0  0.042395  0  4.048226  0  0  -0.002283  0.046155  0  4.00743  0
C  C66  1  0.20574263  0.72268129  0.86973064  1  0  0.124039  0  3.756947  0  0  0.11856  0  3.996192  0  0  0.121954  0  4.018272  0  0  0.113389  0.116563  0  3.981234  0
C  C67  1  0.79424362  0.27731682  0.13027152  1  0  0.124156  0  3.757353  0  0  0.11851  0  3.996578  0  0  0.121907  0  4.01866  0  0  0.113388  0.116503  0  3.981621  0
C  C68  1  0.40876160  0.65749845  0.94173081  1  0  -0.108358  0  3.737473  0  0  -0.132869  0  3.995511  0  0  -0.137236  0  4.018236  0  0  -0.089678  -0.129872  0  3.980373  0
C  C69  1  0.59123085  0.34251961  0.05827720  1  0  -0.108155  0  3.737647  0  0  -0.132764  0  3.995563  0  0  -0.137122  0  4.018278  0  0  -0.089559  -0.129775  0  3.980421  0
C  C70  1  0.41945761  0.56525068  0.87818753  1  0  -0.092034  0  3.712427  0  0  -0.115189  0  3.970653  0  0  -0.117266  0  3.991107  0  0  -0.083  -0.113712  0  3.957004  0
C  C71  1  0.58054393  0.43475793  0.12182074  1  0  -0.092013  0  3.712785  0  0  -0.115126  0  3.971054  0  0  -0.117202  0  3.99152  0  0  -0.082964  -0.113636  0  3.957399  0
C  C72  1  0.32419286  0.54729730  0.80712303  1  0  0.028949  0  3.78137  0  0  0.042353  0  4.018987  0  0  0.039759  0  4.042838  0  0  -0.000975  0.044  0  4.002823  0
C  C73  1  0.67581025  0.45270919  0.19288396  1  0  0.028884  0  3.781709  0  0  0.042272  0  4.01932  0  0  0.039675  0  4.043175  0  0  -0.001009  0.04392  0  4.003161  0
C  C74  1  0.21206423  0.62072277  0.80426441  1  0  0.126605  0  3.754777  0  0  0.117683  0  3.993417  0  0  0.12154  0  4.015837  0  0  0.114057  0.115217  0  3.978122  0
C  C75  1  0.78793809  0.37927738  0.19573749  1  0  0.126663  0  3.754821  0  0  0.117753  0  3.993411  0  0  0.121612  0  4.015828  0  0  0.114043  0.115288  0  3.978115  0
C  C76  1  0.33545901  0.45835675  0.73826533  1  0  -0.026861  0  3.640943  0  0  -0.051358  0  3.886106  0  0  -0.047619  0  3.901401  0  0  -0.053783  -0.053578  0  3.87567  0
C  C77  1  0.66456009  0.54165491  0.26174036  1  0  -0.026787  0  3.641163  0  0  -0.051363  0  3.886365  0  0  -0.047622  0  3.901659  0  0  -0.053749  -0.053573  0  3.875919  0
C  C78  1  0.23409619  0.44229526  0.67356592  1  0  -0.120276  0  3.736097  0  0  -0.136702  0  3.998096  0  0  -0.14464  0  4.021092  0  0  -0.08516  -0.131679  0  3.98267  0
C  C79  1  0.76592952  0.55771638  0.32643927  1  0  -0.120174  0  3.73589  0  0  -0.136661  0  3.997908  0  0  -0.144598  0  4.020908  0  0  -0.085194  -0.131645  0  3.982495  0
C  C80  1  0.12027615  0.51294671  0.67797038  1  0  0.153893  0  3.676804  0  0  0.116141  0  3.941235  0  0  0.125532  0  3.955951  0  0  0.059352  0.109887  0  3.931498  0
C  C81  1  0.87974354  0.48705969  0.32203267  1  0  0.154149  0  3.676506  0  0  0.116287  0  3.940983  0  0  0.125669  0  3.955711  0  0  0.059391  0.110036  0  3.931248  0
C  C82  1  0.79963280  0.63196960  0.58399411  1  0  0.652185  0  3.987393  0  0  0.598099  0  4.303598  0  0  0.63189  0  4.294613  0  0  0.189932  0.575098  0  4.308816  0
C  C83  1  0.20037816  0.36803246  0.41599490  1  0  0.652229  0  3.987525  0  0  0.598065  0  4.303818  0  0  0.631871  0  4.294806  0  0  0.189879  0.575049  0  4.309051  0
C  C84  1  0.64343502  0.56380233  0.54112114  1  0  -0.122795  0  3.73742  0  0  -0.121285  0  3.992722  0  0  -0.123002  0  4.007068  0  0  -0.02346  -0.120542  0  3.983635  0
C  C85  1  0.35657325  0.43620495  0.45886571  1  0  -0.122933  0  3.737428  0  0  -0.121358  0  3.992832  0  0  -0.123081  0  4.007176  0  0  -0.02343  -0.120626  0  3.983743  0
C  C86  1  0.61303275  0.43075995  0.49930103  1  0  0.051381  0  3.81011  0  0  0.045321  0  4.088339  0  0  0.048504  0  4.106977  0  0  0.001144  0.042877  0  4.076274  0
C  C87  1  0.38697783  0.56925775  0.50068220  1  0  0.051622  0  3.809874  0  0  0.045419  0  4.088291  0  0  0.048598  0  4.106931  0  0  0.001233  0.042982  0  4.076211  0
C  C88  1  0.47090664  0.36758656  0.45873153  1  0  0.058306  0  3.792197  0  0  0.053189  0  4.06996  0  0  0.056594  0  4.088385  0  0  0.001918  0.050676  0  4.058052  0
C  C89  1  0.52910883  0.63242899  0.54124868  1  0  0.058076  0  3.792123  0  0  0.053024  0  4.069885  0  0  0.056431  0  4.08831  0  0  0.001915  0.050518  0  4.057981  0
C  C90  1  0.77037390  0.47746690  0.86933656  1  0  0.664408  0  3.962141  0  0  0.612776  0  4.270776  0  0  0.647392  0  4.260429  0  0  0.195245  0.589437  0  4.276703  0
C  C91  1  0.22961461  0.52253117  0.13066265  1  0  0.664125  0  3.962545  0  0  0.612506  0  4.271194  0  0  0.64712  0  4.260844  0  0  0.19507  0.589148  0  4.277108  0
C  C92  1  0.89324407  0.49247082  0.93558886  1  0  -0.132978  0  3.712763  0  0  -0.131637  0  3.96903  0  0  -0.133821  0  3.984171  0  0  -0.024583  -0.13108  0  3.959736  0
C  C93  1  0.10674230  0.50752413  0.06441195  1  0  -0.132832  0  3.712865  0  0  -0.131498  0  3.969102  0  0  -0.133683  0  3.984238  0  0  -0.024549  -0.130922  0  3.959754  0
C  C94  1  0.98972285  0.40510490  0.93261710  1  0  0.058668  0  3.782602  0  0  0.052933  0  4.063871  0  0  0.05608  0  4.083058  0  0  0.003791  0.051004  0  4.051265  0
C  C95  1  0.01026561  0.59489320  0.06738449  1  0  0.058638  0  3.782529  0  0  0.052885  0  4.063875  0  0  0.056035  0  4.083055  0  0  0.003822  0.050956  0  4.051251  0
C  C96  1  0.09420609  0.41199897  0.99632300  1  0  0.067634  0  3.764537  0  0  0.062648  0  4.042502  0  0  0.065991  0  4.061776  0  0  0.006258  0.060307  0  4.030015  0
C  C97  1  0.90578237  0.58799913  0.00367860  1  0  0.067836  0  3.764258  0  0  0.062844  0  4.042205  0  0  0.066181  0  4.061489  0  0  0.006356  0.060493  0  4.029739  0
N  N98  1  0.81554479  0.86334452  0.77182765  1  0  -0.327414  0  3.27155  0  0  -0.256238  0  3.537104  0  0  -0.273336  0  3.552753  0  0  -0.315509  -0.244817  0  3.526386  0
N  N99  1  0.18445388  0.13664720  0.22816901  1  0  -0.32732  0  3.271485  0  0  -0.256091  0  3.537062  0  0  -0.273154  0  3.552609  0  0  -0.315415  -0.244653  0  3.52631  0
N  N100  1  0.07470232  0.88813034  0.68902284  1  0  -0.336745  0  3.263926  0  0  -0.271514  0  3.528707  0  0  -0.287672  0  3.543913  0  0  -0.314276  -0.260726  0  3.518375  0
N  N101  1  0.92530245  0.11186349  0.31097699  1  0  -0.336772  0  3.263597  0  0  -0.271615  0  3.528471  0  0  -0.287773  0  3.543668  0  0  -0.314336  -0.260815  0  3.51812  0
N  N102  1  0.10543429  0.79891581  0.86235313  1  0  -0.338011  0  3.271398  0  0  -0.275072  0  3.541188  0  0  -0.290751  0  3.556864  0  0  -0.314457  -0.264517  0  3.53029  0
N  N103  1  0.89454325  0.20107178  0.13764302  1  0  -0.337977  0  3.271622  0  0  -0.275087  0  3.54149  0  0  -0.290767  0  3.557168  0  0  -0.314424  -0.264487  0  3.530554  0
N  N104  1  0.11083123  0.60053145  0.74109181  1  0  -0.338712  0  3.289398  0  0  -0.263998  0  3.555631  0  0  -0.281479  0  3.570559  0  0  -0.318317  -0.252322  0  3.545362  0
N  N105  1  0.88917382  0.39946346  0.25891047  1  0  -0.338985  0  3.28936  0  0  -0.264177  0  3.555524  0  0  -0.281652  0  3.570436  0  0  -0.318329  -0.252483  0  3.545233  0
Cl  Cl106  1  0.75507821  0.34743800  0.49664316  1  0  -0.036167  0  1.497933  0  0  -0.018241  0  1.759456  0  0  -0.019687  0  1.753465  0  0  0.047751  -0.017083  0  1.763688  0
Cl  Cl107  1  0.24493309  0.65257558  0.50334643  1  0  -0.036103  0  1.498072  0  0  -0.018133  0  1.759637  0  0  -0.019577  0  1.753653  0  0  0.047782  -0.016999  0  1.763869  0
Cl  Cl108  1  0.43478080  0.20282673  0.40763569  1  0  -0.056829  0  1.447582  0  0  -0.038072  0  1.691128  0  0  -0.040388  0  1.688107  0  0  0.025427  -0.036661  0  1.693288  0
Cl  Cl109  1  0.56523496  0.79718681  0.59235158  1  0  -0.056761  0  1.447603  0  0  -0.038017  0  1.691139  0  0  -0.040331  0  1.688125  0  0  0.025422  -0.036637  0  1.693312  0
Cl  Cl110  1  0.97861969  0.28776861  0.84917953  1  0  -0.057152  0  1.465415  0  0  -0.042945  0  1.711774  0  0  -0.046152  0  1.711335  0  0  0.016777  -0.040639  0  1.712313  0
Cl  Cl111  1  0.02137121  0.71223366  0.15082171  1  0  -0.057129  0  1.465359  0  0  -0.042909  0  1.711717  0  0  -0.046115  0  1.711277  0  0  0.016777  -0.040613  0  1.71225  0
Cl  Cl112  1  0.21086069  0.30205892  0.98994487  1  0  -0.064854  0  1.447331  0  0  -0.043921  0  1.694887  0  0  -0.046173  0  1.690607  0  0  0.024956  -0.042488  0  1.698641  0
Cl  Cl113  1  0.78912592  0.69794022  0.01005556  1  0  -0.064944  0  1.44735  0  0  -0.044016  0  1.694921  0  0  -0.046266  0  1.690644  0  0  0.024913  -0.042575  0  1.698677  0
O  O114  1  0.80335724  0.60958423  0.65740316  1  0  -0.61941  0  2.047576  0  0  -0.557531  0  2.312037  0  0  -0.585221  0  2.299552  0  0  -0.325897  -0.53756  0  2.319429  0
O  O115  1  0.19664100  0.39040526  0.34258207  1  0  -0.619313  0  2.04764  0  0  -0.557422  0  2.312162  0  0  -0.585121  0  2.299673  0  0  -0.32583  -0.537461  0  2.319563  0
O  O116  1  0.90420400  0.69929870  0.54335475  1  0  -0.604192  0  1.929069  0  0  -0.564451  0  2.16119  0  0  -0.589426  0  2.155812  0  0  -0.323673  -0.54621  0  2.164087  0
O  O117  1  0.09581593  0.30070448  0.45664219  1  0  -0.604336  0  1.929021  0  0  -0.56456  0  2.161184  0  0  -0.58954  0  2.155796  0  0  -0.323749  -0.546318  0  2.164081  0
O  O118  1  0.78971693  0.57525605  0.82388041  1  0  -0.63421  0  2.071309  0  0  -0.572454  0  2.34475  0  0  -0.600688  0  2.331097  0  0  -0.328903  -0.552201  0  2.352941  0
O  O119  1  0.21027108  0.42473674  0.17611555  1  0  -0.634078  0  2.071296  0  0  -0.572276  0  2.344626  0  0  -0.600544  0  2.331049  0  0  -0.328869  -0.552042  0  2.352818  0
O  O120  1  0.65658462  0.37138523  0.86805294  1  0  -0.607968  0  1.87175  0  0  -0.569812  0  2.09163  0  0  -0.594735  0  2.083369  0  0  -0.330217  -0.551499  0  2.095976  0
O  O121  1  0.34340166  0.62860978  0.13195264  1  0  -0.607838  0  1.872054  0  0  -0.569676  0  2.091905  0  0  -0.594595  0  2.083655  0  0  -0.330142  -0.551421  0  2.096271  0
