# generated using pymatgen
data_CoH10C12(NO)4
_symmetry_space_group_name_H-M   'P 1'
_cell_length_a   12.62439446
_cell_length_b   13.03233991
_cell_length_c   13.53801646
_cell_angle_alpha   76.94529159
_cell_angle_beta   62.19917247
_cell_angle_gamma   61.03192661
_symmetry_Int_Tables_number   1
_chemical_formula_structural   CoH10C12(NO)4
_chemical_formula_sum   'Co4 H40 C48 N16 O16'
_cell_volume   1723.75521427
_cell_formula_units_Z   4
loop_
 _symmetry_equiv_pos_site_id
 _symmetry_equiv_pos_as_xyz
  1  'x, y, z'
loop_
 _atom_site_type_symbol
 _atom_site_label
 _atom_site_symmetry_multiplicity
 _atom_site_fract_x
 _atom_site_fract_y
 _atom_site_fract_z
 _atom_site_occupancy
 _atom_site_pbe_bader_charge
 _atom_site_pbe_bader_spin_density
 _atom_site_pbe_cm5_charge
 _atom_site_pbe_ddec_charge
 _atom_site_pbe_ddec_spin_density
 _atom_site_pbe_ddec_sum_bond_order
 _atom_site_pbe_magmom
Co  Co0  1  0.41890959  0.16232458  0.74990779  1  1.205042  2.567036  0.667588  0.783684  2.792867  2.469544  2.527
Co  Co1  1  0.83110683  0.33771872  0.75008095  1  1.205954  2.566164  0.667865  0.784127  2.791846  2.469363  2.526
Co  Co2  1  0.58108996  0.83768113  0.25009206  1  1.205142  2.567013  0.667625  0.78372  2.79284  2.469658  2.527
Co  Co3  1  0.16889126  0.66227997  0.24992291  1  1.205994  2.566146  0.667855  0.784028  2.791838  2.469633  2.526
H  H4  1  0.10791553  0.95750413  0.96061314  1  0.09642  0.001615  0.111817  0.131126  0.000744  1.012171  0.001
H  H5  1  0.93121204  0.54281588  0.96069413  1  0.094563  0.001614  0.11122  0.131541  0.000738  1.013453  0.001
H  H6  1  0.93467566  0.95727318  0.53919498  1  0.101689  0.001611  0.111373  0.130659  0.000744  1.013207  0.001
H  H7  1  0.52583327  0.54252748  0.53955055  1  0.091337  0.001619  0.111505  0.131802  0.000738  1.012797  0.001
H  H8  1  0.89209313  0.04248930  0.03938378  1  0.095876  0.001617  0.111802  0.1311  0.000744  1.012069  0.001
H  H9  1  0.06879353  0.45717580  0.03931026  1  0.094534  0.001614  0.111217  0.13152  0.000739  1.01351  0.001
H  H10  1  0.06532015  0.04273253  0.46080056  1  0.101859  0.001611  0.111381  0.130643  0.000744  1.013206  0.001
H  H11  1  0.47416637  0.45746859  0.46044686  1  0.091457  0.001618  0.111506  0.131784  0.000737  1.012852  0.001
H  H12  1  0.43857835  0.84890689  0.04413506  1  0.138942  0.001151  0.10198  0.119116  0.00056  1.069359  0.0
H  H13  1  0.51702874  0.65128002  0.04418131  1  0.120732  0.00117  0.101858  0.119204  0.000559  1.069458  0.0
H  H14  1  0.71252008  0.84872542  0.45575142  1  0.093131  0.001204  0.101209  0.118014  0.000557  1.067398  0.0
H  H15  1  0.83146243  0.65116590  0.45579638  1  0.138534  0.001156  0.10125  0.117618  0.000562  1.068787  0.0
H  H16  1  0.56142445  0.15109180  0.95586593  1  0.139016  0.001151  0.102  0.119164  0.00056  1.069361  0.0
H  H17  1  0.48297132  0.34872218  0.95582687  1  0.120694  0.00117  0.101869  0.119212  0.000559  1.069567  0.0
H  H18  1  0.28747465  0.15127152  0.54424773  1  0.093246  0.001204  0.101223  0.118007  0.000557  1.067522  0.0
H  H19  1  0.16853613  0.34883630  0.54419729  1  0.138501  0.001156  0.101265  0.117644  0.000562  1.068793  0.0
H  H20  1  0.50868391  0.98567268  0.89729075  1  0.076523  0.003379  0.116152  0.085428  0.001503  0.996287  0.002
H  H21  1  0.59391183  0.51438818  0.89739021  1  0.0659  0.003402  0.117087  0.086315  0.001508  0.993987  0.002
H  H22  1  0.50569265  0.98550245  0.60256840  1  0.077131  0.003375  0.11623  0.084496  0.001502  0.996388  0.002
H  H23  1  0.89139747  0.51462401  0.60275390  1  0.063331  0.003405  0.116408  0.084878  0.001504  0.994421  0.002
H  H24  1  0.49131477  0.01433128  0.10270905  1  0.076574  0.003379  0.116161  0.085461  0.001503  0.99625  0.002
H  H25  1  0.40608602  0.48562191  0.10261005  1  0.065767  0.003403  0.117065  0.086216  0.001508  0.994072  0.002
H  H26  1  0.49430333  0.01450589  0.39743100  1  0.077183  0.003375  0.116254  0.084508  0.001502  0.996367  0.002
H  H27  1  0.10859713  0.48537468  0.39724718  1  0.063619  0.003404  0.116416  0.084869  0.001504  0.994456  0.002
H  H28  1  0.20866930  0.16171045  0.74744280  1  0.482495  7.2e-05  0.303479  0.305205  -7.7e-05  1.003166  0.0
H  H29  1  0.04379709  0.33848904  0.74753445  1  0.484982  6.4e-05  0.303305  0.306402  -7.2e-05  1.002223  0.0
H  H30  1  0.62975112  0.16159331  0.75227177  1  0.484142  7.5e-05  0.303028  0.305387  -7.4e-05  1.00379  0.0
H  H31  1  0.61771205  0.33841316  0.75272602  1  0.479419  6.3e-05  0.303024  0.304753  -7.5e-05  1.003557  0.0
H  H32  1  0.79132647  0.83829088  0.25255760  1  0.482629  7.2e-05  0.303469  0.305239  -7.7e-05  1.003136  0.0
H  H33  1  0.95620745  0.66150965  0.25246394  1  0.485054  6.3e-05  0.303309  0.306375  -7.2e-05  1.002301  0.0
H  H34  1  0.37025131  0.83840714  0.24772962  1  0.484155  7.5e-05  0.303043  0.305407  -7.4e-05  1.003731  0.0
H  H35  1  0.38228305  0.66158553  0.24727280  1  0.479352  6.3e-05  0.303015  0.304768  -7.4e-05  1.00348  0.0
H  H36  1  0.08179960  0.11831412  0.82586773  1  0.53223  -2.5e-05  0.30204  0.327751  -0.000154  0.978316  0.0
H  H37  1  0.09220644  0.38178940  0.82604075  1  0.51381  -2.9e-05  0.30253  0.328177  -0.000152  0.979181  0.0
H  H38  1  0.79996348  0.11832220  0.67379849  1  0.526329  -2.7e-05  0.302559  0.32861  -0.000152  0.978306  0.0
H  H39  1  0.52601170  0.38160921  0.67422505  1  0.51499  -3e-05  0.301934  0.328325  -0.000155  0.979315  0.0
H  H40  1  0.91820607  0.88168282  0.17412953  1  0.532214  -2.5e-05  0.302008  0.327738  -0.000154  0.978297  0.0
H  H41  1  0.90779388  0.61820929  0.17396091  1  0.513849  -2.9e-05  0.302533  0.328205  -0.000152  0.979196  0.0
H  H42  1  0.20003390  0.88168088  0.32620124  1  0.526485  -2.7e-05  0.302556  0.328637  -0.000152  0.978281  0.0
H  H43  1  0.47398477  0.61838773  0.32577682  1  0.515078  -3e-05  0.301946  0.328306  -0.000155  0.97934  0.0
C  C44  1  0.24095561  0.03958570  0.86776823  1  1.028355  0.001089  0.233479  0.465807  -2.3e-05  4.065653  0.001
C  C45  1  0.89112220  0.46061360  0.86786465  1  1.046325  0.001169  0.231996  0.462696  6.5e-05  4.064763  0.001
C  C46  1  0.71954242  0.03947019  0.63199535  1  0.965844  0.001192  0.231955  0.463175  9e-06  4.064438  0.001
C  C47  1  0.64810985  0.46055654  0.63240225  1  0.996393  0.001178  0.232904  0.461988  5.7e-05  4.063977  0.001
C  C48  1  0.75904806  0.96041124  0.13222743  1  1.028317  0.00109  0.233385  0.465736  -2.2e-05  4.065714  0.001
C  C49  1  0.10887755  0.53938772  0.13213894  1  1.046245  0.001168  0.232054  0.462792  6.5e-05  4.064639  0.001
C  C50  1  0.28045751  0.96053026  0.36800404  1  0.965553  0.001193  0.231954  0.463219  9e-06  4.064514  0.001
C  C51  1  0.35188966  0.53944127  0.36759443  1  0.996277  0.001178  0.232977  0.46197  5.7e-05  4.063952  0.001
C  C52  1  0.19576441  0.96344672  0.94979993  1  -0.054465  0.002791  -0.087009  -0.240546  0.001065  3.870303  0.002
C  C53  1  0.85422551  0.53683901  0.94982770  1  0.030707  0.003078  -0.087019  -0.241177  0.001324  3.871706  0.003
C  C54  1  0.84084785  0.96325847  0.55003205  1  0.030738  0.002697  -0.086349  -0.238525  0.001059  3.870454  0.002
C  C55  1  0.60875440  0.53666417  0.55040071  1  0.067889  0.003048  -0.087812  -0.242157  0.001323  3.87365  0.003
C  C56  1  0.80424220  0.03654584  0.05019766  1  -0.054408  0.002791  -0.086933  -0.240397  0.001066  3.870136  0.002
C  C57  1  0.14577693  0.46315793  0.05017629  1  0.030957  0.003078  -0.087034  -0.241167  0.001324  3.87183  0.003
C  C58  1  0.15915090  0.03674286  0.44996276  1  0.03173  0.002695  -0.086427  -0.238649  0.00106  3.870488  0.002
C  C59  1  0.39124548  0.46333540  0.44959829  1  0.067931  0.003048  -0.087838  -0.242146  0.001323  3.873706  0.003
C  C60  1  0.26496702  0.89474379  0.01377609  1  0.031329  -0.002666  -0.004923  0.028916  -0.003527  4.00193  -0.002
C  C61  1  0.72101529  0.60552186  0.01378179  1  -0.088443  -0.002453  -0.00546  0.029231  -0.00335  4.000743  -0.002
C  C62  1  0.84029628  0.89450515  0.48613114  1  -0.032708  -0.002609  -0.005497  0.025146  -0.003485  4.004124  -0.002
C  C63  1  0.67325966  0.60533901  0.48635679  1  -0.046589  -0.002468  -0.005056  0.029679  -0.003343  4.005704  -0.002
C  C64  1  0.73503779  0.10524789  0.98622370  1  0.031273  -0.002664  -0.004886  0.028967  -0.003525  4.001852  -0.002
C  C65  1  0.27898553  0.39447684  0.98622559  1  -0.088796  -0.002454  -0.005489  0.02908  -0.003351  4.000828  -0.002
C  C66  1  0.15970334  0.10549442  0.51386101  1  -0.032482  -0.002609  -0.00537  0.025405  -0.003484  4.003991  -0.002
C  C67  1  0.32673653  0.39466495  0.51364101  1  -0.045924  -0.002471  -0.005046  0.0297  -0.003345  4.005829  -0.002
C  C68  1  0.21594178  0.81383627  0.09840555  1  1.525643  -0.0021  0.211781  0.568204  -0.003197  4.162022  -0.003
C  C69  1  0.68538603  0.68642555  0.09842672  1  1.542758  -0.001824  0.213494  0.57091  -0.002896  4.155617  -0.003
C  C70  1  0.97028804  0.81346541  0.40158704  1  1.542747  -0.002131  0.213961  0.571865  -0.003216  4.158263  -0.003
C  C71  1  0.62796060  0.68623085  0.40171339  1  1.527508  -0.001831  0.210383  0.566425  -0.00287  4.16407  -0.003
C  C72  1  0.78406402  0.18615891  0.90159510  1  1.525652  -0.002099  0.211696  0.568013  -0.003196  4.162173  -0.003
C  C73  1  0.31462201  0.31356964  0.90158238  1  1.543262  -0.001824  0.213482  0.570858  -0.002897  4.155308  -0.003
C  C74  1  0.02970965  0.18653503  0.59840924  1  1.543196  -0.00213  0.213871  0.571794  -0.003215  4.158056  -0.003
C  C75  1  0.37203246  0.31377837  0.59828402  1  1.526831  -0.001832  0.210359  0.566503  -0.002872  4.16428  -0.003
C  C76  1  0.38085316  0.90139254  0.99602910  1  -0.032436  0.00724  -0.108325  -0.198837  0.003498  3.997056  0.006
C  C77  1  0.62290162  0.59875667  0.99613051  1  0.040041  0.00695  -0.108991  -0.201484  0.003391  3.997394  0.005
C  C78  1  0.71774234  0.90123026  0.50383946  1  0.025915  0.007139  -0.107839  -0.19722  0.003487  3.99599  0.006
C  C79  1  0.77811409  0.59868769  0.50397356  1  -0.025073  0.00702  -0.108614  -0.199266  0.003395  3.997619  0.005
C  C80  1  0.61915027  0.09860440  0.00397036  1  -0.03241  0.007241  -0.108325  -0.198911  0.003499  3.997049  0.006
C  C81  1  0.37709775  0.40124641  0.00387880  1  0.040748  0.00695  -0.108975  -0.201377  0.003391  3.997436  0.005
C  C82  1  0.28225429  0.09877282  0.49615568  1  0.025615  0.007139  -0.107942  -0.197418  0.003487  3.996247  0.006
C  C83  1  0.22188471  0.40131451  0.49602431  1  -0.024436  0.007021  -0.108679  -0.199351  0.003395  3.997725  0.005
C  C84  1  0.41958149  0.97730596  0.91469362  1  0.440995  -0.002011  0.035418  0.098113  -0.002793  4.001824  -0.001
C  C85  1  0.66558322  0.52277256  0.91481329  1  0.410599  -0.001829  0.0348  0.098129  -0.002664  4.000001  -0.001
C  C86  1  0.60312954  0.97718241  0.58513852  1  0.398112  -0.001943  0.035698  0.09928  -0.002767  4.000422  -0.001
C  C87  1  0.81139137  0.52285184  0.58535839  1  0.434809  -0.001867  0.035636  0.100226  -0.002654  3.999802  -0.001
C  C88  1  0.58042132  0.02269274  0.08530737  1  0.441011  -0.002009  0.035392  0.098107  -0.002792  4.00175  -0.001
C  C89  1  0.33441856  0.47723315  0.08518969  1  0.410309  -0.001829  0.034816  0.098232  -0.002664  4.000115  -0.001
C  C90  1  0.39686784  0.02282066  0.41485855  1  0.397776  -0.001941  0.035765  0.099472  -0.002766  4.000357  -0.001
C  C91  1  0.18860702  0.47714773  0.41463941  1  0.433826  -0.001867  0.035632  0.100175  -0.002656  3.999823  -0.001
N  N92  1  0.35221955  0.04631799  0.85200469  1  -1.225288  0.069855  -0.353756  -0.372211  0.037107  3.555861  0.051
N  N93  1  0.79562731  0.45381192  0.85214735  1  -1.235071  0.069676  -0.351833  -0.368728  0.036997  3.552368  0.051
N  N94  1  0.60153688  0.04620500  0.64775905  1  -1.208828  0.069761  -0.35356  -0.370283  0.037065  3.550883  0.051
N  N95  1  0.75033403  0.45389639  0.64812361  1  -1.23026  0.069821  -0.350866  -0.368125  0.036908  3.550382  0.051
N  N96  1  0.64778375  0.95368070  0.14799403  1  -1.225356  0.069855  -0.353795  -0.372269  0.037107  3.555884  0.051
N  N97  1  0.20437336  0.54619203  0.14785137  1  -1.235192  0.069684  -0.351837  -0.368739  0.037002  3.552407  0.051
N  N98  1  0.39845876  0.95379808  0.35224062  1  -1.208879  0.069766  -0.353611  -0.370416  0.037067  3.550986  0.051
N  N99  1  0.24966092  0.54610757  0.35187187  1  -1.230232  0.069823  -0.350924  -0.368065  0.03691  3.550328  0.051
N  N100  1  0.17757213  0.10379582  0.80183395  1  -1.323695  0.000424  -0.583261  -0.634402  -0.000453  3.3284  0.0
N  N101  1  0.02047751  0.39634877  0.80198402  1  -1.309997  0.000545  -0.583383  -0.636286  -0.000361  3.32925  0.0
N  N102  1  0.71875685  0.10373297  0.69785007  1  -1.300835  0.000442  -0.582205  -0.634712  -0.000439  3.329088  0.0
N  N103  1  0.58304012  0.39630209  0.69835913  1  -1.300823  0.000534  -0.582563  -0.633328  -0.000367  3.32948  0.0
N  N104  1  0.82242968  0.89620287  0.19816358  1  -1.323836  0.000425  -0.583214  -0.634431  -0.000452  3.32829  0.0
N  N105  1  0.97952145  0.60364817  0.19801985  1  -1.309997  0.000545  -0.583409  -0.636321  -0.000361  3.329241  0.0
N  N106  1  0.28124384  0.89626748  0.30215126  1  -1.301441  0.000441  -0.582179  -0.634747  -0.000439  3.329091  0.0
N  N107  1  0.41695920  0.60369660  0.30163907  1  -1.300704  0.000534  -0.582549  -0.633272  -0.000367  3.329422  0.0
O  O108  1  0.29074094  0.73782183  0.14677054  1  -1.155264  0.089506  -0.312942  -0.538061  0.046311  2.324856  0.071
O  O109  1  0.56218900  0.76237540  0.14686557  1  -1.156151  0.089451  -0.312751  -0.538818  0.046287  2.322431  0.071
O  O110  1  0.97150322  0.73749939  0.35314086  1  -1.147739  0.089525  -0.313206  -0.538921  0.046374  2.323208  0.071
O  O111  1  0.67541015  0.76202640  0.35314007  1  -1.149345  0.08953  -0.312228  -0.537096  0.046353  2.324281  0.071
O  O112  1  0.70926108  0.26217248  0.85323338  1  -1.155106  0.089504  -0.312876  -0.537978  0.046308  2.324779  0.071
O  O113  1  0.43782065  0.23762153  0.85314019  1  -1.156395  0.089439  -0.312801  -0.538821  0.046282  2.322276  0.071
O  O114  1  0.02849276  0.26249755  0.64686062  1  -1.148073  0.089522  -0.313226  -0.539024  0.046374  2.323229  0.071
O  O115  1  0.32458628  0.23798106  0.64685933  1  -1.149394  0.08953  -0.312171  -0.537058  0.046352  2.324291  0.071
O  O116  1  0.10475212  0.81801204  0.12229401  1  -1.165314  0.045784  -0.30008  -0.537922  0.022718  2.201309  0.039
O  O117  1  0.77270769  0.68227010  0.12226722  1  -1.163711  0.04624  -0.300979  -0.538529  0.02293  2.198229  0.04
O  O118  1  0.07731015  0.81756295  0.37784453  1  -1.159339  0.045926  -0.301535  -0.539285  0.022799  2.198407  0.039
O  O119  1  0.54459151  0.68222797  0.37805357  1  -1.163128  0.046082  -0.298883  -0.536439  0.022883  2.200862  0.039
O  O120  1  0.89525444  0.18197963  0.87770851  1  -1.165403  0.045781  -0.300083  -0.537873  0.022717  2.201386  0.039
O  O121  1  0.22730297  0.31772333  0.87773928  1  -1.163774  0.046245  -0.300936  -0.538464  0.022933  2.197974  0.04
O  O122  1  0.92268867  0.18243575  0.62215061  1  -1.159362  0.045919  -0.301488  -0.539236  0.022797  2.198324  0.039
O  O123  1  0.45540298  0.31778037  0.62194197  1  -1.163012  0.046079  -0.298878  -0.536491  0.022882  2.200921  0.039
