# generated using pymatgen
data_ZnH8C20SNO7
_symmetry_space_group_name_H-M   'P 1'
_cell_length_a   13.86998149
_cell_length_b   14.47863447
_cell_length_c   15.20922365
_cell_angle_alpha   92.60691906
_cell_angle_beta   88.25984920
_cell_angle_gamma   88.91283643
_symmetry_Int_Tables_number   1
_chemical_formula_structural   ZnH8C20SNO7
_chemical_formula_sum   'Zn2 H16 C40 S2 N2 O14'
_cell_volume   3049.09007442
_cell_formula_units_Z   2
loop_
 _symmetry_equiv_pos_site_id
 _symmetry_equiv_pos_as_xyz
  1  'x, y, z'
loop_
 _atom_site_type_symbol
 _atom_site_label
 _atom_site_symmetry_multiplicity
 _atom_site_fract_x
 _atom_site_fract_y
 _atom_site_fract_z
 _atom_site_occupancy
 _atom_site_pbe_bader_charge
 _atom_site_pbe_bader_spin_density
 _atom_site_pbe_cm5_charge
 _atom_site_pbe_ddec_charge
 _atom_site_pbe_ddec_spin_density
 _atom_site_pbe_ddec_sum_bond_order
 _atom_site_pbe_magmom
Zn  Zn0  1  0.39734805  0.49983342  0.50091088  1  1.269324  0  0.678736  0.821277  0  2.398593  0
Zn  Zn1  1  0.60251705  0.49821595  0.49956758  1  1.281488  0  0.672922  0.822928  0  2.394959  0
H  H2  1  0.45967635  0.37537035  0.76570635  1  0.080695  0  0.113359  0.122446  0  0.974696  0
H  H3  1  0.74865840  0.58958427  0.61311631  1  0.12788  0  0.127834  0.114529  0  1.001364  0
H  H4  1  0.09822921  0.35497648  0.31841752  1  0.108662  0  0.122406  0.129767  0  0.965131  0
H  H5  1  0.90224494  0.65004874  0.68094642  1  0.10064  0  0.120934  0.127503  0  0.967082  0
H  H6  1  0.08137323  0.64960048  0.68087312  1  0.105332  0  0.120626  0.124597  0  0.969307  0
H  H7  1  0.91947148  0.35783583  0.31680778  1  0.090403  0  0.116554  0.119373  0  0.975336  0
H  H8  1  0.59900341  0.66689617  0.63210471  1  0.667883  0  0.304692  0.371032  0  0.971283  0
H  H9  1  0.57716093  0.28661248  0.31749789  1  0.667588  0  0.355791  0.405645  0  0.827287  0
H  H10  1  0.53435487  0.63212951  0.23499895  1  0.068211  0  0.112354  0.122294  0  0.977545  0
H  H11  1  0.43971396  0.28429686  0.89523797  1  0.074085  0  0.111788  0.114428  0  0.977201  0
H  H12  1  0.54695173  0.72640345  0.10456070  1  0.078258  0  0.109177  0.110973  0  0.981093  0
H  H13  1  0.44530369  0.26895989  0.05403892  1  0.095929  0  0.110218  0.122434  0  1.0126  0
H  H14  1  0.54682897  0.74045880  0.94526546  1  0.171137  0  0.110099  0.1325  0  1.038956  0
H  H15  1  0.24269629  0.58835695  0.61205113  1  0.145562  0  0.134394  0.119264  0  0.968064  0
H  H16  1  0.75819898  0.41724563  0.38733660  1  0.081192  0  0.126193  0.103747  0  0.977624  0
H  H17  1  0.25276482  0.41041467  0.39028603  1  0.150691  0  0.133582  0.11958  0  0.974911  0
C  C18  1  0.50104009  0.49065859  0.33075618  1  1.625032  0  0.216318  0.601571  0  4.192586  0
C  C19  1  0.53409174  0.67371398  0.97260770  1  -0.10401  0  -0.088772  -0.132743  0  3.978517  0
C  C20  1  0.20043556  0.55053520  0.56345350  1  0.538389  0  0.067857  0.052221  0  3.853416  0
C  C21  1  0.80021700  0.45463395  0.43636046  1  0.602975  0  0.062479  0.050862  0  3.871462  0
C  C22  1  0.20629212  0.44945394  0.43848967  1  0.486729  0  0.068753  0.054805  0  3.844223  0
C  C23  1  0.79435933  0.55276282  0.56294300  1  0.512769  0  0.06471  0.053975  0  3.843329  0
C  C24  1  0.10552288  0.44819571  0.43448799  1  0.043022  0  0.005423  0.039446  0  4.029096  0
C  C25  1  0.89517522  0.55590519  0.56559168  1  -0.021243  0  0.006063  0.041659  0  4.030308  0
C  C26  1  0.09937701  0.55472830  0.56600241  1  0.001037  0  0.005032  0.038452  0  4.036263  0
C  C27  1  0.90128295  0.45088022  0.43315878  1  -0.024059  0  0.004614  0.039112  0  4.040258  0
C  C28  1  0.05137924  0.50207363  0.49993797  1  0.016897  0  0.017896  0.024499  0  3.931544  0
C  C29  1  0.49524396  0.51252800  0.66897375  1  1.608294  0  0.216959  0.592196  0  4.195508  0
C  C30  1  0.94939777  0.50310279  0.49946303  1  -0.0432  0  0.017554  0.021318  0  3.93594  0
C  C31  1  0.05575044  0.39587987  0.36818739  1  -0.03039  0  -0.067578  -0.106647  0  3.960219  0
C  C32  1  0.94489716  0.60913130  0.63130393  1  -0.002356  0  -0.068732  -0.108612  0  3.962557  0
C  C33  1  0.04348331  0.60877758  0.63127916  1  -0.080523  0  -0.069432  -0.109182  0  3.96982  0
C  C34  1  0.95718474  0.39742784  0.36740524  1  -0.046218  0  -0.072901  -0.11375  0  3.97692  0
C  C35  1  0.49329797  0.68216968  0.50636421  1  1.681877  0  0.225496  0.657106  0  4.235905  0
C  C36  1  0.50908576  0.31999737  0.50450308  1  1.72609  0  0.215555  0.653658  0  4.264142  0
C  C37  1  0.49407333  0.78133309  0.50782872  1  0.214157  0  -0.010438  -0.135794  0  3.848733  0
C  C38  1  0.50913496  0.22071958  0.50937058  1  0.09384  0  -0.010724  -0.128949  0  3.846327  0
C  C39  1  0.49779169  0.86600548  0.50893413  1  -0.250417  0  -0.008279  0.034093  0  4.245793  0
C  C40  1  0.49794414  0.50871324  0.95265150  1  0.084673  0  0.004704  -0.000829  0  3.89279  0
C  C41  1  0.50762350  0.13601576  0.50993074  1  -0.232285  0  -0.018678  0.011986  0  4.266433  0
C  C42  1  0.50156723  0.95840493  0.50974456  1  0.069302  0  -0.00287  -0.00814  0  4.194505  0
C  C43  1  0.50508877  0.04355511  0.51008122  1  -0.16191  0  -0.001731  0.000221  0  4.198313  0
C  C44  1  0.51690280  0.59884043  0.82007210  1  -0.141766  0  -0.011093  -0.166374  0  3.833902  0
C  C45  1  0.48723118  0.40810164  0.17708130  1  -0.152117  0  -0.016064  -0.176428  0  3.892797  0
C  C46  1  0.49570287  0.51909334  0.76810623  1  -0.042382  0  -0.00396  -0.004994  0  3.973771  0
C  C47  1  0.50433241  0.48707727  0.23129193  1  -0.006717  0  -0.009419  -0.01821  0  3.982031  0
C  C48  1  0.47575227  0.43630842  0.80721566  1  0.030989  0  -0.079269  -0.148018  0  3.934622  0
C  C49  1  0.52063067  0.57119209  0.19267006  1  0.034518  0  -0.079611  -0.145793  0  3.923802  0
C  C50  1  0.47686138  0.42926237  0.89850676  1  -0.040309  0  -0.002723  0.085651  0  4.071568  0
C  C51  1  0.49965216  0.50032703  0.04584046  1  -0.013091  0  0.005628  0.00481  0  3.896472  0
C  C52  1  0.51867815  0.57946184  0.10131002  1  -0.009364  0  -0.002831  0.08506  0  4.063916  0
C  C53  1  0.51714987  0.59560452  0.91360904  1  -0.003447  0  0.006151  0.083479  0  3.966974  0
C  C54  1  0.48258074  0.41308450  0.08419105  1  -0.056298  0  0.003888  0.078511  0  3.984394  0
C  C55  1  0.45710128  0.34383969  0.93803011  1  -0.010186  0  -0.079756  -0.116175  0  3.99527  0
C  C56  1  0.53446984  0.66557821  0.06164141  1  -0.022872  0  -0.083197  -0.120592  0  4.004741  0
C  C57  1  0.46003033  0.33550956  0.02679484  1  0.003646  0  -0.087321  -0.12574  0  3.984768  0
S  S58  1  0.53565213  0.70387422  0.76222945  1  3.091189  0  0.534299  1.167026  0  5.98951  0
S  S59  1  0.46819240  0.29720582  0.22156011  1  3.0583  0  0.537925  1.1637  0  5.992024  0
N  N60  1  0.25087957  0.49934211  0.50137157  1  -1.261687  0  -0.319427  -0.18842  0  3.57405  0
N  N61  1  0.74936089  0.50378021  0.49966175  1  -1.267414  0  -0.32019  -0.192393  0  3.5707  0
O  O62  1  0.41953328  0.47909456  0.36785851  1  -1.147566  0  -0.303752  -0.522758  0  2.340409  0
O  O63  1  0.57152552  0.77544612  0.82028688  1  -1.297909  0  -0.313055  -0.52139  0  2.153439  0
O  O64  1  0.62236294  0.67612855  0.69480106  1  -1.269543  0  -0.371968  -0.555348  0  2.240089  0
O  O65  1  0.36627798  0.28449486  0.23347653  1  -1.283046  0  -0.314843  -0.51521  0  2.077416  0
O  O66  1  0.52857111  0.22857382  0.17374624  1  -1.297587  0  -0.323695  -0.548091  0  2.104348  0
O  O67  1  0.50979595  0.30821703  0.31880677  1  -1.226956  0  -0.341963  -0.520566  0  2.302089  0
O  O68  1  0.57465643  0.48635303  0.63100194  1  -1.157099  0  -0.314719  -0.538657  0  2.332662  0
O  O69  1  0.41593056  0.52779313  0.63258810  1  -1.148739  0  -0.304068  -0.526053  0  2.336379  0
O  O70  1  0.57920579  0.51081079  0.36858783  1  -1.167686  0  -0.319543  -0.552967  0  2.310871  0
O  O71  1  0.41888230  0.64165821  0.48050109  1  -1.130671  0  -0.291562  -0.503059  0  2.234545  0
O  O72  1  0.58939312  0.35580126  0.48313052  1  -1.145652  0  -0.317253  -0.549987  0  2.261868  0
O  O73  1  0.42887655  0.36192696  0.52140193  1  -1.134527  0  -0.305844  -0.527113  0  2.253914  0
O  O74  1  0.57126606  0.64183196  0.53140248  1  -1.164656  0  -0.309257  -0.568747  0  2.322889  0
O  O75  1  0.45014988  0.72056145  0.71312504  1  -1.292787  0  -0.322447  -0.542008  0  2.131161  0
