# generated using pymatgen
data_AgH3C4SN3(OF)3
_symmetry_space_group_name_H-M   'P 1'
_cell_length_a   8.17040142
_cell_length_b   9.20735070
_cell_length_c   11.92408399
_cell_angle_alpha   90.00025768
_cell_angle_beta   89.99985512
_cell_angle_gamma   90.00014045
_symmetry_Int_Tables_number   1
_chemical_formula_structural   AgH3C4SN3(OF)3
_chemical_formula_sum   'Ag4 H12 C16 S4 N12 O12 F12'
_cell_volume   897.02202362
_cell_formula_units_Z   4
loop_
 _symmetry_equiv_pos_site_id
 _symmetry_equiv_pos_as_xyz
  1  'x, y, z'
loop_
 _atom_site_type_symbol
 _atom_site_label
 _atom_site_symmetry_multiplicity
 _atom_site_fract_x
 _atom_site_fract_y
 _atom_site_fract_z
 _atom_site_occupancy
 _atom_site_hle17_bader_spin_density
 _atom_site_hle17_ddec_charge
 _atom_site_hle17_ddec_spin_density
 _atom_site_hle17_ddec_sum_bond_order
 _atom_site_hle17_magmom
 _atom_site_hse06_10hf_bader_spin_density
 _atom_site_hse06_10hf_ddec_charge
 _atom_site_hse06_10hf_ddec_spin_density
 _atom_site_hse06_10hf_ddec_sum_bond_order
 _atom_site_hse06_10hf_magmom
 _atom_site_hse06_bader_spin_density
 _atom_site_hse06_ddec_charge
 _atom_site_hse06_ddec_spin_density
 _atom_site_hse06_ddec_sum_bond_order
 _atom_site_hse06_magmom
 _atom_site_pbe_bader_spin_density
 _atom_site_pbe_cm5_charge
 _atom_site_pbe_ddec_charge
 _atom_site_pbe_ddec_spin_density
 _atom_site_pbe_ddec_sum_bond_order
 _atom_site_pbe_magmom
Ag  Ag0  1  0.71326086  0.88141411  0.81707501  1  0  0.585315  0  1.309386  0  0  0.445767  0  1.728655  0  0  0.471628  0  1.6858  0  0  0.476293  0.429537  0  1.757814  0
Ag  Ag1  1  0.21326173  0.38141593  0.68292338  1  0  0.585323  0  1.309437  0  0  0.445789  0  1.728711  0  0  0.471647  0  1.685854  0  0  0.4763  0.42956  0  1.757869  0
Ag  Ag2  1  0.21326230  0.11858536  0.18292477  1  0  0.585401  0  1.309344  0  0  0.4458  0  1.728656  0  0  0.471661  0  1.685802  0  0  0.476309  0.429565  0  1.757814  0
Ag  Ag3  1  0.71326142  0.61858463  0.31707304  1  0  0.585369  0  1.309382  0  0  0.445794  0  1.728681  0  0  0.471653  0  1.685827  0  0  0.476308  0.429561  0  1.75784  0
H  H4  1  0.75058132  0.80672199  0.55414648  1  0  0.088117  0  0.931472  0  0  0.093053  0  1.001107  0  0  0.095064  0  0.997291  0  0  0.132974  0.09106  0  1.004747  0
H  H5  1  0.25057755  0.30672532  0.94584992  1  0  0.088101  0  0.931508  0  0  0.093021  0  1.00115  0  0  0.09503  0  0.997339  0  0  0.133001  0.09103  0  1.00479  0
H  H6  1  0.25057465  0.19327974  0.44585324  1  0  0.088069  0  0.931556  0  0  0.093019  0  1.001166  0  0  0.095029  0  0.997353  0  0  0.132989  0.091027  0  1.004804  0
H  H7  1  0.75057964  0.69327858  0.05414896  1  0  0.088088  0  0.931476  0  0  0.093037  0  1.001111  0  0  0.095048  0  0.997295  0  0  0.132985  0.091046  0  1.004752  0
H  H8  1  0.41575625  0.65797702  0.79212705  1  0  0.087863  0  0.944871  0  0  0.092758  0  1.014208  0  0  0.094996  0  1.010046  0  0  0.132817  0.090891  0  1.017414  0
H  H9  1  0.91576052  0.15797899  0.70786518  1  0  0.087837  0  0.944822  0  0  0.09276  0  1.014172  0  0  0.094997  0  1.010009  0  0  0.132811  0.090893  0  1.017376  0
H  H10  1  0.91575803  0.34202072  0.20786735  1  0  0.08783  0  0.944816  0  0  0.092722  0  1.014189  0  0  0.094964  0  1.010024  0  0  0.132782  0.090855  0  1.017394  0
H  H11  1  0.41575865  0.84202201  0.29213257  1  0  0.087844  0  0.944863  0  0  0.092761  0  1.014192  0  0  0.095  0  1.010031  0  0  0.1328  0.090892  0  1.017396  0
H  H12  1  0.43110588  0.47117647  0.47569150  1  0  0.075461  0  0.908984  0  0  0.084667  0  0.971538  0  0  0.086148  0  0.968072  0  0  0.136167  0.083211  0  0.974478  0
H  H13  1  0.93110242  0.97117948  0.02430214  1  0  0.075327  0  0.909155  0  0  0.084574  0  0.971654  0  0  0.08605  0  0.968181  0  0  0.136132  0.083127  0  0.974596  0
H  H14  1  0.93109722  0.52882240  0.52430539  1  0  0.075284  0  0.90919  0  0  0.08458  0  0.971657  0  0  0.086056  0  0.968189  0  0  0.136116  0.083132  0  0.974598  0
H  H15  1  0.43109945  0.02881830  0.97569559  1  0  0.075349  0  0.909127  0  0  0.084603  0  0.971621  0  0  0.08608  0  0.968148  0  0  0.136145  0.083155  0  0.974562  0
C  C16  1  0.47205350  0.65025475  0.70961331  1  0  0.35767  0  3.619318  0  0  0.29626  0  3.886775  0  0  0.315655  0  3.896413  0  0  0.206996  0.283366  0  3.881141  0
C  C17  1  0.97205502  0.15025829  0.79038131  1  0  0.357884  0  3.61914  0  0  0.296334  0  3.886727  0  0  0.315737  0  3.896352  0  0  0.207005  0.283441  0  3.881089  0
C  C18  1  0.97205255  0.34974203  0.29038434  1  0  0.357796  0  3.619206  0  0  0.29634  0  3.886703  0  0  0.315732  0  3.896343  0  0  0.207062  0.283446  0  3.881062  0
C  C19  1  0.47205714  0.84974284  0.20961719  1  0  0.357713  0  3.619441  0  0  0.296211  0  3.886971  0  0  0.315604  0  3.896611  0  0  0.206998  0.283321  0  3.881326  0
C  C20  1  0.65317225  0.73262355  0.57913955  1  0  0.361828  0  3.604133  0  0  0.306204  0  3.86487  0  0  0.32464  0  3.876431  0  0  0.208663  0.293667  0  3.858095  0
C  C21  1  0.15317347  0.23262674  0.92085592  1  0  0.362023  0  3.604129  0  0  0.306417  0  3.864818  0  0  0.324853  0  3.876379  0  0  0.208749  0.293876  0  3.858046  0
C  C22  1  0.15317077  0.26737579  0.42085950  1  0  0.36195  0  3.604098  0  0  0.306345  0  3.864814  0  0  0.324782  0  3.876373  0  0  0.208701  0.29381  0  3.858035  0
C  C23  1  0.65317200  0.76737369  0.07914061  1  0  0.361995  0  3.604192  0  0  0.306351  0  3.864942  0  0  0.324789  0  3.876502  0  0  0.208742  0.293811  0  3.858167  0
C  C24  1  0.47663975  0.55085107  0.53539766  1  0  0.377985  0  3.649246  0  0  0.317933  0  3.923532  0  0  0.337912  0  3.932645  0  0  0.210981  0.304922  0  3.917494  0
C  C25  1  0.97664063  0.05085344  0.96459661  1  0  0.378042  0  3.649409  0  0  0.318011  0  3.923579  0  0  0.337995  0  3.932687  0  0  0.210972  0.304982  0  3.917561  0
C  C26  1  0.97663598  0.44914898  0.46459832  1  0  0.378002  0  3.649361  0  0  0.317909  0  3.923677  0  0  0.337891  0  3.932788  0  0  0.210952  0.304885  0  3.917654  0
C  C27  1  0.47663633  0.94914553  0.03540439  1  0  0.377953  0  3.649303  0  0  0.31793  0  3.923514  0  0  0.337911  0  3.932625  0  0  0.210946  0.304901  0  3.917494  0
C  C28  1  0.63017650  0.13869548  0.43591075  1  0  0.590885  0  3.667103  0  0  0.522063  0  4.032623  0  0  0.549444  0  4.006891  0  0  0.284097  0.502205  0  4.051458  0
C  C29  1  0.13017062  0.63869871  0.06409482  1  0  0.591086  0  3.667131  0  0  0.52219  0  4.032778  0  0  0.549568  0  4.007052  0  0  0.284091  0.502327  0  4.051618  0
C  C30  1  0.13017367  0.86130381  0.56408917  1  0  0.591003  0  3.667023  0  0  0.522092  0  4.032713  0  0  0.549466  0  4.006991  0  0  0.284169  0.502248  0  4.051518  0
C  C31  1  0.63017343  0.36130493  0.93590930  1  0  0.591028  0  3.667133  0  0  0.522091  0  4.032831  0  0  0.54947  0  4.007108  0  0  0.284112  0.502235  0  4.051666  0
S  S32  1  0.60628395  0.18883083  0.58642473  1  0  1.131939  0  5.844839  0  0  1.033226  0  6.381656  0  0  1.076859  0  6.362435  0  0  0.477927  1.003271  0  6.393232  0
S  S33  1  0.10628412  0.68883281  0.91357989  1  0  1.13206  0  5.844826  0  0  1.033381  0  6.381608  0  0  1.077015  0  6.362397  0  0  0.478022  1.00343  0  6.393186  0
S  S34  1  0.10628276  0.81116624  0.41357692  1  0  1.131969  0  5.844846  0  0  1.033322  0  6.381631  0  0  1.076954  0  6.362415  0  0  0.477958  1.003362  0  6.393208  0
S  S35  1  0.60628382  0.31116751  0.08642092  1  0  1.13185  0  5.844926  0  0  1.033182  0  6.38173  0  0  1.076812  0  6.362518  0  0  0.477907  1.003225  0  6.393305  0
N  N36  1  0.59791039  0.73851474  0.68513768  1  0  -0.360239  0  3.184928  0  0  -0.276551  0  3.469373  0  0  -0.301178  0  3.480567  0  0  -0.319191  -0.261014  0  3.462298  0
N  N37  1  0.09791078  0.23851949  0.81485790  1  0  -0.360429  0  3.184892  0  0  -0.276692  0  3.46937  0  0  -0.301323  0  3.480561  0  0  -0.319229  -0.261154  0  3.462297  0
N  N38  1  0.09790806  0.26148340  0.31486062  1  0  -0.360372  0  3.184947  0  0  -0.276654  0  3.469401  0  0  -0.301281  0  3.480594  0  0  -0.319241  -0.261116  0  3.462322  0
N  N39  1  0.59790890  0.76148408  0.18514041  1  0  -0.360313  0  3.185043  0  0  -0.276552  0  3.469486  0  0  -0.30118  0  3.480682  0  0  -0.319205  -0.261014  0  3.462406  0
N  N40  1  0.59559982  0.85927932  0.00157764  1  0  -0.376821  0  3.132867  0  0  -0.304384  0  3.421375  0  0  -0.327949  0  3.431725  0  0  -0.31271  -0.288631  0  3.414588  0
N  N41  1  0.09559218  0.35928187  0.49842542  1  0  -0.376778  0  3.13283  0  0  -0.304322  0  3.421322  0  0  -0.327888  0  3.43168  0  0  -0.31267  -0.288568  0  3.414523  0
N  N42  1  0.09559708  0.14071990  0.99842151  1  0  -0.376915  0  3.132971  0  0  -0.304394  0  3.421365  0  0  -0.327965  0  3.431725  0  0  -0.312728  -0.288634  0  3.414566  0
N  N43  1  0.59559737  0.64071409  0.50157373  1  0  -0.376831  0  3.132967  0  0  -0.304297  0  3.421381  0  0  -0.327864  0  3.431737  0  0  -0.312668  -0.28854  0  3.414575  0
N  N44  1  0.90882531  0.05406680  0.86246891  1  0  -0.367055  0  3.181278  0  0  -0.288625  0  3.46926  0  0  -0.313455  0  3.481014  0  0  -0.317114  -0.273442  0  3.462209  0
N  N45  1  0.40882405  0.55406394  0.63752548  1  0  -0.366996  0  3.181259  0  0  -0.2886  0  3.46922  0  0  -0.313428  0  3.48098  0  0  -0.317152  -0.273419  0  3.462165  0
N  N46  1  0.40882184  0.94593310  0.13753053  1  0  -0.366955  0  3.181339  0  0  -0.288526  0  3.469301  0  0  -0.313349  0  3.481059  0  0  -0.317111  -0.273345  0  3.462248  0
N  N47  1  0.90882065  0.44593270  0.36247228  1  0  -0.366951  0  3.18119  0  0  -0.288556  0  3.469204  0  0  -0.313381  0  3.480962  0  0  -0.317113  -0.273377  0  3.462152  0
O  O48  1  0.69850847  0.32406530  0.59669653  1  0  -0.609754  0  1.956168  0  0  -0.57919  0  2.204586  0  0  -0.598903  0  2.194995  0  0  -0.348903  -0.565268  0  2.210909  0
O  O49  1  0.19850746  0.82406723  0.90330756  1  0  -0.609812  0  1.956206  0  0  -0.579238  0  2.204604  0  0  -0.598953  0  2.195013  0  0  -0.348938  -0.565314  0  2.210927  0
O  O50  1  0.19850695  0.67593414  0.40330579  1  0  -0.609743  0  1.956231  0  0  -0.579191  0  2.20463  0  0  -0.598904  0  2.19504  0  0  -0.348893  -0.565268  0  2.210955  0
O  O51  1  0.69850552  0.17593439  0.09669392  1  0  -0.609715  0  1.956242  0  0  -0.579152  0  2.204656  0  0  -0.598867  0  2.195068  0  0  -0.34889  -0.565229  0  2.210979  0
O  O52  1  0.67804025  0.06439571  0.64387205  1  0  -0.62715  0  2.075653  0  0  -0.592747  0  2.364153  0  0  -0.611857  0  2.347534  0  0  -0.342167  -0.578473  0  2.374435  0
O  O53  1  0.17804675  0.56439737  0.85613117  1  0  -0.627214  0  2.07555  0  0  -0.592854  0  2.364103  0  0  -0.611943  0  2.347435  0  0  -0.342191  -0.578578  0  2.374387  0
O  O54  1  0.17803472  0.93560586  0.35613115  1  0  -0.627199  0  2.075627  0  0  -0.592807  0  2.364123  0  0  -0.611909  0  2.347491  0  0  -0.342187  -0.578529  0  2.374404  0
O  O55  1  0.67804413  0.43560312  0.14387119  1  0  -0.627192  0  2.075574  0  0  -0.592809  0  2.364101  0  0  -0.611911  0  2.347464  0  0  -0.342199  -0.578534  0  2.374385  0
O  O56  1  0.42885203  0.20265332  0.59746223  1  0  -0.630711  0  2.064535  0  0  -0.593995  0  2.349011  0  0  -0.612832  0  2.331657  0  0  -0.347365  -0.580333  0  2.360189  0
O  O57  1  0.92885452  0.70265525  0.90253601  1  0  -0.630747  0  2.064598  0  0  -0.594033  0  2.349075  0  0  -0.61287  0  2.331721  0  0  -0.347397  -0.580371  0  2.360261  0
O  O58  1  0.92885190  0.79734880  0.40254221  1  0  -0.630758  0  2.064611  0  0  -0.594054  0  2.349075  0  0  -0.612889  0  2.331719  0  0  -0.347385  -0.580392  0  2.360255  0
O  O59  1  0.42885309  0.29734687  0.09746256  1  0  -0.630669  0  2.064565  0  0  -0.593949  0  2.349023  0  0  -0.612785  0  2.331671  0  0  -0.347353  -0.580289  0  2.360204  0
F  F60  1  0.78974641  0.12284954  0.40752937  1  0  -0.209308  0  1.214935  0  0  -0.173047  0  1.390039  0  0  -0.183407  0  1.376186  0  0  -0.092396  -0.165425  0  1.399661  0
F  F61  1  0.28974043  0.62285402  0.09247252  1  0  -0.209397  0  1.21486  0  0  -0.173119  0  1.38999  0  0  -0.18348  0  1.376139  0  0  -0.092456  -0.165496  0  1.399616  0
F  F62  1  0.28974230  0.87714902  0.59247280  1  0  -0.209377  0  1.215003  0  0  -0.173082  0  1.390135  0  0  -0.183439  0  1.376284  0  0  -0.092433  -0.165463  0  1.399753  0
F  F63  1  0.78974217  0.37715323  0.90753049  1  0  -0.209356  0  1.214977  0  0  -0.173073  0  1.390107  0  0  -0.18343  0  1.37626  0  0  -0.092408  -0.165449  0  1.399733  0
F  F64  1  0.55280195  0.01114615  0.41383175  1  0  -0.232368  0  1.222322  0  0  -0.182865  0  1.389781  0  0  -0.193101  0  1.374366  0  0  -0.089656  -0.175634  0  1.40087  0
F  F65  1  0.05279109  0.51114951  0.08616932  1  0  -0.232542  0  1.222359  0  0  -0.182932  0  1.389777  0  0  -0.193171  0  1.374364  0  0  -0.08966  -0.175701  0  1.400866  0
F  F66  1  0.05280062  0.98885297  0.58617586  1  0  -0.232396  0  1.222279  0  0  -0.18286  0  1.389764  0  0  -0.193095  0  1.37435  0  0  -0.089672  -0.175634  0  1.400845  0
F  F67  1  0.55279312  0.48885178  0.91383242  1  0  -0.2324  0  1.222366  0  0  -0.182842  0  1.389845  0  0  -0.193079  0  1.374432  0  0  -0.089628  -0.17561  0  1.400933  0
F  F68  1  0.56370513  0.24228961  0.36786300  1  0  -0.243714  0  1.197856  0  0  -0.200624  0  1.371186  0  0  -0.209768  0  1.35439  0  0  -0.097424  -0.194005  0  1.383038  0
F  F69  1  0.06369899  0.74229649  0.13214138  1  0  -0.243627  0  1.19798  0  0  -0.200595  0  1.371393  0  0  -0.209738  0  1.354598  0  0  -0.09735  -0.193975  0  1.383248  0
F  F70  1  0.06370910  0.75770519  0.63214124  1  0  -0.243714  0  1.197753  0  0  -0.200655  0  1.371169  0  0  -0.209796  0  1.354375  0  0  -0.097459  -0.194039  0  1.383017  0
F  F71  1  0.56370667  0.25770482  0.86786118  1  0  -0.243725  0  1.19781  0  0  -0.200632  0  1.371189  0  0  -0.209773  0  1.354396  0  0  -0.097435  -0.194013  0  1.383043  0
