# generated using pymatgen
data_ZnH13C16ClO7
_symmetry_space_group_name_H-M   'P 1'
_cell_length_a   7.13602872
_cell_length_b   9.24543400
_cell_length_c   14.35306655
_cell_angle_alpha   80.89984035
_cell_angle_beta   75.60689815
_cell_angle_gamma   67.31028948
_symmetry_Int_Tables_number   1
_chemical_formula_structural   ZnH13C16ClO7
_chemical_formula_sum   'Zn2 H26 C32 Cl2 O14'
_cell_volume   844.18716105
_cell_formula_units_Z   2
loop_
 _symmetry_equiv_pos_site_id
 _symmetry_equiv_pos_as_xyz
  1  'x, y, z'
loop_
 _atom_site_type_symbol
 _atom_site_label
 _atom_site_symmetry_multiplicity
 _atom_site_fract_x
 _atom_site_fract_y
 _atom_site_fract_z
 _atom_site_occupancy
 _atom_site_hle17_bader_spin_density
 _atom_site_hle17_ddec_charge
 _atom_site_hle17_ddec_spin_density
 _atom_site_hle17_ddec_sum_bond_order
 _atom_site_hle17_magmom
 _atom_site_hse06_10hf_bader_spin_density
 _atom_site_hse06_10hf_ddec_charge
 _atom_site_hse06_10hf_ddec_spin_density
 _atom_site_hse06_10hf_ddec_sum_bond_order
 _atom_site_hse06_10hf_magmom
 _atom_site_hse06_bader_spin_density
 _atom_site_hse06_ddec_charge
 _atom_site_hse06_ddec_spin_density
 _atom_site_hse06_ddec_sum_bond_order
 _atom_site_hse06_magmom
 _atom_site_pbe_bader_spin_density
 _atom_site_pbe_cm5_charge
 _atom_site_pbe_ddec_charge
 _atom_site_pbe_ddec_spin_density
 _atom_site_pbe_ddec_sum_bond_order
 _atom_site_pbe_magmom
Zn  Zn0  1  0.05687567  0.95147778  0.51977961  1  0  1.185455  0  1.701002  0  0  1.025821  0  2.150819  0  0  1.075398  0  2.089129  0  0  0.685526  0.990837  0  2.193428  0
Zn  Zn1  1  0.52820394  0.04860279  0.48023229  1  0  1.18529  0  1.700652  0  0  1.02556  0  2.150585  0  0  1.075136  0  2.088925  0  0  0.685343  0.990842  0  2.192996  0
H  H2  1  0.63903696  0.27686314  0.74464395  1  0  0.061197  0  0.907738  0  0  0.072668  0  0.962085  0  0  0.07398  0  0.961206  0  0  0.113262  0.071633  0  0.963027  0
H  H3  1  0.66044926  0.72299798  0.25540069  1  0  0.0618  0  0.90776  0  0  0.072971  0  0.962277  0  0  0.074269  0  0.961431  0  0  0.113177  0.07199  0  0.963055  0
H  H4  1  0.66646104  0.51720530  0.57343506  1  0  0.112145  0  0.956987  0  0  0.132222  0  1.017686  0  0  0.13379  0  1.017439  0  0  0.09082  0.13095  0  1.018107  0
H  H5  1  0.75600620  0.48287129  0.42680318  1  0  0.112627  0  0.955763  0  0  0.132098  0  1.017436  0  0  0.133743  0  1.017062  0  0  0.090635  0.130935  0  1.017644  0
H  H6  1  0.88568202  0.36930053  0.61501076  1  0  0.12216  0  0.932236  0  0  0.144281  0  0.988194  0  0  0.145845  0  0.987989  0  0  0.09609  0.143115  0  0.988329  0
H  H7  1  0.86937935  0.63055100  0.38525920  1  0  0.121888  0  0.932346  0  0  0.143865  0  0.98855  0  0  0.145385  0  0.98841  0  0  0.096118  0.142819  0  0.988584  0
H  H8  1  0.70484257  0.51912417  0.69108057  1  0  0.110269  0  0.966234  0  0  0.128796  0  1.034195  0  0  0.129722  0  1.035177  0  0  0.088638  0.128404  0  1.032753  0
H  H9  1  0.91447359  0.48056988  0.30925831  1  0  0.109426  0  0.965483  0  0  0.128315  0  1.032866  0  0  0.129212  0  1.033907  0  0  0.087927  0.127703  0  1.03202  0
H  H10  1  0.44876657  0.13865862  0.78052525  1  0  0.103971  0  0.976343  0  0  0.109537  0  1.047121  0  0  0.112577  0  1.045677  0  0  0.098301  0.10732  0  1.048324  0
H  H11  1  0.36746448  0.86139190  0.21963320  1  0  0.103096  0  0.975841  0  0  0.108752  0  1.046592  0  0  0.111746  0  1.045204  0  0  0.097917  0.106491  0  1.048076  0
H  H12  1  0.19103408  0.06656156  0.90748084  1  0  0.101704  0  0.969541  0  0  0.110426  0  1.035589  0  0  0.112168  0  1.036551  0  0  0.098185  0.109667  0  1.033736  0
H  H13  1  0.16468757  0.93365027  0.09261584  1  0  0.102525  0  0.969105  0  0  0.111798  0  1.033811  0  0  0.11351  0  1.034803  0  0  0.098399  0.110074  0  1.034008  0
H  H14  1  0.75221364  0.53973779  0.89292548  1  0  0.104718  0  0.972512  0  0  0.115091  0  1.035794  0  0  0.117997  0  1.033804  0  0  0.10114  0.112991  0  1.037275  0
H  H15  1  0.18471928  0.46036191  0.10692082  1  0  0.104614  0  0.972585  0  0  0.115761  0  1.034651  0  0  0.118499  0  1.032909  0  0  0.101463  0.11336  0  1.036927  0
H  H16  1  0.01286730  0.61516023  0.76208657  1  0  0.109692  0  0.978682  0  0  0.115932  0  1.048854  0  0  0.118997  0  1.047681  0  0  0.098983  0.114442  0  1.048136  0
H  H17  1  0.38947970  0.38492985  0.23791292  1  0  0.109314  0  0.977209  0  0  0.115809  0  1.046948  0  0  0.118936  0  1.04564  0  0  0.098907  0.113835  0  1.047467  0
H  H18  1  0.08177699  0.31579735  0.05162786  1  0  0.110876  0  0.972596  0  0  0.119667  0  1.033601  0  0  0.122987  0  1.032631  0  0  0.103237  0.117232  0  1.034638  0
H  H19  1  0.44903994  0.68443252  0.94835795  1  0  0.111766  0  0.971828  0  0  0.120397  0  1.032898  0  0  0.123746  0  1.031878  0  0  0.103669  0.118033  0  1.033788  0
H  H20  1  0.12733456  0.24515309  0.22153117  1  0  0.092136  0  0.966114  0  0  0.098912  0  1.036889  0  0  0.102223  0  1.033817  0  0  0.099921  0.096512  0  1.039128  0
H  H21  1  0.59397831  0.75499954  0.77844900  1  0  0.091863  0  0.967003  0  0  0.098855  0  1.037262  0  0  0.102194  0  1.034154  0  0  0.100027  0.096265  0  1.039759  0
H  H22  1  0.66139831  0.03626609  0.27731314  1  0  0.126233  0  0.980001  0  0  0.132691  0  1.046047  0  0  0.136711  0  1.042606  0  0  0.108269  0.129753  0  1.048543  0
H  H23  1  0.97513225  0.96351279  0.72254615  1  0  0.126249  0  0.979534  0  0  0.132834  0  1.045398  0  0  0.136893  0  1.041902  0  0  0.108072  0.129648  0  1.048381  0
H  H24  1  0.82327468  0.79225733  0.60988724  1  0  0.444882  0  0.85056  0  0  0.411033  0  0.91837  0  0  0.422355  0  0.901798  0  0  0.301506  0.403196  0  0.929752  0
H  H25  1  0.22552833  0.20775796  0.39012215  1  0  0.445859  0  0.849367  0  0  0.412253  0  0.916697  0  0  0.423542  0  0.900169  0  0  0.301723  0.404384  0  0.928141  0
H  H26  1  0.05059546  0.66870467  0.56980457  1  0  0.441394  0  0.793037  0  0  0.425517  0  0.840967  0  0  0.434147  0  0.831494  0  0  0.334174  0.419439  0  0.847742  0
H  H27  1  0.28931995  0.33128992  0.43021414  1  0  0.441184  0  0.793262  0  0  0.425711  0  0.84057  0  0  0.434191  0  0.831414  0  0  0.334539  0.419551  0  0.847411  0
C  C28  1  0.64353791  0.21151772  0.60777254  1  0  0.655984  0  3.836954  0  0  0.603058  0  4.141179  0  0  0.636925  0  4.134132  0  0  0.215145  0.579757  0  4.145701  0
C  C29  1  0.46261660  0.78856461  0.39223592  1  0  0.658789  0  3.834993  0  0  0.605604  0  4.139275  0  0  0.639515  0  4.132117  0  0  0.216966  0.582529  0  4.143466  0
C  C30  1  0.59437648  0.33896482  0.67679544  1  0  0.113585  0  3.624348  0  0  0.096055  0  3.874121  0  0  0.098536  0  3.882275  0  0  0.004927  0.093975  0  3.869103  0
C  C31  1  0.60977125  0.66100127  0.32324485  1  0  0.111275  0  3.625734  0  0  0.09424  0  3.875186  0  0  0.096623  0  3.883378  0  0  0.005502  0.092548  0  3.869537  0
C  C32  1  0.72128208  0.44306230  0.63597368  1  0  -0.329526  0  3.677717  0  0  -0.414708  0  3.918956  0  0  -0.416732  0  3.927601  0  0  -0.245345  -0.412743  0  3.912358  0
C  C33  1  0.79963292  0.55683063  0.36425265  1  0  -0.329026  0  3.676394  0  0  -0.413777  0  3.917538  0  0  -0.415871  0  3.926214  0  0  -0.245108  -0.412164  0  3.911274  0
C  C34  1  0.24717978  0.38428094  0.76413939  1  0  0.271078  0  3.807389  0  0  0.26043  0  4.067742  0  0  0.271336  0  4.083912  0  0  0.079309  0.252842  0  4.056908  0
C  C35  1  0.39514066  0.61577986  0.23589281  1  0  0.271074  0  3.803781  0  0  0.259671  0  4.065294  0  0  0.270537  0  4.081491  0  0  0.079347  0.252149  0  4.054432  0
C  C36  1  0.29800290  0.22880214  0.80418519  1  0  -0.18586  0  3.769593  0  0  -0.206926  0  4.025047  0  0  -0.21216  0  4.045987  0  0  -0.11163  -0.203449  0  4.010881  0
C  C37  1  0.33055633  0.77127780  0.19587613  1  0  -0.18545  0  3.768869  0  0  -0.206146  0  4.023956  0  0  -0.211347  0  4.044946  0  0  -0.110972  -0.20283  0  4.010589  0
C  C38  1  0.15230591  0.18708439  0.87616998  1  0  -0.145855  0  3.78817  0  0  -0.16715  0  4.040433  0  0  -0.169421  0  4.062191  0  0  -0.102135  -0.165133  0  4.023704  0
C  C39  1  0.21523412  0.81304647  0.12384409  1  0  -0.146818  0  3.787982  0  0  -0.167855  0  4.038755  0  0  -0.170201  0  4.060609  0  0  -0.102996  -0.165996  0  4.024492  0
C  C40  1  0.95789021  0.29953793  0.90760334  1  0  0.230722  0  3.800265  0  0  0.224762  0  4.059279  0  0  0.231795  0  4.076353  0  0  0.063182  0.219922  0  4.04706  0
C  C41  1  0.16481202  0.70055081  0.09232125  1  0  0.231083  0  3.799245  0  0  0.225041  0  4.05867  0  0  0.23196  0  4.075623  0  0  0.063063  0.220202  0  4.046915  0
C  C42  1  0.90472513  0.45345414  0.86698729  1  0  -0.146978  0  3.775197  0  0  -0.169221  0  4.024914  0  0  -0.170523  0  4.043792  0  0  -0.10116  -0.16834  0  4.012309  0
C  C43  1  0.22492487  0.54663981  0.13293032  1  0  -0.147598  0  3.776462  0  0  -0.170226  0  4.02582  0  0  -0.171464  0  4.044823  0  0  -0.10148  -0.169232  0  4.013888  0
C  C44  1  0.04893006  0.49563032  0.79489532  1  0  -0.168525  0  3.759304  0  0  -0.190416  0  4.015623  0  0  -0.195637  0  4.036701  0  0  -0.106846  -0.186705  0  3.999888  0
C  C45  1  0.33900463  0.50444791  0.20509560  1  0  -0.167095  0  3.75752  0  0  -0.188646  0  4.013739  0  0  -0.193867  0  4.034692  0  0  -0.106964  -0.185132  0  3.99953  0
C  C46  1  0.84112225  0.22231491  0.07023286  1  0  0.247382  0  3.78034  0  0  0.226888  0  4.047127  0  0  0.240262  0  4.060722  0  0  0.092086  0.217682  0  4.038347  0
C  C47  1  0.13368435  0.77756484  0.92964679  1  0  0.248504  0  3.781269  0  0  0.229191  0  4.047114  0  0  0.242444  0  4.060771  0  0  0.093497  0.220213  0  4.036885  0
C  C48  1  0.98712184  0.25811754  0.10263246  1  0  -0.201051  0  3.768375  0  0  -0.219602  0  4.026936  0  0  -0.227459  0  4.046409  0  0  -0.107702  -0.214736  0  4.014813  0
C  C49  1  0.34785151  0.74180999  0.89729371  1  0  -0.203416  0  3.768109  0  0  -0.222345  0  4.026892  0  0  -0.230259  0  4.046374  0  0  -0.108745  -0.217343  0  4.013937  0
C  C50  1  0.01172335  0.21857568  0.19752018  1  0  -0.03732  0  3.754637  0  0  -0.069818  0  4.016139  0  0  -0.064402  0  4.033063  0  0  -0.084503  -0.073182  0  4.00501  0
C  C51  1  0.42784474  0.78132986  0.80241327  1  0  -0.035718  0  3.752643  0  0  -0.067758  0  4.013887  0  0  -0.062294  0  4.030771  0  0  -0.083781  -0.07119  0  4.002404  0
C  C52  1  0.89488570  0.13896350  0.26175713  1  0  -0.081188  0  3.773925  0  0  -0.059574  0  4.015352  0  0  -0.070654  0  4.038109  0  0  -0.027655  -0.052105  0  3.999672  0
C  C53  1  0.29568233  0.86086471  0.73812772  1  0  -0.080132  0  3.77337  0  0  -0.059752  0  4.01581  0  0  -0.070936  0  4.038666  0  0  -0.028205  -0.05221  0  3.999623  0
C  C54  1  0.74945857  0.10204555  0.22951961  1  0  -0.091258  0  3.707338  0  0  -0.12797  0  3.959378  0  0  -0.124233  0  3.975891  0  0  -0.081885  -0.130056  0  3.947829  0
C  C55  1  0.08114681  0.89775281  0.77034686  1  0  -0.092263  0  3.70779  0  0  -0.129139  0  3.961035  0  0  -0.125462  0  3.977834  0  0  -0.082499  -0.130812  0  3.947187  0
C  C56  1  0.71976937  0.14605845  0.13582557  1  0  0.027707  0  3.77932  0  0  0.035684  0  4.05539  0  0  0.033854  0  4.074438  0  0  0.003573  0.036298  0  4.042925  0
C  C57  1  0.00170857  0.85377804  0.86405024  1  0  0.027319  0  3.783001  0  0  0.035107  0  4.059356  0  0  0.033176  0  4.078662  0  0  0.003869  0.036721  0  4.04305  0
C  C58  1  0.93256060  0.08498012  0.36011885  1  0  0.675452  0  3.841296  0  0  0.622853  0  4.12606  0  0  0.658726  0  4.11829  0  0  0.217984  0.598559  0  4.130542  0
C  C59  1  0.37766370  0.91497570  0.63978343  1  0  0.671363  0  3.843825  0  0  0.620575  0  4.126576  0  0  0.656453  0  4.118925  0  0  0.217125  0.595917  0  4.131586  0
Cl  Cl60  1  0.53277807  0.10703912  0.09893940  1  0  -0.063945  0  1.41571  0  0  -0.04798  0  1.658879  0  0  -0.050949  0  1.652769  0  0  0.019833  -0.04546  0  1.663511  0
Cl  Cl61  1  0.73881695  0.89290946  0.90090916  1  0  -0.063861  0  1.416137  0  0  -0.047755  0  1.659879  0  0  -0.050736  0  1.653855  0  0  0.019716  -0.046073  0  1.662887  0
O  O62  1  0.81681301  0.10094354  0.61000121  1  0  -0.654333  0  2.124574  0  0  -0.587108  0  2.395235  0  0  -0.616615  0  2.382252  0  0  -0.319503  -0.566716  0  2.403879  0
O  O63  1  0.52791389  0.89895425  0.39004636  1  0  -0.654617  0  2.12332  0  0  -0.587118  0  2.393824  0  0  -0.616612  0  2.380706  0  0  -0.319486  -0.56679  0  2.401988  0
O  O64  1  0.51580121  0.22627479  0.55599266  1  0  -0.63389  0  2.033612  0  0  -0.575256  0  2.291611  0  0  -0.602865  0  2.277839  0  0  -0.317375  -0.556309  0  2.300825  0
O  O65  1  0.29775161  0.77398166  0.44396868  1  0  -0.635625  0  2.033541  0  0  -0.576903  0  2.291715  0  0  -0.604577  0  2.277867  0  0  -0.31889  -0.557727  0  2.300855  0
O  O66  1  0.38049935  0.43929233  0.69595985  1  0  -0.288004  0  2.301174  0  0  -0.223658  0  2.528645  0  0  -0.24039  0  2.530756  0  0  -0.178492  -0.212352  0  2.526943  0
O  O67  1  0.51528353  0.56076097  0.30405606  1  0  -0.286666  0  2.297701  0  0  -0.222717  0  2.525642  0  0  -0.239413  0  2.527721  0  0  -0.178315  -0.211288  0  2.523974  0
O  O68  1  0.80835320  0.25766448  0.97838734  1  0  -0.280962  0  2.361705  0  0  -0.218142  0  2.590935  0  0  -0.235248  0  2.59195  0  0  -0.153227  -0.205988  0  2.589532  0
O  O69  1  0.04431504  0.74233477  0.02151566  1  0  -0.280252  0  2.360798  0  0  -0.218421  0  2.590454  0  0  -0.235073  0  2.591074  0  0  -0.153223  -0.206626  0  2.589502  0
O  O70  1  0.06420479  0.11670007  0.39154376  1  0  -0.650614  0  2.041848  0  0  -0.580334  0  2.281415  0  0  -0.608566  0  2.269359  0  0  -0.30491  -0.560713  0  2.288756  0
O  O71  1  0.57241772  0.88332207  0.60831333  1  0  -0.649561  0  2.041088  0  0  -0.579566  0  2.280092  0  0  -0.607887  0  2.268134  0  0  -0.3055  -0.560104  0  2.287874  0
O  O72  1  0.84110854  0.99673257  0.41499657  1  0  -0.682374  0  2.105239  0  0  -0.607065  0  2.378213  0  0  -0.635847  0  2.360661  0  0  -0.318398  -0.58699  0  2.389434  0
O  O73  1  0.25274316  0.00332502  0.58499067  1  0  -0.679244  0  2.104888  0  0  -0.604636  0  2.376991  0  0  -0.633416  0  2.359503  0  0  -0.316868  -0.584514  0  2.388587  0
O  O74  1  0.97566027  0.76573121  0.60228577  1  0  -0.807994  0  1.883127  0  0  -0.748851  0  2.087259  0  0  -0.769812  0  2.055577  0  0  -0.553262  -0.734316  0  2.108749  0
O  O75  1  0.34380655  0.23425486  0.39774387  1  0  -0.808633  0  1.882166  0  0  -0.750196  0  2.086967  0  0  -0.771108  0  2.05522  0  0  -0.554032  -0.735412  0  2.108512  0
