# generated using pymatgen
data_K2H4C3N2O7
_symmetry_space_group_name_H-M   'P 1'
_cell_length_a   5.37580917
_cell_length_b   11.91572300
_cell_length_c   13.12904103
_cell_angle_alpha   89.99897605
_cell_angle_beta   90.00062401
_cell_angle_gamma   89.99808408
_symmetry_Int_Tables_number   1
_chemical_formula_structural   K2H4C3N2O7
_chemical_formula_sum   'K8 H16 C12 N8 O28'
_cell_volume   841.00242503
_cell_formula_units_Z   4
loop_
 _symmetry_equiv_pos_site_id
 _symmetry_equiv_pos_as_xyz
  1  'x, y, z'
loop_
 _atom_site_type_symbol
 _atom_site_label
 _atom_site_symmetry_multiplicity
 _atom_site_fract_x
 _atom_site_fract_y
 _atom_site_fract_z
 _atom_site_occupancy
 _atom_site_hle17_bader_spin_density
 _atom_site_hle17_ddec_charge
 _atom_site_hle17_ddec_spin_density
 _atom_site_hle17_ddec_sum_bond_order
 _atom_site_hle17_magmom
 _atom_site_hse06_10hf_bader_spin_density
 _atom_site_hse06_10hf_ddec_charge
 _atom_site_hse06_10hf_ddec_spin_density
 _atom_site_hse06_10hf_ddec_sum_bond_order
 _atom_site_hse06_10hf_magmom
 _atom_site_hse06_bader_spin_density
 _atom_site_hse06_ddec_charge
 _atom_site_hse06_ddec_spin_density
 _atom_site_hse06_ddec_sum_bond_order
 _atom_site_hse06_magmom
 _atom_site_pbe_bader_spin_density
 _atom_site_pbe_cm5_charge
 _atom_site_pbe_ddec_charge
 _atom_site_pbe_ddec_spin_density
 _atom_site_pbe_ddec_sum_bond_order
 _atom_site_pbe_magmom
K  K0  1  0.55235095  0.89489259  0.78813594  1  0  0.917557  0  0.479524  0  0  0.85792  0  0.680521  0  0  0.873106  0  0.657681  0  0  0.831038  0.846661  0  0.696706  0
K  K1  1  0.94765311  0.10514327  0.28814093  1  0  0.917556  0  0.47954  0  0  0.857902  0  0.680554  0  0  0.873073  0  0.657745  0  0  0.831042  0.846644  0  0.696731  0
K  K2  1  0.44764934  0.39488873  0.71184722  1  0  0.917559  0  0.479515  0  0  0.85794  0  0.680494  0  0  0.873058  0  0.657775  0  0  0.83105  0.846684  0  0.696671  0
K  K3  1  0.05236130  0.60512551  0.21186394  1  0  0.917529  0  0.479552  0  0  0.857933  0  0.680466  0  0  0.873058  0  0.657743  0  0  0.83109  0.846678  0  0.696638  0
K  K4  1  0.94800009  0.13574077  0.78582419  1  0  0.921262  0  0.460935  0  0  0.871104  0  0.644522  0  0  0.886332  0  0.62147  0  0  0.773838  0.859718  0  0.661055  0
K  K5  1  0.55202622  0.86425831  0.28583543  1  0  0.921276  0  0.460942  0  0  0.871118  0  0.644491  0  0  0.886343  0  0.621441  0  0  0.773842  0.859732  0  0.661024  0
K  K6  1  0.05199218  0.63575643  0.71419492  1  0  0.921268  0  0.460908  0  0  0.871131  0  0.644474  0  0  0.88636  0  0.621422  0  0  0.77379  0.85975  0  0.661007  0
K  K7  1  0.44801481  0.36424759  0.21417614  1  0  0.921225  0  0.460943  0  0  0.871051  0  0.64458  0  0  0.886282  0  0.621531  0  0  0.773848  0.859663  0  0.661114  0
H  H8  1  0.75089264  0.30984755  0.94062823  1  0  0.408577  0  0.907362  0  0  0.381568  0  0.96689  0  0  0.392043  0  0.951486  0  0  0.28236  0.374152  0  0.977795  0
H  H9  1  0.74910169  0.69014756  0.44063511  1  0  0.408614  0  0.90731  0  0  0.381561  0  0.966906  0  0  0.392039  0  0.951499  0  0  0.282346  0.374146  0  0.977806  0
H  H10  1  0.24911040  0.80983835  0.55936313  1  0  0.408609  0  0.90729  0  0  0.381541  0  0.966886  0  0  0.392017  0  0.951479  0  0  0.282374  0.374127  0  0.977785  0
H  H11  1  0.25089137  0.19015622  0.05935851  1  0  0.408616  0  0.907262  0  0  0.381548  0  0.966873  0  0  0.392025  0  0.951467  0  0  0.282361  0.374132  0  0.977777  0
H  H12  1  0.89072253  0.38563176  0.86557576  1  0  0.416896  0  0.891255  0  0  0.388179  0  0.952856  0  0  0.399481  0  0.936251  0  0  0.284841  0.380189  0  0.964577  0
H  H13  1  0.60928973  0.61436729  0.36556772  1  0  0.416867  0  0.891295  0  0  0.388085  0  0.952986  0  0  0.399388  0  0.936381  0  0  0.28478  0.38009  0  0.964715  0
H  H14  1  0.10930678  0.88562614  0.63441407  1  0  0.416882  0  0.891309  0  0  0.388051  0  0.953051  0  0  0.399351  0  0.936454  0  0  0.284719  0.380058  0  0.964781  0
H  H15  1  0.39071241  0.11436533  0.13441220  1  0  0.416916  0  0.891247  0  0  0.38807  0  0.95304  0  0  0.399372  0  0.936437  0  0  0.284742  0.380076  0  0.964765  0
H  H16  1  0.43502102  0.13964993  0.93690450  1  0  0.423647  0  0.883239  0  0  0.393559  0  0.945245  0  0  0.404993  0  0.928719  0  0  0.294847  0.3855  0  0.956886  0
H  H17  1  0.06496001  0.86034076  0.43691189  1  0  0.423761  0  0.883076  0  0  0.393621  0  0.945183  0  0  0.405055  0  0.928656  0  0  0.294861  0.385558  0  0.956832  0
H  H18  1  0.56498566  0.63964286  0.56308118  1  0  0.423909  0  0.882931  0  0  0.393793  0  0.944992  0  0  0.405226  0  0.928466  0  0  0.294949  0.38573  0  0.956642  0
H  H19  1  0.93501081  0.36035110  0.06308817  1  0  0.423643  0  0.883228  0  0  0.393536  0  0.945273  0  0  0.404972  0  0.928744  0  0  0.29482  0.385472  0  0.956924  0
H  H20  1  0.38105835  0.26706313  0.91448440  1  0  0.414674  0  0.861021  0  0  0.391859  0  0.927661  0  0  0.40002  0  0.915557  0  0  0.31136  0.38604  0  0.935496  0
H  H21  1  0.11891077  0.73293654  0.41448942  1  0  0.414574  0  0.861216  0  0  0.391762  0  0.92781  0  0  0.399921  0  0.915709  0  0  0.311321  0.385946  0  0.935664  0
H  H22  1  0.61893680  0.76704592  0.58550611  1  0  0.414564  0  0.861102  0  0  0.391796  0  0.927702  0  0  0.399951  0  0.915607  0  0  0.311344  0.385985  0  0.935447  0
H  H23  1  0.88106973  0.23293569  0.08549896  1  0  0.414532  0  0.861226  0  0  0.391748  0  0.927798  0  0  0.399907  0  0.915698  0  0  0.311319  0.385935  0  0.935601  0
C  C24  1  0.54394173  0.06656240  0.53334058  1  0  -0.27127  0  3.626025  0  0  -0.284928  0  3.901663  0  0  -0.301194  0  3.913886  0  0  0.0528  -0.274766  0  3.894015  0
C  C25  1  0.95605746  0.93344603  0.03334614  1  0  -0.27108  0  3.62572  0  0  -0.284687  0  3.901322  0  0  -0.300942  0  3.913521  0  0  0.052907  -0.274522  0  3.893678  0
C  C26  1  0.45606069  0.56654707  0.96667791  1  0  -0.271278  0  3.626318  0  0  -0.284846  0  3.901891  0  0  -0.301101  0  3.914093  0  0  0.052876  -0.274697  0  3.894265  0
C  C27  1  0.04393436  0.43344677  0.46665234  1  0  -0.27079  0  3.625817  0  0  -0.284438  0  3.901399  0  0  -0.300688  0  3.913603  0  0  0.053061  -0.274305  0  3.89378  0
C  C28  1  0.42630010  0.11800555  0.61706751  1  0  0.514959  0  3.963682  0  0  0.462874  0  4.276904  0  0  0.496187  0  4.271035  0  0  0.185257  0.440558  0  4.280409  0
C  C29  1  0.07370362  0.88201808  0.11707536  1  0  0.514764  0  3.964031  0  0  0.462667  0  4.277309  0  0  0.495976  0  4.271443  0  0  0.185061  0.440352  0  4.280814  0
C  C30  1  0.57369058  0.61798563  0.88294821  1  0  0.515374  0  3.963135  0  0  0.463203  0  4.276432  0  0  0.496516  0  4.270559  0  0  0.185319  0.440887  0  4.279947  0
C  C31  1  0.92630552  0.38199805  0.38293200  1  0  0.514756  0  3.963547  0  0  0.46265  0  4.276798  0  0  0.495957  0  4.270938  0  0  0.185188  0.440344  0  4.280295  0
C  C32  1  0.76104996  0.99104446  0.53421923  1  0  0.701322  0  3.955025  0  0  0.648717  0  4.260612  0  0  0.685031  0  4.249346  0  0  0.207866  0.624203  0  4.267632  0
C  C33  1  0.73895856  0.00896224  0.03420791  1  0  0.701063  0  3.95518  0  0  0.648438  0  4.260799  0  0  0.684746  0  4.249547  0  0  0.207739  0.623921  0  4.267814  0
C  C34  1  0.23894068  0.49103405  0.96579632  1  0  0.700828  0  3.955063  0  0  0.64823  0  4.260638  0  0  0.684539  0  4.249383  0  0  0.207605  0.623718  0  4.267651  0
C  C35  1  0.26106365  0.50896488  0.46577067  1  0  0.701062  0  3.955152  0  0  0.648514  0  4.260653  0  0  0.684828  0  4.249386  0  0  0.207867  0.624008  0  4.267672  0
N  N36  1  0.22965976  0.17270324  0.47001586  1  0  -0.157209  0  2.606333  0  0  -0.177638  0  2.915263  0  0  -0.176211  0  2.917803  0  0  -0.161452  -0.178786  0  2.913823  0
N  N37  1  0.27033169  0.82729877  0.97002471  1  0  -0.157059  0  2.606478  0  0  -0.177424  0  2.915401  0  0  -0.175991  0  2.917937  0  0  -0.161332  -0.178577  0  2.913968  0
N  N38  1  0.77032982  0.67269792  0.02998655  1  0  -0.157116  0  2.606568  0  0  -0.177535  0  2.915497  0  0  -0.176104  0  2.918039  0  0  -0.161401  -0.17868  0  2.914053  0
N  N39  1  0.72967670  0.32730401  0.52998376  1  0  -0.157306  0  2.606316  0  0  -0.177755  0  2.915231  0  0  -0.176324  0  2.917773  0  0  -0.161522  -0.1789  0  2.913785  0
N  N40  1  0.41471284  0.10431559  0.44865216  1  0  0.383548  0  3.885617  0  0  0.418504  0  4.173299  0  0  0.432883  0  4.189874  0  0  -0.029171  0.409001  0  4.162181  0
N  N41  1  0.08529835  0.89568107  0.94865338  1  0  0.383281  0  3.885844  0  0  0.418233  0  4.173534  0  0  0.432608  0  4.190109  0  0  -0.029294  0.40873  0  4.162418  0
N  N42  1  0.58528307  0.60430998  0.05135803  1  0  0.383162  0  3.886392  0  0  0.418081  0  4.174142  0  0  0.43246  0  4.190716  0  0  -0.029445  0.408582  0  4.163017  0
N  N43  1  0.91472045  0.39569647  0.55134122  1  0  0.383516  0  3.885628  0  0  0.418477  0  4.17331  0  0  0.432853  0  4.189877  0  0  -0.029228  0.408982  0  4.162195  0
O  O44  1  0.23135187  0.18249783  0.57635808  1  0  -0.242925  0  2.280969  0  0  -0.184191  0  2.539807  0  0  -0.200838  0  2.540278  0  0  -0.072179  -0.172895  0  2.539284  0
O  O45  1  0.26865792  0.81751832  0.07637061  1  0  -0.242937  0  2.28069  0  0  -0.184358  0  2.539686  0  0  -0.200995  0  2.540119  0  0  -0.072221  -0.173058  0  2.539162  0
O  O46  1  0.76864782  0.68248426  0.92364369  1  0  -0.243099  0  2.280848  0  0  -0.18437  0  2.539753  0  0  -0.201019  0  2.540221  0  0  -0.072231  -0.173071  0  2.539224  0
O  O47  1  0.73135338  0.31749850  0.42363545  1  0  -0.243049  0  2.280725  0  0  -0.184286  0  2.539559  0  0  -0.200931  0  2.540019  0  0  -0.072232  -0.17299  0  2.539031  0
O  O48  1  0.45549349  0.11934776  0.71102949  1  0  -0.661289  0  2.039623  0  0  -0.624865  0  2.283721  0  0  -0.646114  0  2.274148  0  0  -0.434583  -0.609851  0  2.289796  0
O  O49  1  0.04451340  0.88068668  0.21102884  1  0  -0.661098  0  2.040189  0  0  -0.624599  0  2.284176  0  0  -0.645847  0  2.274606  0  0  -0.434415  -0.609588  0  2.290253  0
O  O50  1  0.54448029  0.61932140  0.78898015  1  0  -0.661462  0  2.039459  0  0  -0.624997  0  2.283542  0  0  -0.646246  0  2.273964  0  0  -0.434587  -0.60998  0  2.289622  0
O  O51  1  0.95550892  0.38063889  0.28896477  1  0  -0.661217  0  2.039423  0  0  -0.624813  0  2.283569  0  0  -0.646064  0  2.274009  0  0  -0.434573  -0.609795  0  2.289631  0
O  O52  1  0.45389745  0.08085871  0.35433817  1  0  -0.577945  0  1.780471  0  0  -0.560034  0  2.02125  0  0  -0.576112  0  2.015805  0  0  -0.355059  -0.548303  0  2.024655  0
O  O53  1  0.04609753  0.91913135  0.85433897  1  0  -0.577865  0  1.780591  0  0  -0.559938  0  2.021363  0  0  -0.576021  0  2.015922  0  0  -0.354953  -0.548203  0  2.024767  0
O  O54  1  0.54609382  0.58086076  0.14567308  1  0  -0.577679  0  1.780642  0  0  -0.559747  0  2.021407  0  0  -0.575815  0  2.015968  0  0  -0.354898  -0.548014  0  2.024806  0
O  O55  1  0.95390358  0.41915479  0.64565914  1  0  -0.577978  0  1.780258  0  0  -0.560071  0  2.021028  0  0  -0.576139  0  2.01558  0  0  -0.355121  -0.548342  0  2.024436  0
O  O56  1  0.84804812  0.96773942  0.62234515  1  0  -0.698891  0  1.949121  0  0  -0.642738  0  2.176884  0  0  -0.667294  0  2.165168  0  0  -0.395123  -0.625577  0  2.184518  0
O  O57  1  0.65195594  0.03227342  0.12233248  1  0  -0.698802  0  1.94917  0  0  -0.64262  0  2.176955  0  0  -0.66718  0  2.165244  0  0  -0.395079  -0.625457  0  2.184584  0
O  O58  1  0.15194531  0.46773260  0.87766765  1  0  -0.698685  0  1.949125  0  0  -0.642568  0  2.176894  0  0  -0.667121  0  2.165178  0  0  -0.395032  -0.625406  0  2.184524  0
O  O59  1  0.34804674  0.53225598  0.37764047  1  0  -0.698787  0  1.949057  0  0  -0.642658  0  2.17681  0  0  -0.667213  0  2.165092  0  0  -0.395195  -0.625502  0  2.18444  0
O  O60  1  0.84498410  0.95488042  0.44937960  1  0  -0.704316  0  1.984941  0  0  -0.650309  0  2.216269  0  0  -0.67523  0  2.205118  0  0  -0.412177  -0.632902  0  2.223406  0
O  O61  1  0.65501424  0.04512001  0.94936484  1  0  -0.70414  0  1.984855  0  0  -0.650174  0  2.216226  0  0  -0.675099  0  2.205091  0  0  -0.412106  -0.632769  0  2.22336  0
O  O62  1  0.15499213  0.45487928  0.05064139  1  0  -0.703955  0  1.984723  0  0  -0.649979  0  2.216042  0  0  -0.674907  0  2.204935  0  0  -0.411966  -0.632568  0  2.223166  0
O  O63  1  0.34497586  0.54512340  0.55061667  1  0  -0.704106  0  1.984911  0  0  -0.650173  0  2.216273  0  0  -0.675072  0  2.205087  0  0  -0.412088  -0.632764  0  2.223405  0
O  O64  1  0.74981310  0.33070386  0.86690942  1  0  -0.943543  0  1.806078  0  0  -0.896869  0  1.979515  0  0  -0.915707  0  1.947615  0  0  -0.735826  -0.883393  0  2.001884  0
O  O65  1  0.75020478  0.66930266  0.36690827  1  0  -0.943551  0  1.806037  0  0  -0.896793  0  1.979609  0  0  -0.915634  0  1.947709  0  0  -0.735798  -0.883316  0  2.001976  0
O  O66  1  0.25023023  0.83069080  0.63308312  1  0  -0.943515  0  1.805938  0  0  -0.896697  0  1.979683  0  0  -0.91554  0  1.947784  0  0  -0.735724  -0.883227  0  2.002046  0
O  O67  1  0.24978334  0.16929992  0.13308341  1  0  -0.943546  0  1.805793  0  0  -0.896715  0  1.979463  0  0  -0.915563  0  1.947564  0  0  -0.735737  -0.883238  0  2.001832  0
O  O68  1  0.29685039  0.19692022  0.93122355  1  0  -0.845179  0  1.823633  0  0  -0.79279  0  1.992494  0  0  -0.811424  0  1.963078  0  0  -0.62868  -0.779633  0  2.012355  0
O  O69  1  0.20312487  0.80307503  0.43123101  1  0  -0.845171  0  1.8237  0  0  -0.792776  0  1.992536  0  0  -0.811409  0  1.963121  0  0  -0.628637  -0.779623  0  2.012424  0
O  O70  1  0.70314199  0.69690359  0.56876175  1  0  -0.845254  0  1.823523  0  0  -0.792889  0  1.992442  0  0  -0.811535  0  1.963047  0  0  -0.628727  -0.779725  0  2.012217  0
O  O71  1  0.79684537  0.30307825  0.06876258  1  0  -0.845054  0  1.823804  0  0  -0.792696  0  1.992678  0  0  -0.811332  0  1.963266  0  0  -0.628638  -0.779531  0  2.012508  0
