# generated using pymatgen
data_Cu3H28C42(N3O10)2
_symmetry_space_group_name_H-M   'P 1'
_cell_length_a   6.61857691
_cell_length_b   10.84383034
_cell_length_c   14.23419833
_cell_angle_alpha   103.79279812
_cell_angle_beta   98.65538475
_cell_angle_gamma   91.50851470
_symmetry_Int_Tables_number   1
_chemical_formula_structural   Cu3H28C42(N3O10)2
_chemical_formula_sum   'Cu3 H28 C42 N6 O20'
_cell_volume   978.78029062
_cell_formula_units_Z   1
loop_
 _symmetry_equiv_pos_site_id
 _symmetry_equiv_pos_as_xyz
  1  'x, y, z'
loop_
 _atom_site_type_symbol
 _atom_site_label
 _atom_site_symmetry_multiplicity
 _atom_site_fract_x
 _atom_site_fract_y
 _atom_site_fract_z
 _atom_site_occupancy
 _atom_site_hle17_ddec_charge
 _atom_site_hle17_ddec_spin_density
 _atom_site_hle17_ddec_sum_bond_order
 _atom_site_hle17_magmom
 _atom_site_hse06_10hf_ddec_charge
 _atom_site_hse06_10hf_ddec_spin_density
 _atom_site_hse06_10hf_ddec_sum_bond_order
 _atom_site_hse06_10hf_magmom
 _atom_site_hse06_ddec_charge
 _atom_site_hse06_ddec_spin_density
 _atom_site_hse06_ddec_sum_bond_order
 _atom_site_hse06_magmom
 _atom_site_pbe_cm5_charge
 _atom_site_pbe_ddec_charge
 _atom_site_pbe_ddec_spin_density
 _atom_site_pbe_ddec_sum_bond_order
 _atom_site_pbe_magmom
Cu  Cu0  1  0.46194582  0.70725716  0.28917499  1  0.954198  0.72126  1.658652  0.525  0.941748  0.805113  2.041959  0.645  1.030256  0.878357  1.979974  0.735  0.723454  0.87951  0.750414  2.093093  0.584
Cu  Cu1  1  0.53789547  0.29265663  0.71078236  1  0.954565  -0.757858  1.658969  -0.524  0.941821  -0.836546  2.042369  -0.645  1.03058  -0.920386  1.980137  -0.735  0.723431  0.879203  -0.769622  2.093908  -0.582
Cu  Cu2  1  0.00005186  0.99998488  0.50006768  1  0.911484  0.724991  1.796549  0.526  0.902363  0.814438  2.17225  0.651  0.986668  0.886651  2.117735  0.741  0.759238  0.843892  0.754204  2.218086  0.586
H  H3  1  0.86809618  0.88427963  0.02675921  1  0.418278  1.1e-05  0.776958  0.0  0.399828  5e-06  0.833085  0.0  0.409418  6e-06  0.823013  0.0  0.349761  0.39294  6e-06  0.840464  0.0
H  H4  1  0.13176560  0.11562634  0.97322219  1  0.418326  -9e-06  0.776735  0.0  0.400013  -5e-06  0.832716  0.0  0.409601  -6e-06  0.822639  0.0  0.349786  0.393125  -7e-06  0.8401  0.0
H  H5  1  0.90132559  0.62855836  0.25647008  1  0.418216  9.1e-05  0.880827  0.0  0.394272  7e-05  0.935706  0.0  0.405208  2.7e-05  0.919274  0.0  0.283102  0.386483  7.1e-05  0.947426  0.0
H  H6  1  0.09874279  0.37146147  0.74358425  1  0.41833  -8.2e-05  0.880673  0.0  0.394391  -6.3e-05  0.935564  0.0  0.405335  -2.1e-05  0.919117  0.0  0.28318  0.3866  -6.3e-05  0.947285  0.0
H  H7  1  0.90698587  0.77554727  0.29025067  1  0.421504  7.6e-05  0.879098  0.0  0.399681  5.3e-05  0.930549  0.0  0.4097  3.3e-05  0.915501  0.0  0.285588  0.392506  6.1e-05  0.941309  0.0
H  H8  1  0.09305762  0.22446734  0.70978698  1  0.421832  -2e-06  0.878734  0.0  0.399885  -8e-06  0.930374  0.0  0.409894  1.6e-05  0.915333  0.0  0.285597  0.392735  -2e-05  0.941113  0.0
H  H9  1  0.15644834  0.62959842  0.80689259  1  0.302925  5.1e-05  0.913563  0.0  0.283223  3.8e-05  0.979705  0.0  0.291505  2.2e-05  0.973483  0.0  0.307499  0.277326  3.5e-05  0.984069  0.0
H  H10  1  0.84351232  0.37037955  0.19309022  1  0.303043  -9e-05  0.913348  0.0  0.283146  -4.9e-05  0.979718  0.0  0.29146  -3.2e-05  0.973474  0.0  0.307406  0.277238  -4.7e-05  0.984081  0.0
H  H11  1  0.15623506  0.51863459  0.92840576  1  0.131809  0.000583  0.931424  0.001  0.143261  0.000477  0.985265  0.001  0.146079  0.000329  0.985133  0.0  0.117704  0.14101  0.00059  0.985832  0.001
H  H12  1  0.84364235  0.48135194  0.07157886  1  0.13154  -0.000622  0.931379  -0.001  0.143195  -0.000497  0.985028  -0.001  0.146023  -0.000344  0.984903  0.0  0.117642  0.140962  -0.000609  0.985571  -0.001
H  H13  1  0.77799199  0.98897158  0.83153875  1  0.11193  -0.000181  0.947051  0.0  0.120822  -0.000141  1.009207  0.0  0.123962  -7.3e-05  1.007696  0.0  0.111558  0.118521  -2e-05  1.01028  0.0
H  H14  1  0.22191243  0.01099577  0.16846991  1  0.111714  0.000189  0.947102  0.0  0.12058  0.000138  1.009374  0.0  0.123722  7.3e-05  1.007829  0.0  0.111488  0.118279  1.9e-05  1.01047  0.0
H  H15  1  0.24318407  0.51876855  0.10318321  1  0.096236  0.001108  0.996635  0.002  0.099927  0.00091  1.066595  0.001  0.101937  0.000627  1.063961  0.001  0.117173  0.098243  0.001108  1.068349  0.002
H  H16  1  0.75668636  0.48120963  0.89680726  1  0.096283  -0.001171  0.996501  -0.002  0.099821  -0.000946  1.066631  -0.001  0.10183  -0.00066  1.063999  -0.001  0.117188  0.098151  -0.001138  1.068374  -0.002
H  H17  1  0.16636046  0.54324751  0.48896280  1  0.101813  0.000431  0.964214  0.0  0.113334  0.0004  1.020858  0.0  0.115444  0.000284  1.021837  0.0  0.108093  0.111689  0.000531  1.02064  0.001
H  H18  1  0.83380412  0.45679777  0.51102179  1  0.101957  0.00041  0.964426  0.0  0.11351  0.00037  1.021026  0.0  0.115603  0.000262  1.02203  0.0  0.108208  0.11188  0.000504  1.02079  0.001
H  H19  1  0.45426554  0.89712049  0.00087773  1  0.132917  0.00045  0.980669  0.001  0.137436  0.000365  1.047004  0.001  0.141511  0.000248  1.044769  0.0  0.110941  0.134453  0.000457  1.048796  0.001
H  H20  1  0.54566257  0.10283762  0.99910579  1  0.133052  -0.000472  0.980491  -0.001  0.137562  -0.000376  1.046829  -0.001  0.141648  -0.00026  1.044597  0.0  0.110924  0.134592  -0.000462  1.04861  -0.001
H  H21  1  0.65246615  0.60282474  0.55950824  1  0.10735  -0.00014  0.949497  0.0  0.118874  -2.5e-05  1.0081  0.0  0.122488  -5e-06  1.005968  0.0  0.107842  0.115971  0.00018  1.010067  0.0
H  H22  1  0.34772651  0.39719273  0.44043089  1  0.107369  0.000268  0.94978  0.001  0.119015  0.000124  1.008204  0.0  0.122627  6.1e-05  1.006093  0.0  0.107955  0.116122  5.6e-05  1.010126  0.0
H  H23  1  0.18500729  0.97523995  0.69841840  1  0.105236  0.001247  0.929329  0.002  0.10935  0.000952  0.996658  0.002  0.11243  0.00066  0.99224  0.001  0.126626  0.106927  0.001166  0.999921  0.002
H  H24  1  0.81494416  0.02474218  0.30164244  1  0.105274  0.001244  0.929263  0.002  0.109517  0.000964  0.996489  0.002  0.112607  0.000667  0.992044  0.001  0.126783  0.107043  0.001201  0.999832  0.002
H  H25  1  0.07896354  0.73033297  0.42161429  1  0.088696  0.00097  0.967644  0.002  0.090809  0.000745  1.041625  0.001  0.093208  0.000481  1.037188  0.001  0.121378  0.088747  0.000926  1.045054  0.002
H  H26  1  0.92119000  0.26974174  0.57840601  1  0.088651  0.001072  0.967383  0.002  0.090822  0.000898  1.041293  0.001  0.093224  0.000647  1.036852  0.001  0.121368  0.088759  0.001097  1.044741  0.002
H  H27  1  0.54004872  0.87877783  0.17049358  1  0.09294  0.001198  0.965915  0.002  0.09847  0.000938  1.032966  0.002  0.100612  0.000643  1.029831  0.001  0.11831  0.096384  0.00112  1.03572  0.002
H  H28  1  0.45981921  0.12120609  0.82949907  1  0.093001  -0.001262  0.965466  -0.002  0.098497  -0.000955  1.032599  -0.002  0.10064  -0.000657  1.02945  -0.001  0.118303  0.096426  -0.001128  1.035349  -0.002
H  H29  1  0.25882804  0.57374435  0.67051936  1  0.118315  0.000316  0.940185  0.001  0.127998  4.1e-05  0.999515  0.0  0.131609  1.2e-05  0.995687  0.0  0.11647  0.125132  9.9e-05  1.002605  0.0
H  H30  1  0.74127932  0.42623263  0.32946038  1  0.117996  0.000414  0.940682  0.001  0.127932  0.000122  0.999728  0.0  0.131525  4.8e-05  0.995915  0.0  0.116435  0.125089  0.00018  1.002794  0.0
C  C31  1  0.23844098  0.60175364  0.98002457  1  -0.193885  0.01099  3.64977  0.012  -0.209578  0.004176  3.893578  0.005  -0.22081  0.003766  3.913584  0.005  -0.082411  -0.202345  0.004467  3.880532  0.005
C  C32  1  0.76145960  0.39821948  0.01995456  1  -0.193557  -0.011339  3.649604  -0.012  -0.209506  -0.004293  3.893596  -0.005  -0.22075  -0.003901  3.913605  -0.005  -0.082314  -0.202257  -0.004543  3.880515  -0.005
C  C33  1  0.75805273  0.90390004  0.77145843  1  -0.065557  -0.000684  3.682714  0.0  -0.105136  -0.000539  3.942324  0.0  -0.104131  -0.00034  3.960333  0.0  -0.076708  -0.105003  -0.001837  3.929743  -0.001
C  C34  1  0.24190025  0.09609330  0.22853200  1  -0.065334  0.000305  3.68314  0.0  -0.104992  0.000329  3.942743  0.0  -0.103958  0.000198  3.960736  0.0  -0.076648  -0.104898  0.001639  3.930165  0.001
C  C35  1  0.28680038  0.60117409  0.07816050  1  0.138124  -0.006502  3.695009  -0.006  0.109235  -0.000144  3.951618  -0.001  0.121118  -0.001426  3.969965  -0.002  0.044521  0.101856  0.000774  3.939112  0.0
C  C36  1  0.71305622  0.39880290  0.92182176  1  0.138368  0.005908  3.694882  0.006  0.109516  -3.4e-05  3.951659  0.001  0.121403  0.001212  3.970015  0.002  0.04465  0.102132  -0.000906  3.939102  0.0
C  C37  1  0.16859349  0.63668031  0.53862906  1  -0.108663  0.009598  3.709952  0.01  -0.119237  0.003634  3.961811  0.004  -0.128411  0.003213  3.981992  0.004  -0.081013  -0.113611  0.003893  3.949037  0.005
C  C38  1  0.83151801  0.36335511  0.46137471  1  -0.10912  0.008876  3.71031  0.01  -0.11972  0.003449  3.962172  0.004  -0.128872  0.003079  3.98235  0.004  -0.08114  -0.114099  0.003749  3.949389  0.004
C  C39  1  0.73284134  0.67425256  0.71618349  1  -0.040481  -0.009851  3.696207  -0.01  -0.030921  -0.005952  3.937339  -0.007  -0.033588  -0.00392  3.955264  -0.004  -0.002775  -0.028601  -0.007676  3.925041  -0.008
C  C40  1  0.26726568  0.32573523  0.28377765  1  -0.040307  0.009415  3.69612  0.01  -0.030784  0.005611  3.937238  0.006  -0.033445  0.003649  3.955154  0.004  -0.002556  -0.028464  0.007426  3.924931  0.008
C  C41  1  0.64985855  0.81029980  0.49150671  1  0.655703  -0.006821  3.834219  -0.011  0.619445  0.002044  4.13007  0.0  0.660989  0.00147  4.120918  0.0  0.219479  0.590566  0.002734  4.135223  -0.001
C  C42  1  0.35009633  0.18982044  0.50848591  1  0.656285  -0.000165  3.834711  0.001  0.620072  0.001564  4.129806  0.003  0.66164  0.001677  4.120568  0.003  0.219654  0.591096  0.001424  4.134987  0.003
C  C43  1  0.72862184  0.05255646  0.66706785  1  0.672186  0.002581  3.882271  0.006  0.621356  -0.001187  4.195641  0.001  0.661104  -0.000501  4.182817  0.001  0.21781  0.593464  -0.00137  4.203497  0.001
C  C44  1  0.27150697  0.94745370  0.33294633  1  0.671402  -0.004411  3.883495  -0.008  0.620363  0.000327  4.197224  -0.002  0.660085  -0.000246  4.184453  -0.002  0.217231  0.59247  0.000538  4.205071  -0.002
C  C45  1  0.68725013  0.80619617  0.59764116  1  -0.056755  0.004005  3.703956  0.005  -0.046943  0.001453  3.938119  0.002  -0.051154  0.001029  3.956874  0.002  -0.006972  -0.044356  0.002804  3.925562  0.004
C  C46  1  0.31294351  0.19380248  0.40233426  1  -0.056781  -0.003089  3.703663  -0.003  -0.047045  -0.001948  3.937864  -0.002  -0.051242  -0.0017  3.956623  -0.002  -0.007114  -0.044553  -0.002997  3.925354  -0.003
C  C47  1  0.40534540  0.81127429  0.01966485  1  -0.218001  0.011414  3.695739  0.012  -0.239812  0.004426  3.950039  0.006  -0.250658  0.003806  3.968801  0.005  -0.097639  -0.232963  0.004887  3.937782  0.006
C  C48  1  0.59457473  0.18869633  0.98032580  1  -0.218292  -0.011792  3.695852  -0.012  -0.240097  -0.004566  3.950248  -0.005  -0.250979  -0.003957  3.969057  -0.005  -0.097671  -0.233239  -0.004967  3.937978  -0.006
C  C49  1  0.68781391  0.68713731  0.62005533  1  -0.093176  -9.8e-05  3.708602  0.0  -0.125838  -0.000415  3.963274  0.0  -0.126897  -0.000273  3.982677  0.0  -0.079143  -0.124515  -0.001143  3.950302  -0.001
C  C50  1  0.31229222  0.31285727  0.37991108  1  -0.093442  -0.000322  3.708608  0.0  -0.126246  0.000421  3.963445  0.0  -0.127327  0.000116  3.982895  0.0  -0.079356  -0.124909  0.001581  3.95043  0.001
C  C51  1  0.22065330  0.77745118  0.69925740  1  -0.119817  0.009391  3.759121  0.01  -0.094598  0.003603  3.995574  0.004  -0.109043  0.003131  4.022012  0.004  -0.008772  -0.085735  0.003997  3.978902  0.005
C  C52  1  0.77938652  0.22252464  0.30074826  1  -0.119893  0.008598  3.759072  0.009  -0.094779  0.003458  3.995588  0.004  -0.109204  0.003027  4.02198  0.004  -0.008761  -0.085906  0.003771  3.978899  0.005
C  C53  1  0.17958106  0.87789838  0.65462236  1  0.140331  -0.007256  3.638493  -0.007  0.099889  -0.000556  3.897942  -0.001  0.112215  -0.001705  3.914159  -0.002  0.062891  0.091916  0.00062  3.887235  0.0
C  C54  1  0.82041698  0.12210477  0.34541225  1  0.139885  -0.006682  3.638439  -0.007  0.099485  -0.000324  3.897931  -0.001  0.111815  -0.001493  3.914138  -0.002  0.062545  0.091566  0.000829  3.88722  0.0
C  C55  1  0.12133901  0.74043838  0.49996182  1  0.15517  -0.006446  3.650926  -0.006  0.123614  -0.000333  3.908364  -0.001  0.135868  -0.001492  3.923853  -0.002  0.055502  0.115778  0.000446  3.898007  0.0
C  C56  1  0.87874886  0.25959077  0.50005469  1  0.155587  -0.006121  3.650782  -0.006  0.124093  -0.000202  3.90827  -0.001  0.136334  -0.001301  3.923782  -0.002  0.055848  0.116214  0.000549  3.897953  0.0
C  C57  1  0.76661282  0.78508427  0.79330903  1  -0.086118  -0.001171  3.75732  -0.001  -0.075209  -0.001177  4.001088  -0.001  -0.081459  -0.000724  4.02192  -0.001  -0.016731  -0.071261  -0.000958  3.98706  -0.001
C  C58  1  0.23341383  0.21489519  0.20665905  1  -0.08655  0.001446  3.758218  0.001  -0.075426  0.001324  4.001682  0.001  -0.081688  0.000719  4.022536  0.001  -0.016831  -0.071443  0.001375  3.987627  0.001
C  C59  1  0.80336799  0.77805066  0.89727622  1  0.63587  -0.000284  3.822348  0.0  0.581527  -0.000225  4.133771  0.0  0.613949  -0.000126  4.124931  0.0  0.226737  0.559282  -0.000196  4.139517  0.0
C  C60  1  0.19657280  0.22189564  0.10269150  1  0.636111  0.000191  3.823128  0.0  0.581768  0.000221  4.134575  0.0  0.614168  0.000113  4.125784  0.0  0.226863  0.559532  0.00023  4.140292  0.0
C  C61  1  0.45228663  0.80129034  0.11550057  1  0.135089  -0.006948  3.718005  -0.007  0.108743  -0.000291  3.971903  -0.001  0.119987  -0.00159  3.990546  -0.002  0.038311  0.101484  0.000718  3.959818  0.0
C  C62  1  0.54761734  0.19868688  0.88448932  1  0.135336  0.006362  3.717756  0.007  0.108924  0.00013  3.971714  0.001  0.120168  0.001401  3.990377  0.002  0.038388  0.101663  -0.000842  3.959572  0.0
C  C63  1  0.26747810  0.80989237  0.80861311  1  0.545823  -0.000614  3.820857  -0.001  0.496036  6.8e-05  4.111127  0.0  0.525053  -3.8e-05  4.113355  0.0  0.244334  0.476148  0.000167  4.109673  0.0
C  C64  1  0.73253095  0.19008158  0.19139356  1  0.546021  0.001247  3.820087  0.001  0.496393  0.000743  4.109998  0.001  0.52546  0.00053  4.11222  0.0  0.244416  0.476471  0.000918  4.108541  0.001
C  C65  1  0.21788034  0.65412772  0.63954756  1  -0.006987  -0.008464  3.677331  -0.008  -0.038322  -0.002343  3.928012  -0.002  -0.030291  -0.002571  3.942712  -0.003  -0.057129  -0.043809  -0.001839  3.919044  -0.002
C  C66  1  0.78223047  0.34586968  0.36045128  1  -0.007117  -0.007734  3.677751  -0.007  -0.038561  -0.002081  3.928373  -0.002  -0.03053  -0.002349  3.943074  -0.002  -0.057425  -0.044017  -0.00168  3.919375  -0.002
C  C67  1  0.75109773  0.54161343  0.73184293  1  0.666926  0.001634  3.900517  0.004  0.615942  -0.001355  4.215611  0.0  0.654404  -0.000742  4.203184  0.0  0.215501  0.588957  -0.00138  4.223445  0.0
C  C68  1  0.24902023  0.45837763  0.26813288  1  0.667423  -0.002058  3.899478  -0.005  0.616602  0.001214  4.214232  0.0  0.65506  0.0006  4.201786  0.0  0.215983  0.589605  0.001252  4.222098  0.0
C  C69  1  0.72428226  0.91636943  0.67517734  1  -0.048531  -0.009433  3.699539  -0.01  -0.034678  -0.00537  3.93837  -0.006  -0.039184  -0.003482  3.956432  -0.004  -0.003954  -0.031183  -0.007081  3.925737  -0.008
C  C70  1  0.27577662  0.08362743  0.32480295  1  -0.048169  0.008581  3.6995  0.01  -0.034115  0.005051  3.938227  0.006  -0.038622  0.003028  3.956302  0.004  -0.003795  -0.030566  0.007092  3.925551  0.008
C  C71  1  0.29450131  0.70961248  0.94894794  1  0.315573  -0.008385  3.762929  -0.008  0.304888  -0.002476  4.007395  -0.003  0.319549  -0.002716  4.025461  -0.003  0.118854  0.29485  -0.002273  3.995345  -0.002
C  C72  1  0.70543414  0.29035797  0.05103674  1  0.315591  0.008065  3.763061  0.008  0.304727  0.0025  4.007739  0.003  0.319423  0.002658  4.025832  0.003  0.11888  0.294666  0.002374  3.995661  0.003
N  N73  1  0.39056537  0.69989154  0.14592784  1  -0.32042  0.093632  3.330558  0.117  -0.280127  0.061201  3.632575  0.082  -0.316145  0.049216  3.656015  0.07  -0.353726  -0.258301  0.067408  3.618356  0.087
N  N74  1  0.60930730  0.30007786  0.85405360  1  -0.32064  -0.098646  3.330657  -0.118  -0.280279  -0.063684  3.632535  -0.082  -0.316367  -0.051663  3.65601  -0.07  -0.353749  -0.258296  -0.069401  3.618239  -0.087
N  N75  1  0.24224365  0.70930388  0.85048675  1  -0.443618  0.000509  3.316398  0.001  -0.384343  9.5e-05  3.551169  0.0  -0.408515  -3.7e-05  3.559001  0.0  -0.386342  -0.367653  0.00025  3.54568  0.001
N  N76  1  0.75774196  0.29066379  0.14949964  1  -0.443829  0.000676  3.31612  0.0  -0.384228  0.000432  3.550695  0.0  -0.408532  0.000385  3.558629  0.0  -0.38623  -0.367436  0.000493  3.545124  0.0
N  N77  1  0.12694813  0.85935900  0.55724642  1  -0.301768  0.075456  3.299171  0.095  -0.252911  0.051817  3.587637  0.07  -0.284686  0.041901  3.610193  0.06  -0.340391  -0.232899  0.056703  3.573636  0.073
N  N78  1  0.87312926  0.14067365  0.44279311  1  -0.301221  0.075302  3.297776  0.094  -0.252644  0.05188  3.586459  0.07  -0.284382  0.041918  3.609053  0.06  -0.340082  -0.232632  0.056803  3.572402  0.073
O  O79  1  0.52931512  0.72109451  0.43353725  1  -0.56856  0.087101  2.051599  0.116  -0.545234  0.054636  2.327866  0.079  -0.588245  0.040195  2.320298  0.062  -0.307322  -0.515834  0.064625  2.333275  0.09
O  O80  1  0.47017890  0.27917720  0.56652491  1  -0.569682  -0.058052  2.052892  -0.074  -0.5456  -0.039513  2.328632  -0.056  -0.588785  -0.032011  2.321062  -0.047  -0.307339  -0.515462  -0.041872  2.333758  -0.057
O  O81  1  0.78648042  0.68068799  0.92562761  1  -0.524372  7e-06  1.982198  0.0  -0.486424  -7.5e-05  2.207037  0.0  -0.506036  -1.9e-05  2.201278  0.0  -0.269038  -0.472838  -0.000151  2.210696  0.0
O  O82  1  0.21335306  0.31925539  0.07433830  1  -0.524364  9.8e-05  1.982711  0.0  -0.48643  0.000127  2.207591  0.0  -0.506003  4.5e-05  2.201785  0.0  -0.269112  -0.472875  0.000291  2.211343  0.0
O  O83  1  0.58032243  0.47931960  0.72392537  1  -0.590375  -0.062073  2.054775  -0.079  -0.560679  -0.038939  2.338347  -0.054  -0.598214  -0.030858  2.324808  -0.045  -0.315373  -0.531652  -0.04752  2.346219  -0.065
O  O84  1  0.41982493  0.52066055  0.27606548  1  -0.590862  0.059272  2.055241  0.079  -0.561168  0.037719  2.338925  0.055  -0.59867  0.029546  2.325382  0.045  -0.315776  -0.532194  0.046588  2.346783  0.065
O  O85  1  0.88986595  0.10316580  0.65140097  1  -0.655776  -0.002486  2.065342  -0.002  -0.621727  -0.001999  2.328008  -0.002  -0.649891  -0.001084  2.311536  -0.001  -0.312633  -0.600983  -0.001321  2.338839  -0.001
O  O86  1  0.11029753  0.89685850  0.34867634  1  -0.655328  0.000886  2.065205  0.004  -0.621299  0.000355  2.327936  0.002  -0.649471  -0.001017  2.311495  0.0  -0.312451  -0.600538  0.000523  2.338753  0.002
O  O87  1  0.73585701  0.89771791  0.46307202  1  -0.570247  0.07614  2.138614  0.102  -0.555176  0.044581  2.426065  0.065  -0.5973  0.03212  2.419252  0.05  -0.312438  -0.525137  0.053747  2.430272  0.075
O  O88  1  0.26398576  0.10244437  0.53693503  1  -0.571973  0.076188  2.139378  0.101  -0.556004  0.045048  2.426286  0.065  -0.597985  0.033362  2.41934  0.051  -0.312726  -0.526092  0.053235  2.430639  0.074
O  O89  1  0.56608412  0.10665903  0.68618405  1  -0.567542  -0.084161  2.132767  -0.107  -0.537164  -0.050209  2.420418  -0.071  -0.577127  -0.038352  2.410863  -0.057  -0.300513  -0.507104  -0.060683  2.425779  -0.084
O  O90  1  0.43403870  0.89336659  0.31380837  1  -0.567055  0.082073  2.133041  0.11  -0.536611  0.04878  2.420697  0.072  -0.576574  0.036604  2.411251  0.057  -0.299986  -0.506602  0.060115  2.425966  0.085
O  O91  1  0.85609817  0.89363069  0.95939876  1  -0.527363  -1.7e-05  2.09633  0.0  -0.481395  -6.7e-05  2.320829  0.0  -0.500748  -4.1e-05  2.306163  0.0  -0.32324  -0.467711  1.8e-05  2.330335  0.0
O  O92  1  0.14383428  0.10629433  0.04058592  1  -0.527525  1.8e-05  2.095981  0.0  -0.48176  7.9e-05  2.320486  0.0  -0.501127  3.4e-05  2.305858  0.0  -0.323245  -0.468034  1e-05  2.329922  0.0
O  O93  1  0.32278889  0.92011325  0.85596516  1  -0.522613  0.000927  1.929764  0.001  -0.476894  0.000189  2.150469  0.0  -0.497391  -1.4e-05  2.146125  0.0  -0.277895  -0.462686  0.000586  2.153431  0.001
O  O94  1  0.67724843  0.07985334  0.14404863  1  -0.522636  0.001113  1.929314  0.001  -0.477001  0.000338  2.149915  0.0  -0.497511  0.00045  2.145565  0.001  -0.277901  -0.462757  0.000278  2.152872  0.0
O  O95  1  0.92906083  0.50314378  0.74592642  1  -0.637853  -0.002228  1.96655  -0.003  -0.590857  -0.001333  2.201759  -0.002  -0.617558  -0.000211  2.189849  -0.001  -0.307953  -0.571726  -0.000896  2.209607  -0.002
O  O96  1  0.07107435  0.49688434  0.25408697  1  -0.637962  0.002008  1.965407  0.003  -0.591037  0.001197  2.200704  0.002  -0.617715  9.5e-05  2.188748  0.001  -0.308101  -0.571925  0.000844  2.208583  0.002
O  O97  1  0.81162283  0.70012241  0.26215806  1  -0.849518  0.00061  1.790896  0.002  -0.817443  0.000873  1.948154  0.002  -0.835305  0.000149  1.913401  0.001  -0.60916  -0.804127  0.001327  1.973208  0.002
O  O98  1  0.18841873  0.29989056  0.73792133  1  -0.849947  -0.000782  1.79079  -0.002  -0.817743  -0.001014  1.948141  -0.002  -0.835621  -0.000253  1.913393  -0.001  -0.609241  -0.804425  -0.001474  1.973178  -0.003
