# generated using pymatgen
data_AlH7C12O7
_symmetry_space_group_name_H-M   'P 1'
_cell_length_a   6.62007280
_cell_length_b   14.89377190
_cell_length_c   15.15455581
_cell_angle_alpha   89.99585192
_cell_angle_beta   91.25819872
_cell_angle_gamma   89.54171043
_symmetry_Int_Tables_number   1
_chemical_formula_structural   AlH7C12O7
_chemical_formula_sum   'Al4 H28 C48 O28'
_cell_volume   1493.79859063
_cell_formula_units_Z   4
loop_
 _symmetry_equiv_pos_site_id
 _symmetry_equiv_pos_as_xyz
  1  'x, y, z'
loop_
 _atom_site_type_symbol
 _atom_site_label
 _atom_site_symmetry_multiplicity
 _atom_site_fract_x
 _atom_site_fract_y
 _atom_site_fract_z
 _atom_site_occupancy
 _atom_site_pbe_bader_charge
 _atom_site_pbe_bader_spin_density
 _atom_site_pbe_cm5_charge
 _atom_site_pbe_ddec_charge
 _atom_site_pbe_ddec_spin_density
 _atom_site_pbe_ddec_sum_bond_order
 _atom_site_pbe_magmom
Al  Al0  1  0.02863095  0.00562219  0.50126657  1  2.503587  0  0.403465  1.642839  0  2.579045  0
Al  Al1  1  0.53076500  0.00840475  0.50631601  1  2.502144  0  0.398998  1.645977  0  2.573985  0
Al  Al2  1  0.97327654  0.50097776  0.00537867  1  2.504138  0  0.398097  1.638492  0  2.594161  0
Al  Al3  1  0.47238400  0.50917303  0.00675504  1  2.501512  0  0.404569  1.647366  0  2.562001  0
H  H4  1  0.78696743  0.12208310  0.52569299  1  0.62376  0  0.346239  0.417257  0  0.884414  0
H  H5  1  0.29006451  0.89233901  0.48315646  1  0.624831  0  0.346332  0.417733  0  0.883988  0
H  H6  1  0.72025296  0.38961980  0.03016552  1  0.601813  0  0.353652  0.427175  0  0.861263  0
H  H7  1  0.20462236  0.62053831  0.98140858  1  0.631581  0  0.3591  0.435861  0  0.844756  0
H  H8  1  0.86606857  0.43693418  0.78450620  1  0.096614  0  0.10255  0.107072  0  1.048412  0
H  H9  1  0.62426631  0.43477261  0.66017344  1  0.040017  0  0.098313  0.093505  0  0.999662  0
H  H10  1  0.98480307  0.23567475  0.53085483  1  0.055863  0  0.102982  0.103108  0  1.026112  0
H  H11  1  0.68706427  0.33537945  0.52967638  1  0.054596  0  0.102466  0.102928  0  0.991002  0
H  H12  1  0.41669135  0.55689843  0.22585065  1  0.073838  0  0.101669  0.104821  0  1.037199  0
H  H13  1  0.16376562  0.56010421  0.34206132  1  0.046096  0  0.102859  0.100946  0  0.986938  0
H  H14  1  0.47547090  0.77836014  0.46861717  1  0.04808  0  0.09809  0.094616  0  1.05311  0
H  H15  1  0.19514088  0.67116977  0.46521527  1  0.051901  0  0.096306  0.091899  0  1.027684  0
H  H16  1  0.03204134  0.55786854  0.80291073  1  0.075954  0  0.099781  0.094894  0  1.084006  0
H  H17  1  0.32061822  0.55731330  0.70473919  1  0.067016  0  0.096549  0.092602  0  1.00544  0
H  H18  1  0.12549146  0.81184429  0.59888792  1  0.09716  0  0.101057  0.106111  0  1.067517  0
H  H19  1  0.37179772  0.68764823  0.60342688  1  0.053465  0  0.097277  0.091266  0  1.017064  0
H  H20  1  0.95659961  0.27247862  0.03855928  1  0.068741  0  0.100449  0.102601  0  1.037431  0
H  H21  1  0.70575680  0.15253594  0.03375980  1  0.056329  0  0.102647  0.101717  0  0.991552  0
H  H22  1  0.96881120  0.03725592  0.26965753  1  0.07557  0  0.100309  0.103174  0  1.038712  0
H  H23  1  0.70867088  0.03445345  0.15167625  1  0.075659  0  0.103855  0.101653  0  0.987614  0
H  H24  1  0.59103009  0.13731945  0.67499063  1  0.637723  0  0.320442  0.354958  0  0.947334  0
H  H25  1  0.53935845  0.34964246  0.88644088  1  0.630455  0  0.315781  0.353919  0  0.971542  0
H  H26  1  0.08063208  0.88117426  0.33289689  1  0.641878  0  0.318036  0.352216  0  0.966889  0
H  H27  1  0.06533711  0.65594513  0.13435236  1  0.64452  0  0.319662  0.35842  0  0.951634  0
H  H28  1  0.46891112  0.91780116  0.69029168  1  0.634262  0  0.319537  0.362623  0  0.953111  0
H  H29  1  0.40757770  0.68819776  0.88105510  1  0.644826  0  0.315172  0.344082  0  0.966079  0
H  H30  1  0.60161844  0.15626806  0.36757457  1  0.652208  0  0.318686  0.360567  0  0.950111  0
H  H31  1  0.55375335  0.39057916  0.17740550  1  0.633502  0  0.316413  0.349839  0  0.969492  0
C  C32  1  0.27421879  0.09835549  0.36847100  1  1.499815  0  0.26431  0.65764  0  4.066733  0
C  C33  1  0.27326330  0.13517867  0.60446071  1  1.509129  0  0.271885  0.672624  0  4.049036  0
C  C34  1  0.78284660  0.90304939  0.62975558  1  1.50633  0  0.26431  0.655136  0  4.056551  0
C  C35  1  0.77525838  0.87764714  0.40297068  1  1.484542  0  0.266644  0.663844  0  4.047697  0
C  C36  1  0.23868928  0.38021969  0.11061042  1  1.47206  0  0.266292  0.662828  0  4.049619  0
C  C37  1  0.21329353  0.40356242  0.87681127  1  1.498081  0  0.263235  0.653748  0  4.055313  0
C  C38  1  0.72042390  0.61860241  0.88874445  1  1.489788  0  0.271252  0.672199  0  4.038501  0
C  C39  1  0.73414676  0.60356724  0.13490339  1  1.50756  0  0.269112  0.666254  0  4.058117  0
C  C40  1  0.22785464  0.34401289  0.79944421  1  0.014285  0  -0.031831  -0.240907  0  3.933369  0
C  C41  1  0.06943088  0.33725996  0.73184111  1  -0.030226  0  -0.002124  0.075152  0  3.944761  0
C  C42  1  0.40523955  0.29199309  0.79258494  1  0.623413  0  0.100488  0.225716  0  4.029862  0
C  C43  1  0.89397386  0.39251118  0.72949159  1  0.012291  0  -0.093739  -0.123617  0  3.972363  0
C  C44  1  0.75695389  0.39088252  0.65934311  1  -0.051965  0  -0.097268  -0.083162  0  4.046525  0
C  C45  1  0.26588395  0.21430617  0.66253017  1  -0.01153  0  -0.031488  -0.237879  0  3.974442  0
C  C46  1  0.42275239  0.22544940  0.72442979  1  0.573926  0  0.098663  0.221128  0  4.044843  0
C  C47  1  0.09453333  0.27481329  0.66092635  1  0.039842  0  -0.005631  0.074458  0  3.980624  0
C  C48  1  0.95574934  0.27723397  0.58833078  1  -0.056851  0  -0.102125  -0.152913  0  4.010556  0
C  C49  1  0.78998571  0.33428728  0.58691356  1  -0.019679  0  -0.097887  -0.086829  0  4.057387  0
C  C50  1  0.74594837  0.66397982  0.21209490  1  0.017968  0  -0.027401  -0.22654  0  3.95472  0
C  C51  1  0.58919675  0.66923794  0.27666402  1  0.045662  0  -0.003502  0.072786  0  3.961726  0
C  C52  1  0.91674529  0.71817918  0.21952696  1  0.566062  0  0.095844  0.215663  0  4.047  0
C  C53  1  0.42851234  0.60693582  0.27780595  1  0.015586  0  -0.092504  -0.121642  0  3.967945  0
C  C54  1  0.28668399  0.60844330  0.34333011  1  -0.0609  0  -0.096669  -0.082628  0  4.04644  0
C  C55  1  0.76813281  0.79890160  0.34475215  1  -0.003002  0  -0.035551  -0.250162  0  3.959875  0
C  C56  1  0.92553573  0.78782742  0.28491339  1  0.608702  0  0.101729  0.231643  0  4.028733  0
C  C57  1  0.60296161  0.73552996  0.34513302  1  -0.010813  0  -0.004124  0.079255  0  3.96084  0
C  C58  1  0.45902348  0.73273454  0.41299958  1  -0.005677  0  -0.104777  -0.153346  0  4.006272  0
C  C59  1  0.30322577  0.67134229  0.41199832  1  -0.053959  0  -0.099618  -0.086473  0  4.056929  0
C  C60  1  0.73453102  0.68293371  0.81511446  1  0.045514  0  -0.032431  -0.239394  0  3.9672  0
C  C61  1  0.90783556  0.68488525  0.75859262  1  -0.017689  0  -0.006674  0.07072  0  3.968862  0
C  C62  1  0.58101083  0.74689674  0.80492153  1  0.569371  0  0.09739  0.221656  0  4.043339  0
C  C63  1  0.05138330  0.61392983  0.75859737  1  -0.01228  0  -0.103581  -0.145768  0  4.0045  0
C  C64  1  0.21394361  0.61353049  0.70311572  1  -0.042753  0  -0.099513  -0.082322  0  4.058691  0
C  C65  1  0.77430140  0.82674877  0.69171658  1  0.004417  0  -0.031748  -0.241362  0  3.929504  0
C  C66  1  0.60112211  0.81969181  0.74355395  1  0.572456  0  0.102044  0.228554  0  4.029769  0
C  C67  1  0.93001925  0.75749663  0.69739557  1  0.00052  0  -0.003464  0.077749  0  3.947099  0
C  C68  1  0.10181026  0.75586937  0.64296221  1  -0.025251  0  -0.100083  -0.136663  0  3.970982  0
C  C69  1  0.24080023  0.68600764  0.64576378  1  -0.058238  0  -0.099682  -0.088847  0  4.06203  0
C  C70  1  0.25632002  0.29813057  0.16367330  1  0.012238  0  -0.03581  -0.250019  0  3.966533  0
C  C71  1  0.10384924  0.22881300  0.16043515  1  0.014918  0  -0.005294  0.076322  0  3.966532  0
C  C72  1  0.42615160  0.28823251  0.22017282  1  0.58247  0  0.101114  0.228935  0  4.028534  0
C  C73  1  0.95555509  0.22366407  0.09178239  1  -0.0367  0  -0.101819  -0.145433  0  4.001163  0
C  C74  1  0.81516604  0.15539436  0.08853156  1  0.002817  0  -0.096098  -0.083855  0  4.055024  0
C  C75  1  0.27521864  0.15700223  0.28998406  1  0.008633  0  -0.028565  -0.229694  0  3.954041  0
C  C76  1  0.43856839  0.21526274  0.28217121  1  0.588064  0  0.096884  0.219047  0  4.038409  0
C  C77  1  0.11075728  0.15918520  0.22563857  1  0.018473  0  -0.004095  0.072753  0  3.966394  0
C  C78  1  0.96404480  0.09054828  0.22079285  1  -0.079656  0  -0.093526  -0.122529  0  3.972719  0
C  C79  1  0.81805792  0.08882270  0.15419356  1  -0.028654  0  -0.095903  -0.085174  0  4.048549  0
O  O80  1  0.10699947  0.07704678  0.40181472  1  -1.252571  0  -0.231218  -0.579758  0  2.371593  0
O  O81  1  0.44908412  0.10464635  0.58278449  1  -1.261967  0  -0.240777  -0.618586  0  2.364342  0
O  O82  1  0.61355051  0.94552876  0.61264300  1  -1.263881  0  -0.249933  -0.6257  0  2.396623  0
O  O83  1  0.94903325  0.91609511  0.41621930  1  -1.260581  0  -0.2414  -0.618599  0  2.390143  0
O  O84  1  0.94643586  0.92550288  0.59387646  1  -1.264264  0  -0.227135  -0.569878  0  2.373782  0
O  O85  1  0.61531558  0.90819433  0.43742403  1  -1.271568  0  -0.230715  -0.588833  0  2.389453  0
O  O86  1  0.44847493  0.07567444  0.40280217  1  -1.26155  0  -0.242774  -0.615438  0  2.375393  0
O  O87  1  0.10940138  0.09764151  0.58071407  1  -1.271638  0  -0.22721  -0.583962  0  2.375061  0
O  O88  1  0.77882036  0.06368426  0.49716097  1  -1.431887  0  -0.449015  -0.985368  0  2.202418  0
O  O89  1  0.28216005  0.95156854  0.50974611  1  -1.435738  0  -0.449685  -0.989756  0  2.207474  0
O  O90  1  0.06866402  0.40620042  0.07868476  1  -1.263313  0  -0.228558  -0.585597  0  2.381722  0
O  O91  1  0.38139599  0.42366587  0.91811650  1  -1.270177  0  -0.246959  -0.624429  0  2.405166  0
O  O92  1  0.54358860  0.59347702  0.91422259  1  -1.259745  0  -0.23966  -0.6131  0  2.324298  0
O  O93  1  0.90349266  0.57168466  0.10719297  1  -1.259446  0  -0.24048  -0.612972  0  2.376175  0
O  O94  1  0.88261498  0.59287634  0.92753427  1  -1.270242  0  -0.230585  -0.59201  0  2.40522  0
O  O95  1  0.56438107  0.58869831  0.09709320  1  -1.258931  0  -0.230145  -0.583099  0  2.360408  0
O  O96  1  0.40214564  0.42643555  0.09890124  1  -1.265984  0  -0.246209  -0.626314  0  2.397573  0
O  O97  1  0.04309717  0.43161681  0.90313717  1  -1.260906  0  -0.229301  -0.574256  0  2.3848  0
O  O98  1  0.71990595  0.44846552  0.00252758  1  -1.407787  0  -0.448397  -0.986993  0  2.191614  0
O  O99  1  0.21934150  0.56191408  0.00875104  1  -1.433487  0  -0.446645  -0.984214  0  2.18847  0
O  O100  1  0.59227998  0.17539211  0.72866316  1  -1.119729  0  -0.330334  -0.388793  0  2.304293  0
O  O101  1  0.56526271  0.29612745  0.84790460  1  -1.123399  0  -0.330008  -0.392497  0  2.320049  0
O  O102  1  0.08898227  0.84002853  0.28111803  1  -1.127337  0  -0.329825  -0.391994  0  2.312173  0
O  O103  1  0.07705429  0.71371351  0.16691746  1  -1.136697  0  -0.33422  -0.397124  0  2.311605  0
O  O104  1  0.44487244  0.87706643  0.74175248  1  -1.10818  0  -0.327545  -0.387003  0  2.298384  0
O  O105  1  0.41027035  0.74746720  0.85130254  1  -1.138457  0  -0.33293  -0.391165  0  2.313636  0
O  O106  1  0.60740935  0.21308425  0.33280753  1  -1.138477  0  -0.333146  -0.398916  0  2.305733  0
O  O107  1  0.58181730  0.34521483  0.22478199  1  -1.130811  0  -0.333202  -0.394533  0  2.302805  0
