# generated using pymatgen
data_RbP2H11(C2O)6
_symmetry_space_group_name_H-M   'P 1'
_cell_length_a   5.82581032
_cell_length_b   7.69306654
_cell_length_c   15.21819553
_cell_angle_alpha   101.44855083
_cell_angle_beta   92.88992620
_cell_angle_gamma   94.06195907
_symmetry_Int_Tables_number   1
_chemical_formula_structural   RbP2H11(C2O)6
_chemical_formula_sum   'Rb2 P4 H22 C24 O12'
_cell_volume   665.35277850
_cell_formula_units_Z   2
loop_
 _symmetry_equiv_pos_site_id
 _symmetry_equiv_pos_as_xyz
  1  'x, y, z'
loop_
 _atom_site_type_symbol
 _atom_site_label
 _atom_site_symmetry_multiplicity
 _atom_site_fract_x
 _atom_site_fract_y
 _atom_site_fract_z
 _atom_site_occupancy
 _atom_site_hle17_bader_spin_density
 _atom_site_hle17_ddec_charge
 _atom_site_hle17_ddec_spin_density
 _atom_site_hle17_ddec_sum_bond_order
 _atom_site_hle17_magmom
 _atom_site_hse06_10hf_bader_spin_density
 _atom_site_hse06_10hf_ddec_charge
 _atom_site_hse06_10hf_ddec_spin_density
 _atom_site_hse06_10hf_ddec_sum_bond_order
 _atom_site_hse06_10hf_magmom
 _atom_site_hse06_bader_spin_density
 _atom_site_hse06_ddec_charge
 _atom_site_hse06_ddec_spin_density
 _atom_site_hse06_ddec_sum_bond_order
 _atom_site_hse06_magmom
 _atom_site_pbe_bader_spin_density
 _atom_site_pbe_cm5_charge
 _atom_site_pbe_ddec_charge
 _atom_site_pbe_ddec_spin_density
 _atom_site_pbe_ddec_sum_bond_order
 _atom_site_pbe_magmom
Rb  Rb0  1  0.78302938  0.77929571  0.51085700  1  0  0.96963  0  0.486042  0  0  0.934785  0  0.680494  0  0  0.947153  0  0.659526  0  0  0.872998  0.925237  0  0.695846  0
Rb  Rb1  1  0.21698150  0.22070542  0.48914457  1  0  0.969616  0  0.486063  0  0  0.934787  0  0.680502  0  0  0.94715  0  0.659546  0  0  0.873004  0.925226  0  0.695861  0
P  P2  1  0.25499415  0.69030829  0.33939331  1  0  1.496712  0  4.761468  0  0  1.34085  0  5.2574  0  0  1.391163  0  5.215526  0  0  0.365383  1.305804  0  5.285775  0
P  P3  1  0.74500644  0.30969414  0.66060363  1  0  1.496839  0  4.761472  0  0  1.341003  0  5.257394  0  0  1.39132  0  5.215515  0  0  0.365347  1.305956  0  5.285778  0
P  P4  1  0.29670745  0.78520329  0.66951749  1  0  1.474666  0  4.786887  0  0  1.320211  0  5.279358  0  0  1.370423  0  5.238604  0  0  0.349064  1.285249  0  5.306889  0
P  P5  1  0.70329790  0.21479381  0.33048424  1  0  1.474574  0  4.786714  0  0  1.320158  0  5.279235  0  0  1.37037  0  5.238482  0  0  0.348984  1.285199  0  5.306763  0
H  H6  1  0.66347452  0.77944111  0.25026186  1  0  0.097774  0  0.967913  0  0  0.107703  0  1.03117  0  0  0.110507  0  1.029828  0  0  0.106684  0.105666  0  1.032192  0
H  H7  1  0.33651589  0.22056260  0.74973571  1  0  0.097772  0  0.967969  0  0  0.107639  0  1.031309  0  0  0.110445  0  1.029967  0  0  0.106674  0.105604  0  1.032327  0
H  H8  1  0.94535462  0.50480913  0.35680174  1  0  0.445493  0  0.867898  0  0  0.40819  0  0.940876  0  0  0.420906  0  0.92305  0  0  0.30279  0.399318  0  0.953273  0
H  H9  1  0.05465240  0.49518799  0.64319805  1  0  0.445466  0  0.867925  0  0  0.40817  0  0.940894  0  0  0.420886  0  0.923068  0  0  0.302785  0.399301  0  0.953286  0
H  H10  1  0.77644067  0.69632430  0.09759525  1  0  0.0841  0  0.995349  0  0  0.094317  0  1.060269  0  0  0.096379  0  1.060962  0  0  0.09678  0.092554  0  1.060484  0
H  H11  1  0.22354671  0.30368339  0.90240268  1  0  0.084147  0  0.995203  0  0  0.094386  0  1.060109  0  0  0.096449  0  1.060799  0  0  0.096818  0.092635  0  1.060312  0
H  H12  1  0.57149167  0.55631956  0.63943033  1  0  0.443643  0  0.872895  0  0  0.405902  0  0.946998  0  0  0.418451  0  0.929412  0  0  0.301856  0.397167  0  0.959204  0
H  H13  1  0.42851776  0.44368422  0.36057148  1  0  0.44366  0  0.872859  0  0  0.405919  0  0.946961  0  0  0.418465  0  0.92938  0  0  0.301889  0.397185  0  0.959165  0
H  H14  1  0.12776456  0.37786616  0.02267343  1  0  0.087305  0  0.986421  0  0  0.098242  0  1.049966  0  0  0.100631  0  1.049884  0  0  0.098263  0.096614  0  1.050005  0
H  H15  1  0.87223482  0.62214158  0.97732338  1  0  0.087382  0  0.986264  0  0  0.098304  0  1.049829  0  0  0.100698  0  1.049749  0  0  0.098252  0.096671  0  1.049878  0
H  H16  1  0.45858996  0.02011824  0.62523718  1  0  0.426883  0  0.891452  0  0  0.392152  0  0.962677  0  0  0.403987  0  0.945795  0  0  0.303248  0.383864  0  0.974454  0
H  H17  1  0.54140827  0.97987617  0.37476548  1  0  0.426888  0  0.891441  0  0  0.392147  0  0.962682  0  0  0.403984  0  0.945799  0  0  0.303246  0.383859  0  0.974463  0
H  H18  1  0.01216224  0.46718656  0.17572403  1  0  0.094004  0  0.964655  0  0  0.10346  0  1.028013  0  0  0.105502  0  1.028648  0  0  0.102389  0.101724  0  1.028181  0
H  H19  1  0.98782958  0.53281450  0.82427132  1  0  0.093913  0  0.964708  0  0  0.103393  0  1.028051  0  0  0.105434  0  1.028688  0  0  0.102339  0.101657  0  1.028221  0
H  H20  1  0.90583886  0.98126762  0.73438995  1  0  0.101837  0  0.960103  0  0  0.110217  0  1.025194  0  0  0.113843  0  1.022725  0  0  0.10798  0.107585  0  1.02701  0
H  H21  1  0.09416382  0.01873610  0.26561701  1  0  0.101834  0  0.960213  0  0  0.110268  0  1.025216  0  0  0.113884  0  1.022779  0  0  0.107968  0.107633  0  1.027036  0
H  H22  1  0.76936981  0.07711375  0.88281615  1  0  0.089467  0  0.978915  0  0  0.100094  0  1.042086  0  0  0.10225  0  1.042695  0  0  0.098438  0.098345  0  1.042194  0
H  H23  1  0.23064739  0.92289803  0.11719054  1  0  0.089493  0  0.978871  0  0  0.100145  0  1.04201  0  0  0.102287  0  1.042654  0  0  0.098466  0.098397  0  1.042113  0
H  H24  1  0.34330666  0.85217969  0.99901160  1  0  0.085928  0  0.987526  0  0  0.095669  0  1.052573  0  0  0.098036  0  1.052817  0  0  0.09633  0.094023  0  1.05248  0
H  H25  1  0.65670223  0.14781877  0.00098901  1  0  0.085987  0  0.987546  0  0  0.095717  0  1.052593  0  0  0.09808  0  1.052846  0  0  0.096315  0.094071  0  1.052501  0
H  H26  1  0.48225372  0.75981098  0.84901809  1  0  0.096414  0  0.966192  0  0  0.104906  0  1.031308  0  0  0.107026  0  1.031896  0  0  0.100813  0.103128  0  1.031515  0
H  H27  1  0.51773126  0.24017276  0.15097670  1  0  0.096434  0  0.966168  0  0  0.104959  0  1.031243  0  0  0.107078  0  1.031828  0  0  0.100824  0.10318  0  1.031451  0
C  C28  1  0.32805354  0.63076143  0.22447742  1  0  -0.267965  0  3.788301  0  0  -0.223698  0  4.024141  0  0  -0.234536  0  4.046305  0  0  -0.027093  -0.216524  0  4.009125  0
C  C29  1  0.67193482  0.36923963  0.77551656  1  0  -0.268027  0  3.788209  0  0  -0.223785  0  4.024095  0  0  -0.234625  0  4.046261  0  0  -0.027089  -0.216614  0  4.009086  0
C  C30  1  0.54348952  0.69306290  0.20045606  1  0  -0.028129  0  3.746846  0  0  -0.0504  0  3.989026  0  0  -0.049232  0  4.009668  0  0  -0.078197  -0.050875  0  3.974926  0
C  C31  1  0.45649358  0.30693545  0.79954413  1  0  -0.028028  0  3.746856  0  0  -0.050248  0  3.989064  0  0  -0.049073  0  4.009692  0  0  -0.078208  -0.050724  0  3.97497  0
C  C32  1  0.60851508  0.64335487  0.11302117  1  0  -0.108804  0  3.715351  0  0  -0.127352  0  3.962852  0  0  -0.131329  0  3.984094  0  0  -0.088136  -0.124673  0  3.948917  0
C  C33  1  0.39147564  0.35665149  0.88697799  1  0  -0.108982  0  3.715368  0  0  -0.127539  0  3.962914  0  0  -0.131516  0  3.984155  0  0  -0.088193  -0.124871  0  3.948978  0
C  C34  1  0.46342436  0.52792481  0.04627833  1  0  0.051211  0  3.767685  0  0  0.067351  0  3.99442  0  0  0.068942  0  4.016404  0  0  -0.004167  0.066365  0  3.979149  0
C  C35  1  0.53657305  0.47208027  0.95371883  1  0  0.051428  0  3.767547  0  0  0.067472  0  3.994366  0  0  0.069061  0  4.016353  0  0  -0.004069  0.066484  0  3.979101  0
C  C36  1  0.24728496  0.46715005  0.07128986  1  0  -0.116268  0  3.714761  0  0  -0.135027  0  3.962072  0  0  -0.138876  0  3.982452  0  0  -0.089018  -0.132308  0  3.948075  0
C  C37  1  0.75272038  0.53284841  0.92870675  1  0  -0.116407  0  3.714745  0  0  -0.135145  0  3.962102  0  0  -0.139004  0  3.982491  0  0  -0.08908  -0.132425  0  3.948106  0
C  C38  1  0.18016162  0.51754873  0.15865319  1  0  -0.025991  0  3.752773  0  0  -0.048159  0  3.996609  0  0  -0.04693  0  4.017685  0  0  -0.079421  -0.048771  0  3.982654  0
C  C39  1  0.81982542  0.48245630  0.84134184  1  0  -0.025869  0  3.752797  0  0  -0.048039  0  3.996632  0  0  -0.046812  0  4.017713  0  0  -0.07929  -0.048652  0  3.982683  0
C  C40  1  0.20526867  0.86347283  0.78076734  1  0  -0.266701  0  3.787879  0  0  -0.223173  0  4.025673  0  0  -0.233846  0  4.047428  0  0  -0.027493  -0.216086  0  4.010972  0
C  C41  1  0.79471392  0.13652154  0.21922850  1  0  -0.266313  0  3.788094  0  0  -0.222927  0  4.026057  0  0  -0.233602  0  4.047826  0  0  -0.027477  -0.215842  0  4.01135  0
C  C42  1  0.00391962  0.95340614  0.79221553  1  0  -0.015997  0  3.726404  0  0  -0.038683  0  3.970815  0  0  -0.037294  0  3.990155  0  0  -0.073633  -0.039311  0  3.957594  0
C  C43  1  0.99607865  0.04658691  0.20779356  1  0  -0.016069  0  3.72592  0  0  -0.038741  0  3.970397  0  0  -0.037348  0  3.989712  0  0  -0.07347  -0.039381  0  3.957206  0
C  C44  1  0.92575259  0.00719023  0.87741243  1  0  -0.111962  0  3.706689  0  0  -0.128286  0  3.953539  0  0  -0.132155  0  3.97421  0  0  -0.087529  -0.125739  0  3.940083  0
C  C45  1  0.07426000  0.99281226  0.12258339  1  0  -0.112  0  3.706727  0  0  -0.128374  0  3.953596  0  0  -0.13224  0  3.974253  0  0  -0.08762  -0.125827  0  3.940135  0
C  C46  1  0.04313387  0.97233934  0.95464274  1  0  0.047259  0  3.763556  0  0  0.061332  0  3.995285  0  0  0.062932  0  4.01739  0  0  -0.006005  0.060357  0  3.980015  0
C  C47  1  0.95687931  0.02766575  0.04536650  1  0  0.047373  0  3.763792  0  0  0.061472  0  3.995476  0  0  0.06307  0  4.017579  0  0  -0.005995  0.060497  0  3.980206  0
C  C48  1  0.24520765  0.88239242  0.94193358  1  0  -0.115187  0  3.715541  0  0  -0.132434  0  3.963727  0  0  -0.136586  0  3.984602  0  0  -0.090582  -0.129505  0  3.94942  0
C  C49  1  0.75479547  0.11760071  0.05806311  1  0  -0.115428  0  3.715358  0  0  -0.132662  0  3.963533  0  0  -0.136813  0  3.984404  0  0  -0.090633  -0.129731  0  3.949224  0
C  C50  1  0.32545310  0.82913771  0.85678463  1  0  -0.038559  0  3.766603  0  0  -0.060487  0  4.010969  0  0  -0.059421  0  4.03226  0  0  -0.08219  -0.061061  0  3.996976  0
C  C51  1  0.67454372  0.17085934  0.14322024  1  0  -0.038731  0  3.767021  0  0  -0.060645  0  4.011427  0  0  -0.059574  0  4.032713  0  0  -0.082207  -0.061216  0  3.997431  0
O  O52  1  0.40060128  0.58014766  0.39464508  1  0  -0.823087  0  2.022893  0  0  -0.752249  0  2.262759  0  0  -0.774414  0  2.237411  0  0  -0.44003  -0.736565  0  2.280011  0
O  O53  1  0.59941002  0.41985881  0.60535244  1  0  -0.823114  0  2.022916  0  0  -0.752274  0  2.262765  0  0  -0.77444  0  2.237416  0  0  -0.439969  -0.736592  0  2.280018  0
O  O54  1  0.31089778  0.88743635  0.37686298  1  0  -0.876131  0  1.972304  0  0  -0.807883  0  2.228744  0  0  -0.832663  0  2.208138  0  0  -0.428868  -0.790205  0  2.242437  0
O  O55  1  0.68909262  0.11256736  0.62313393  1  0  -0.876196  0  1.972292  0  0  -0.807943  0  2.22872  0  0  -0.832726  0  2.20811  0  0  -0.428832  -0.790271  0  2.242415  0
O  O56  1  0.99253775  0.63768669  0.34249212  1  0  -0.80016  0  2.027058  0  0  -0.729523  0  2.268041  0  0  -0.752199  0  2.243881  0  0  -0.42514  -0.713476  0  2.284453  0
O  O57  1  0.00746888  0.36230644  0.65750791  1  0  -0.80015  0  2.026962  0  0  -0.729547  0  2.267949  0  0  -0.752226  0  2.243796  0  0  -0.42516  -0.713477  0  2.284314  0
O  O58  1  0.53904693  0.72384265  0.67619159  1  0  -0.834657  0  1.978692  0  0  -0.759701  0  2.221737  0  0  -0.784861  0  2.203126  0  0  -0.404721  -0.741886  0  2.23423  0
O  O59  1  0.46095167  0.27615441  0.32381529  1  0  -0.834616  0  1.978559  0  0  -0.759678  0  2.221624  0  0  -0.784836  0  2.203013  0  0  -0.404669  -0.741862  0  2.234115  0
O  O60  1  0.11216480  0.64651115  0.61709425  1  0  -0.858464  0  1.984235  0  0  -0.784089  0  2.230196  0  0  -0.808899  0  2.208909  0  0  -0.445595  -0.766431  0  2.24447  0
O  O61  1  0.88784167  0.35348066  0.38290432  1  0  -0.858504  0  1.984292  0  0  -0.784131  0  2.230258  0  0  -0.808939  0  2.208971  0  0  -0.445613  -0.766467  0  2.244534  0
O  O62  1  0.29785738  0.94780892  0.61919088  1  0  -0.804301  0  2.027061  0  0  -0.744231  0  2.268883  0  0  -0.764872  0  2.242731  0  0  -0.425284  -0.729578  0  2.286648  0
O  O63  1  0.70214597  0.05218552  0.38080989  1  0  -0.804337  0  2.026919  0  0  -0.744269  0  2.26876  0  0  -0.764907  0  2.242609  0  0  -0.425254  -0.729613  0  2.286524  0
