# generated using pymatgen
data_ZnH8C13N5
_symmetry_space_group_name_H-M   'P 1'
_cell_length_a   20.30310254
_cell_length_b   20.30235671
_cell_length_c   20.30362296
_cell_angle_alpha   109.46941989
_cell_angle_beta   109.47354632
_cell_angle_gamma   109.46960350
_symmetry_Int_Tables_number   1
_chemical_formula_structural   ZnH8C13N5
_chemical_formula_sum   'Zn12 H96 C156 N60'
_cell_volume   6442.67708493
_cell_formula_units_Z   12
loop_
 _symmetry_equiv_pos_site_id
 _symmetry_equiv_pos_as_xyz
  1  'x, y, z'
loop_
 _atom_site_type_symbol
 _atom_site_label
 _atom_site_symmetry_multiplicity
 _atom_site_fract_x
 _atom_site_fract_y
 _atom_site_fract_z
 _atom_site_occupancy
 _atom_site_pbe_bader_charge
 _atom_site_pbe_bader_spin_density
 _atom_site_pbe_cm5_charge
 _atom_site_pbe_ddec_charge
 _atom_site_pbe_ddec_spin_density
 _atom_site_pbe_ddec_sum_bond_order
 _atom_site_pbe_magmom
Zn  Zn0  1  0.39344380  0.39086711  0.78426812  1  1.169531  0  0.669471  0.58205  0  2.700911  0
Zn  Zn1  1  0.60916151  0.39327226  0.00266035  1  1.166418  0  0.669247  0.581631  0  2.702841  0
Zn  Zn2  1  0.99744326  0.60668632  0.39074912  1  1.166953  0  0.669846  0.582224  0  2.702546  0
Zn  Zn3  1  0.78426659  0.39099836  0.39359706  1  1.170106  0  0.669187  0.58208  0  2.700246  0
Zn  Zn4  1  0.60925798  0.00264965  0.39342615  1  1.167141  0  0.669538  0.582102  0  2.702073  0
Zn  Zn5  1  0.60672318  0.21587683  0.60938070  1  1.170006  0  0.669069  0.581784  0  2.700803  0
Zn  Zn6  1  0.60660668  0.60922667  0.21584142  1  1.170201  0  0.669256  0.582215  0  2.700106  0
Zn  Zn7  1  0.39087088  0.60680525  0.99743775  1  1.166748  0  0.669375  0.581964  0  2.702179  0
Zn  Zn8  1  0.00264834  0.39334423  0.60928354  1  1.167092  0  0.669536  0.581981  0  2.702509  0
Zn  Zn9  1  0.21579415  0.60903270  0.60641572  1  1.170641  0  0.669324  0.582121  0  2.700619  0
Zn  Zn10  1  0.39073837  0.99741836  0.60664657  1  1.166835  0  0.66964  0.582021  0  2.702363  0
Zn  Zn11  1  0.39325891  0.78422518  0.39071808  1  1.169362  0  0.669446  0.582078  0  2.701621  0
H  H12  1  0.22212466  0.34748990  0.73947050  1  0.056965  0  0.104569  0.071515  0  1.016484  0
H  H13  1  0.09210893  0.22210506  0.67935434  1  0.111562  0  0.107339  0.116032  0  1.013184  0
H  H14  1  0.77822626  0.51848862  0.12554728  1  0.051216  0  0.102348  0.065607  0  1.022365  0
H  H15  1  0.90780811  0.58802356  0.12961525  1  0.110464  0  0.107418  0.116343  0  1.011012  0
H  H16  1  0.39313393  0.65306670  0.87455969  1  0.056412  0  0.102661  0.066086  0  1.022097  0
H  H17  1  0.45868112  0.77855060  0.87048363  1  0.124772  0  0.107743  0.116901  0  1.010355  0
H  H18  1  0.60783278  0.48265223  0.26043295  1  0.052912  0  0.104872  0.072104  0  1.016316  0
H  H19  1  0.54242960  0.41255100  0.32031396  1  0.115189  0  0.107281  0.115669  0  1.013576  0
H  H20  1  0.77799344  0.26062223  0.65279114  1  0.060635  0  0.105098  0.072348  0  1.016722  0
H  H21  1  0.90799919  0.32061041  0.77809924  1  0.110726  0  0.107611  0.115887  0  1.013708  0
H  H22  1  0.22169397  0.87457870  0.48148985  1  0.051127  0  0.102473  0.065793  0  1.02189  0
H  H23  1  0.09214384  0.87050500  0.41179197  1  0.113535  0  0.107621  0.116498  0  1.010459  0
H  H24  1  0.60700988  0.12555867  0.34715656  1  0.052399  0  0.102538  0.065765  0  1.022289  0
H  H25  1  0.54155279  0.12963821  0.22164495  1  0.120698  0  0.107587  0.116653  0  1.010754  0
H  H26  1  0.39192011  0.73958949  0.51724595  1  0.04938  0  0.104668  0.071799  0  1.016875  0
H  H27  1  0.45719833  0.67952897  0.58718092  1  0.115933  0  0.107311  0.115782  0  1.013828  0
H  H28  1  0.12539495  0.77792987  0.51726168  1  0.058313  0  0.104558  0.071497  0  1.016715  0
H  H29  1  0.13004931  0.90793449  0.58724357  1  0.122823  0  0.107426  0.116129  0  1.013156  0
H  H30  1  0.74037981  0.22190315  0.34737069  1  0.046648  0  0.102143  0.06539  0  1.022072  0
H  H31  1  0.68033468  0.09229619  0.22188498  1  0.115529  0  0.107248  0.116178  0  1.010726  0
H  H32  1  0.25980304  0.60681587  0.48130565  1  0.056053  0  0.102655  0.066131  0  1.021414  0
H  H33  1  0.31973112  0.54124936  0.41166761  1  0.113532  0  0.10772  0.116861  0  1.009743  0
H  H34  1  0.87487900  0.39205102  0.65264690  1  0.043459  0  0.104935  0.072277  0  1.016514  0
H  H35  1  0.87014591  0.45736371  0.77793673  1  0.111153  0  0.107443  0.115925  0  1.013337  0
H  H36  1  0.48269871  0.22202306  0.87477182  1  0.060064  0  0.105014  0.072163  0  1.01675  0
H  H37  1  0.41263380  0.09202335  0.87006785  1  0.122694  0  0.107657  0.116133  0  1.013456  0
H  H38  1  0.65286126  0.77827857  0.25968142  1  0.047601  0  0.102239  0.065511  0  1.021837  0
H  H39  1  0.77835234  0.90786414  0.31963536  1  0.114035  0  0.107619  0.1166  0  1.010376  0
H  H40  1  0.51858565  0.39304556  0.74025825  1  0.046115  0  0.102515  0.065762  0  1.022018  0
H  H41  1  0.58805338  0.45842383  0.68009740  1  0.112495  0  0.10749  0.116501  0  1.010411  0
H  H42  1  0.34754300  0.60811136  0.12527618  1  0.04674  0  0.10456  0.071425  0  1.016964  0
H  H43  1  0.22222941  0.54272935  0.12994746  1  0.111486  0  0.107421  0.115954  0  1.013397  0
H  H44  1  0.65261436  0.87471218  0.39190731  1  0.043245  0  0.104669  0.071592  0  1.016881  0
H  H45  1  0.77796879  0.87006099  0.45723053  1  0.109482  0  0.107505  0.116168  0  1.013063  0
H  H46  1  0.48144240  0.25963020  0.60698351  1  0.044698  0  0.102344  0.06559  0  1.022222  0
H  H47  1  0.41183501  0.31957693  0.54144685  1  0.114897  0  0.107423  0.116421  0  1.010698  0
H  H48  1  0.34698559  0.74019269  0.22156468  1  0.057225  0  0.102477  0.06584  0  1.022063  0
H  H49  1  0.22145926  0.68006800  0.09194357  1  0.112653  0  0.107776  0.116946  0  1.010446  0
H  H50  1  0.51724582  0.12521211  0.77782933  1  0.060847  0  0.104902  0.072038  0  1.016828  0
H  H51  1  0.58735714  0.12990579  0.90779977  1  0.125954  0  0.107512  0.116053  0  1.013765  0
H  H52  1  0.73940006  0.51740535  0.39214070  1  0.055205  0  0.104984  0.072136  0  1.016501  0
H  H53  1  0.67935914  0.58736601  0.45742682  1  0.114159  0  0.107576  0.115962  0  1.013161  0
H  H54  1  0.12546242  0.34714472  0.60690958  1  0.052923  0  0.102496  0.065898  0  1.021673  0
H  H55  1  0.12952166  0.22165271  0.54130704  1  0.12544  0  0.10763  0.11663  0  1.010303  0
H  H56  1  0.87445900  0.48148358  0.22160322  1  0.050835  0  0.102458  0.065728  0  1.022203  0
H  H57  1  0.87037548  0.41190878  0.09199785  1  0.115745  0  0.10763  0.116769  0  1.010676  0
H  H58  1  0.26049058  0.65240940  0.77765979  1  0.057153  0  0.104505  0.071463  0  1.016722  0
H  H59  1  0.32049804  0.77772928  0.90765905  1  0.114355  0  0.107365  0.115946  0  1.013192  0
H  H60  1  0.77793088  0.65256128  0.26057168  1  0.057267  0  0.104542  0.071575  0  1.016378  0
H  H61  1  0.90792627  0.77791313  0.32056976  1  0.111285  0  0.107414  0.116134  0  1.012738  0
H  H62  1  0.22180096  0.48154330  0.87453067  1  0.051204  0  0.102271  0.06552  0  1.022459  0
H  H63  1  0.09222646  0.41193729  0.87044808  1  0.108892  0  0.10738  0.116406  0  1.010619  0
H  H64  1  0.60688787  0.34697065  0.12550050  1  0.055147  0  0.102666  0.066199  0  1.021909  0
H  H65  1  0.54135589  0.22146154  0.12954962  1  0.124086  0  0.107783  0.116818  0  1.010579  0
H  H66  1  0.39211225  0.51732646  0.73957207  1  0.052291  0  0.104799  0.071751  0  1.016557  0
H  H67  1  0.45738679  0.58730327  0.67953631  1  0.116534  0  0.107486  0.115834  0  1.013675  0
H  H68  1  0.22198784  0.73942588  0.34729438  1  0.05962  0  0.104952  0.072036  0  1.01671  0
H  H69  1  0.09197478  0.67934352  0.22195331  1  0.109893  0  0.107673  0.116149  0  1.013362  0
H  H70  1  0.77833702  0.12546664  0.51855908  1  0.050863  0  0.102525  0.06574  0  1.02184  0
H  H71  1  0.90790560  0.12952441  0.58814067  1  0.113674  0  0.10755  0.116374  0  1.010662  0
H  H72  1  0.39296256  0.87449750  0.65288836  1  0.051778  0  0.10242  0.065577  0  1.022094  0
H  H73  1  0.45846843  0.87040098  0.77837408  1  0.120842  0  0.10756  0.116699  0  1.010763  0
H  H74  1  0.60798401  0.26039774  0.48277370  1  0.050327  0  0.104582  0.071625  0  1.017045  0
H  H75  1  0.54262075  0.32031532  0.41271063  1  0.117117  0  0.107234  0.115708  0  1.013884  0
H  H76  1  0.87469006  0.22212424  0.48273924  1  0.059079  0  0.104619  0.071485  0  1.016629  0
H  H77  1  0.87001872  0.09212376  0.41268302  1  0.124228  0  0.107356  0.116106  0  1.013052  0
H  H78  1  0.25967674  0.77813940  0.65264365  1  0.047042  0  0.102138  0.065413  0  1.021881  0
H  H79  1  0.31971965  0.90774354  0.77812997  1  0.115573  0  0.107322  0.11617  0  1.010856  0
H  H80  1  0.74015545  0.39316663  0.51865106  1  0.056554  0  0.102624  0.06586  0  1.02172  0
H  H81  1  0.68006962  0.45860011  0.58815729  1  0.112865  0  0.107748  0.11684  0  1.010368  0
H  H82  1  0.12519943  0.60793981  0.34740320  1  0.043607  0  0.104866  0.072054  0  1.016766  0
H  H83  1  0.12990591  0.54255828  0.22211423  1  0.110525  0  0.10748  0.115983  0  1.013686  0
H  H84  1  0.51735123  0.77804003  0.12528031  1  0.059749  0  0.105036  0.072018  0  1.0168  0
H  H85  1  0.58743050  0.90801971  0.12996629  1  0.122508  0  0.107779  0.116181  0  1.013506  0
H  H86  1  0.34719340  0.22178622  0.74033474  1  0.047957  0  0.102337  0.065637  0  1.0218  0
H  H87  1  0.22168149  0.09217500  0.68026770  1  0.114158  0  0.107534  0.116386  0  1.011028  0
H  H88  1  0.48136871  0.60696116  0.25977589  1  0.055415  0  0.102491  0.065917  0  1.021974  0
H  H89  1  0.41178028  0.54144530  0.31977835  1  0.11137  0  0.107601  0.116785  0  1.010007  0
H  H90  1  0.65245418  0.39190680  0.87481748  1  0.038954  0  0.104513  0.071595  0  1.016969  0
H  H91  1  0.77776943  0.45721808  0.87011480  1  0.11257  0  0.107454  0.116144  0  1.01351  0
H  H92  1  0.34740626  0.12534269  0.60811143  1  0.04253  0  0.104632  0.071551  0  1.016628  0
H  H93  1  0.22207200  0.12998631  0.54267957  1  0.108305  0  0.107381  0.116086  0  1.012995  0
H  H94  1  0.51843595  0.74038133  0.39301398  1  0.044096  0  0.102228  0.065383  0  1.022318  0
H  H95  1  0.58794793  0.68028792  0.45842333  1  0.117233  0  0.10741  0.116413  0  1.010928  0
H  H96  1  0.65303560  0.25988327  0.77857719  1  0.055545  0  0.102667  0.066096  0  1.02211  0
H  H97  1  0.77856209  0.31991039  0.90815535  1  0.112471  0  0.10769  0.116738  0  1.010604  0
H  H98  1  0.48276527  0.87483323  0.22222324  1  0.059403  0  0.104932  0.072149  0  1.016394  0
H  H99  1  0.41270092  0.87012560  0.09223012  1  0.126608  0  0.107517  0.115929  0  1.013416  0
H  H100  1  0.26058399  0.48259546  0.60784160  1  0.055414  0  0.105081  0.072171  0  1.016564  0
H  H101  1  0.32047461  0.41251105  0.54243204  1  0.11401  0  0.107536  0.115825  0  1.013129  0
H  H102  1  0.87464059  0.65289663  0.39306836  1  0.051848  0  0.102583  0.065914  0  1.022115  0
H  H103  1  0.87055763  0.77839147  0.45858837  1  0.125803  0  0.107481  0.116478  0  1.010914  0
H  H104  1  0.12561208  0.51857168  0.77846810  1  0.050676  0  0.102471  0.065996  0  1.022444  0
H  H105  1  0.12967533  0.58807554  0.90807750  1  0.114532  0  0.107533  0.116657  0  1.010528  0
H  H106  1  0.73960735  0.34763532  0.22235386  1  0.056628  0  0.104407  0.071369  0  1.016823  0
H  H107  1  0.67959999  0.22231011  0.09235982  1  0.114171  0  0.107219  0.115664  0  1.013456  0
C  C108  1  0.21920213  0.28933143  0.72398084  1  0.456155  0  0.021512  0.064383  0  3.999856  0
C  C109  1  0.14765110  0.22022609  0.69152136  1  -0.049394  0  -0.084509  -0.153611  0  3.966947  0
C  C110  1  0.78087128  0.50528739  0.07010082  1  0.378638  0  0.019613  0.056331  0  4.016815  0
C  C111  1  0.85227029  0.54422772  0.07232373  1  0.040595  0  -0.084963  -0.151297  0  3.965709  0
C  C112  1  0.43549202  0.71113786  0.93001396  1  0.376431  0  0.020337  0.056907  0  4.013628  0
C  C113  1  0.47226455  0.78033164  0.92779169  1  0.005757  0  -0.084407  -0.151623  0  3.964793  0
C  C114  1  0.56515079  0.49518853  0.27591345  1  0.404706  0  0.021718  0.064247  0  3.998222  0
C  C115  1  0.52843028  0.45599823  0.30826294  1  -0.016367  0  -0.084548  -0.154127  0  3.967301  0
C  C116  1  0.78093130  0.27605893  0.71093380  1  0.455056  0  0.02159  0.063626  0  3.99808  0
C  C117  1  0.85250470  0.30847374  0.78003654  1  -0.04508  0  -0.0843  -0.152921  0  3.96644  0
C  C118  1  0.21906982  0.93004201  0.49461957  1  0.381623  0  0.020466  0.057236  0  4.015348  0
C  C119  1  0.14768081  0.92780589  0.45559360  1  0.036446  0  -0.08477  -0.15173  0  3.966417  0
C  C120  1  0.56469701  0.07010566  0.28906573  1  0.373607  0  0.020102  0.05732  0  4.015574  0
C  C121  1  0.52797346  0.07232772  0.21987580  1  0.009252  0  -0.084954  -0.15178  0  3.965961  0
C  C122  1  0.43453771  0.72405935  0.50465649  1  0.404181  0  0.020626  0.06288  0  3.999639  0
C  C123  1  0.47118965  0.69160851  0.54375868  1  -0.004885  0  -0.084534  -0.153085  0  3.967162  0
C  C124  1  0.14486205  0.14510086  0.66917923  1  -0.006433  0  0.013268  0.064198  0  3.926456  0
C  C125  1  0.06883738  0.06898361  0.62239823  1  1.031147  0  0.216266  0.325296  0  4.075922  0
C  C126  1  0.85482352  0.52391893  0.99984768  1  0.029305  0  0.013048  0.064551  0  3.928772  0
C  C127  1  0.93084805  0.55319204  0.99983961  1  1.015053  0  0.215984  0.324738  0  4.075444  0
C  C128  1  0.52452310  0.85534212  0.00023582  1  0.033808  0  0.01375  0.065162  0  3.92454  0
C  C129  1  0.55383511  0.93144709  0.00022354  1  1.026603  0  0.216961  0.326326  0  4.075388  0
C  C130  1  0.47569187  0.47554924  0.33067667  1  0.022622  0  0.013586  0.065242  0  3.924495  0
C  C131  1  0.44638990  0.44617584  0.37741520  1  1.046296  0  0.216683  0.326054  0  4.074469  0
C  C132  1  0.62347423  0.47707182  0.10081909  1  0.757803  0  0.039371  -0.042384  0  3.564604  0
C  C133  1  0.37629760  0.89923378  0.52273386  1  0.758291  0  0.039111  -0.042742  0  3.564126  0
C  C134  1  0.07017557  0.78086579  0.50470939  1  0.392266  0  0.021444  0.064265  0  3.999992  0
C  C135  1  0.07263174  0.85240687  0.54384475  1  0.011746  0  -0.084443  -0.153391  0  3.967225  0
C  C136  1  0.72454456  0.21923423  0.28925860  1  0.386858  0  0.019918  0.056725  0  4.015428  0
C  C137  1  0.69208176  0.14782334  0.22009317  1  0.016932  0  -0.085043  -0.151223  0  3.964786  0
C  C138  1  0.27551374  0.56444058  0.49439884  1  0.400735  0  0.020364  0.05705  0  4.014115  0
C  C139  1  0.30790525  0.52765365  0.45539213  1  -0.005325  0  -0.084317  -0.151658  0  3.964584  0
C  C140  1  0.93007038  0.43471255  0.71082066  1  0.409145  0  0.021744  0.063915  0  3.99817  0
C  C141  1  0.92759752  0.47137964  0.77989959  1  0.000719  0  -0.08452  -0.153792  0  3.967496  0
C  C142  1  0.49518207  0.21907970  0.92996968  1  0.398649  0  0.021964  0.064074  0  3.99788  0
C  C143  1  0.45600845  0.14751324  0.92750338  1  0.007888  0  -0.084371  -0.153398  0  3.966516  0
C  C144  1  0.71096605  0.78091794  0.27547553  1  0.39056  0  0.020525  0.058004  0  4.014806  0
C  C145  1  0.78012780  0.85232666  0.30789088  1  0.02303  0  -0.084945  -0.152351  0  3.966245  0
C  C146  1  0.50542638  0.43534460  0.72445074  1  0.405003  0  0.020222  0.057386  0  4.015454  0
C  C147  1  0.54432823  0.47202540  0.69192999  1  -0.004852  0  -0.084762  -0.151289  0  3.965599  0
C  C148  1  0.28938928  0.56546203  0.07007449  1  0.384934  0  0.021207  0.064321  0  3.999109  0
C  C149  1  0.22031711  0.52875980  0.07253029  1  0.01035  0  -0.084894  -0.154178  0  3.967727  0
C  C150  1  0.00030629  0.85520728  0.52430745  1  0.037362  0  0.013261  0.063909  0  3.926171  0
C  C151  1  0.00021032  0.93123514  0.55358000  1  1.030164  0  0.216247  0.325706  0  4.075038  0
C  C152  1  0.66924247  0.14523039  0.14503943  1  0.000515  0  0.012777  0.063987  0  3.928654  0
C  C153  1  0.62253141  0.06920509  0.06901324  1  1.026663  0  0.216573  0.325655  0  4.075722  0
C  C154  1  0.33065286  0.47537531  0.47556217  1  0.017735  0  0.013717  0.06508  0  3.923972  0
C  C155  1  0.37743510  0.44604476  0.44623419  1  1.04393  0  0.217332  0.327453  0  4.075287  0
C  C156  1  0.99988022  0.52408702  0.85504490  1  0.044262  0  0.013582  0.064555  0  3.926741  0
C  C157  1  0.99980325  0.55333137  0.93106515  1  1.008113  0  0.216367  0.325739  0  4.074557  0
C  C158  1  0.85376876  0.37665568  0.47745050  1  0.756257  0  0.039431  -0.042231  0  3.563416  0
C  C159  1  0.52282726  0.62368457  0.14635281  1  0.754991  0  0.03967  -0.042137  0  3.563133  0
C  C160  1  0.71075498  0.92993796  0.43460569  1  0.391447  0  0.021661  0.064622  0  3.99899  0
C  C161  1  0.77984804  0.92747841  0.47127898  1  0.013199  0  -0.084606  -0.153778  0  3.966321  0
C  C162  1  0.49461784  0.27543089  0.56470607  1  0.398019  0  0.019816  0.056757  0  4.015122  0
C  C163  1  0.45562889  0.30784665  0.52794033  1  -0.000546  0  -0.085061  -0.151648  0  3.964786  0
C  C164  1  0.28890283  0.72442658  0.21892159  1  0.387726  0  0.020615  0.05762  0  4.012655  0
C  C165  1  0.21969656  0.69191711  0.14748745  1  0.020951  0  -0.084296  -0.15152  0  3.964685  0
C  C166  1  0.50473125  0.07000269  0.78077119  1  0.395668  0  0.021612  0.063975  0  3.999611  0
C  C167  1  0.54391021  0.07246927  0.85231061  1  0.007754  0  -0.084605  -0.154357  0  3.968406  0
C  C168  1  0.72395217  0.50488270  0.43484137  1  0.392567  0  0.021717  0.063815  0  3.998411  0
C  C169  1  0.69151264  0.54400390  0.47150879  1  -0.008226  0  -0.084166  -0.152802  0  3.966358  0
C  C170  1  0.06999133  0.28905186  0.56458901  1  0.375902  0  0.020307  0.057051  0  4.01492  0
C  C171  1  0.07221606  0.21988548  0.52780293  1  0.003221  0  -0.084934  -0.15202  0  3.965835  0
C  C172  1  0.92990712  0.49461330  0.21895128  1  0.386384  0  0.020123  0.057318  0  4.014972  0
C  C173  1  0.92768618  0.45565453  0.14755342  1  0.032287  0  -0.085052  -0.15204  0  3.966295  0
C  C174  1  0.27600743  0.71057578  0.78060729  1  0.448198  0  0.021087  0.064178  0  3.999056  0
C  C175  1  0.30843164  0.77966352  0.85215053  1  -0.049431  0  -0.084931  -0.154327  0  3.967609  0
C  C176  1  0.85496276  0.99979538  0.52409371  1  0.032849  0  0.013362  0.064427  0  3.926365  0
C  C177  1  0.93106417  0.99986530  0.55343140  1  1.0241  0  0.216386  0.325731  0  4.075989  0
C  C178  1  0.47587394  0.33065573  0.47571119  1  0.003528  0  0.012817  0.064229  0  3.927778  0
C  C179  1  0.44653102  0.37736196  0.44635911  1  1.056226  0  0.216527  0.325799  0  4.075773  0
C  C180  1  0.14469365  0.66913658  0.14493449  1  -0.008255  0  0.013386  0.064366  0  3.925721  0
C  C181  1  0.06860098  0.62227846  0.06881975  1  1.028631  0  0.217407  0.327249  0  4.074689  0
C  C182  1  0.52435437  0.00017733  0.85516396  1  0.037245  0  0.013371  0.064978  0  3.926517  0
C  C183  1  0.55371506  0.00024780  0.93126036  1  1.014557  0  0.21652  0.325642  0  4.075328  0
C  C184  1  0.52292710  0.14639546  0.62380922  1  0.753669  0  0.039425  -0.042394  0  3.563472  0
C  C185  1  0.10083624  0.47714105  0.62357191  1  0.756087  0  0.039315  -0.042162  0  3.564308  0
C  C186  1  0.78084559  0.71071555  0.27602607  1  0.457627  0  0.021554  0.064458  0  3.99932  0
C  C187  1  0.85238839  0.77981146  0.30842344  1  -0.049677  0  -0.084334  -0.153498  0  3.966126  0
C  C188  1  0.21915455  0.49472504  0.92997139  1  0.379786  0  0.02004  0.056815  0  4.015585  0
C  C189  1  0.14775776  0.45574289  0.92774227  1  0.043262  0  -0.085003  -0.151424  0  3.965109  0
C  C190  1  0.56454340  0.28890106  0.07004286  1  0.377541  0  0.020297  0.056623  0  4.014203  0
C  C191  1  0.52778287  0.21970179  0.07225271  1  0.005945  0  -0.08459  -0.151544  0  3.965082  0
C  C192  1  0.43476878  0.50477073  0.72405815  1  0.404726  0  0.021699  0.06458  0  3.999214  0
C  C193  1  0.47141161  0.54388274  0.69161343  1  -0.005177  0  -0.084533  -0.153998  0  3.968097  0
C  C194  1  0.21905528  0.72396734  0.28915495  1  0.456319  0  0.021883  0.064127  0  3.997856  0
C  C195  1  0.14748271  0.69150268  0.22003032  1  -0.045456  0  -0.084222  -0.153119  0  3.966297  0
C  C196  1  0.78095459  0.07000097  0.50538362  1  0.386982  0  0.020553  0.057598  0  4.015078  0
C  C197  1  0.85236037  0.07223095  0.54435169  1  0.03496  0  -0.084866  -0.151716  0  3.966384  0
C  C198  1  0.43530561  0.92994690  0.71097628  1  0.374555  0  0.020174  0.057411  0  4.015309  0
C  C199  1  0.47204806  0.92771419  0.78015204  1  0.009627  0  -0.085036  -0.152079  0  3.966508  0
C  C200  1  0.56533800  0.27590189  0.49532447  1  0.396687  0  0.021038  0.063649  0  3.998661  0
C  C201  1  0.52863468  0.30827300  0.45615097  1  0.002496  0  -0.084668  -0.153626  0  3.966995  0
C  C202  1  0.85517984  0.85493669  0.33073805  1  -0.007668  0  0.013133  0.064277  0  3.925337  0
C  C203  1  0.93120656  0.93104572  0.37749715  1  1.026926  0  0.216592  0.326114  0  4.073552  0
C  C204  1  0.14519380  0.47600597  0.00020681  1  0.033194  0  0.012761  0.064355  0  3.928898  0
C  C205  1  0.06916892  0.44669812  0.00021302  1  1.027483  0  0.216552  0.325375  0  4.075739  0
C  C206  1  0.47552796  0.14469313  0.99979721  1  0.034658  0  0.013661  0.064811  0  3.92458  0
C  C207  1  0.44622583  0.06858658  0.99980266  1  1.024608  0  0.217384  0.327122  0  4.074454  0
C  C208  1  0.52412031  0.52429659  0.66917147  1  0.010357  0  0.01337  0.064429  0  3.926019  0
C  C209  1  0.55337937  0.55362165  0.62238678  1  1.04787  0  0.216284  0.325687  0  4.074889  0
C  C210  1  0.37653894  0.52299008  0.89927099  1  0.755869  0  0.038769  -0.043023  0  3.564654  0
C  C211  1  0.62366149  0.10080783  0.47733158  1  0.756063  0  0.039579  -0.042026  0  3.563421  0
C  C212  1  0.92990704  0.21918472  0.49526502  1  0.396099  0  0.021676  0.06477  0  3.999478  0
C  C213  1  0.92744330  0.14764753  0.45609491  1  0.007096  0  -0.084565  -0.15388  0  3.967021  0
C  C214  1  0.27552807  0.78081113  0.71076049  1  0.386079  0  0.019994  0.056887  0  4.015244  0
C  C215  1  0.30798149  0.85221505  0.77992453  1  0.015262  0  -0.085148  -0.151328  0  3.965469  0
C  C216  1  0.72441038  0.43550694  0.50552528  1  0.376292  0  0.020414  0.057479  0  4.013984  0
C  C217  1  0.69191811  0.47221301  0.54445059  1  0.01839  0  -0.084422  -0.151674  0  3.964803  0
C  C218  1  0.07000175  0.56526897  0.28923469  1  0.404053  0  0.021634  0.064001  0  3.999281  0
C  C219  1  0.07246393  0.52856646  0.22016197  1  0.000914  0  -0.084656  -0.154338  0  3.96863  0
C  C220  1  0.50486354  0.78097844  0.07007990  1  0.396934  0  0.021768  0.064126  0  3.997929  0
C  C221  1  0.54405090  0.85253391  0.07253608  1  0.008579  0  -0.08443  -0.153459  0  3.966592  0
C  C222  1  0.28908892  0.21914233  0.72452859  1  0.388843  0  0.020393  0.057417  0  4.015165  0
C  C223  1  0.21991444  0.14772148  0.69204648  1  0.022211  0  -0.084749  -0.151586  0  3.966467  0
C  C224  1  0.49449524  0.56462273  0.27553585  1  0.393845  0  0.019985  0.056944  0  4.015754  0
C  C225  1  0.45551905  0.52786037  0.30795984  1  -0.002133  0  -0.084924  -0.151768  0  3.96512  0
C  C226  1  0.71061866  0.43454156  0.93000525  1  0.40222  0  0.021212  0.064088  0  3.998698  0
C  C227  1  0.77969317  0.47119786  0.92753393  1  0.005385  0  -0.085202  -0.154694  0  3.968707  0
C  C228  1  0.99976371  0.14483604  0.47559072  1  0.036727  0  0.013338  0.064468  0  3.925047  0
C  C229  1  0.99984173  0.06880232  0.44630209  1  1.024416  0  0.216657  0.326037  0  4.074088  0
C  C230  1  0.33083015  0.85480953  0.85498215  1  8e-05  0  0.012971  0.064225  0  3.928883  0
C  C231  1  0.37754174  0.93083053  0.93101063  1  1.027258  0  0.216439  0.325438  0  4.075221  0
C  C232  1  0.66914579  0.52447510  0.52426685  1  0.022316  0  0.013676  0.064627  0  3.924488  0
C  C233  1  0.62231724  0.55375210  0.55355431  1  1.036416  0  0.217457  0.327397  0  4.07429  0
C  C234  1  0.00016780  0.47585168  0.14502714  1  0.032524  0  0.013406  0.065021  0  3.926476  0
C  C235  1  0.00022898  0.44657043  0.06900196  1  1.019927  0  0.216297  0.325373  0  4.07537  0
C  C236  1  0.14632343  0.62340924  0.52257823  1  0.756118  0  0.039389  -0.04233  0  3.563731  0
C  C237  1  0.47722141  0.37639776  0.85375375  1  0.75605  0  0.039876  -0.041946  0  3.562877  0
C  C238  1  0.28926543  0.07011309  0.56538752  1  0.390458  0  0.021694  0.064467  0  3.999334  0
C  C239  1  0.22018653  0.07256870  0.52865822  1  0.015015  0  -0.084407  -0.153484  0  3.966285  0
C  C240  1  0.50525338  0.72454215  0.43526758  1  0.379265  0  0.020143  0.057442  0  4.014524  0
C  C241  1  0.54418064  0.69204902  0.47195961  1  0.018969  0  -0.085248  -0.151613  0  3.965168  0
C  C242  1  0.71110533  0.27560679  0.78118725  1  0.402887  0  0.020265  0.057156  0  4.01373  0
C  C243  1  0.78031014  0.30806654  0.85260312  1  0.009445  0  -0.084429  -0.151606  0  3.964825  0
C  C244  1  0.49529215  0.93004230  0.21927533  1  0.398484  0  0.021735  0.064286  0  3.9983  0
C  C245  1  0.45613741  0.92756977  0.14772207  1  0.00757  0  -0.084612  -0.154165  0  3.967891  0
C  C246  1  0.27598295  0.49507462  0.56509890  1  0.393329  0  0.021656  0.063812  0  3.998397  0
C  C247  1  0.30834539  0.45589201  0.52836902  1  -0.005203  0  -0.084147  -0.152852  0  3.96545  0
C  C248  1  0.93009484  0.71098954  0.43537322  1  0.425728  0  0.02029  0.056925  0  4.014966  0
C  C249  1  0.92786363  0.78016211  0.47211527  1  -0.045363  0  -0.084711  -0.151503  0  3.965984  0
C  C250  1  0.07015964  0.50540024  0.78111583  1  0.387919  0  0.019706  0.056315  0  4.015435  0
C  C251  1  0.07236939  0.54432068  0.85252184  1  0.019746  0  -0.084858  -0.151368  0  3.965035  0
C  C252  1  0.72408049  0.28946254  0.21940652  1  0.451292  0  0.021028  0.063771  0  3.999012  0
C  C253  1  0.69165906  0.22037879  0.14786979  1  -0.052931  0  -0.084708  -0.153586  0  3.96696  0
C  C254  1  0.14508011  0.00024374  0.47581805  1  0.033457  0  0.013209  0.064237  0  3.926135  0
C  C255  1  0.06898129  0.00016797  0.44645260  1  1.023274  0  0.216766  0.326471  0  4.07449  0
C  C256  1  0.52391446  0.66920191  0.52416073  1  0.008557  0  0.012857  0.063639  0  3.928472  0
C  C257  1  0.55322745  0.62244765  0.55345189  1  1.048094  0  0.21656  0.326173  0  4.075894  0
C  C258  1  0.85530858  0.33081544  0.85513751  1  -0.008805  0  0.013694  0.064958  0  3.924806  0
C  C259  1  0.93141401  0.37763083  0.93124824  1  1.026881  0  0.2175  0.327322  0  4.074272  0
C  C260  1  0.47569840  0.99985662  0.14486718  1  0.037146  0  0.013377  0.064908  0  3.926196  0
C  C261  1  0.44635339  0.99978312  0.06876405  1  1.014474  0  0.216456  0.32544  0  4.075262  0
C  C262  1  0.47706926  0.85372866  0.37631820  1  0.755807  0  0.039565  -0.042116  0  3.563347  0
C  C263  1  0.89925362  0.52291550  0.37649116  1  0.754621  0  0.039131  -0.042617  0  3.563618  0
N  N264  1  0.28991684  0.28989540  0.73777389  1  -1.265723  0  -0.366448  -0.262675  0  3.628372  0
N  N265  1  0.71011208  0.44775600  0.00018393  1  -1.280182  0  -0.367151  -0.263198  0  3.627982  0
N  N266  1  0.44790184  0.71031228  0.99992862  1  -1.285569  0  -0.365974  -0.261628  0  3.625193  0
N  N267  1  0.55197718  0.55219195  0.26224731  1  -1.260724  0  -0.36655  -0.262927  0  3.626952  0
N  N268  1  0.37283678  0.47332053  0.84601119  1  -1.385883  0  -0.364101  -0.293728  0  3.479852  0
N  N269  1  0.62738905  0.15407834  0.52702735  1  -1.386866  0  -0.364586  -0.294336  0  3.479578  0
N  N270  1  0.07263341  0.00018836  0.60099959  1  -1.196279  0  -0.329883  -0.436184  0  3.245061  0
N  N271  1  0.92729188  0.52809216  0.92736382  1  -1.176577  0  -0.329765  -0.435469  0  3.246119  0
N  N272  1  0.60115144  0.00030347  0.07267931  1  -1.19255  0  -0.330251  -0.436827  0  3.244956  0
N  N273  1  0.39881843  0.47114727  0.39878265  1  -1.202209  0  -0.331053  -0.438897  0  3.243247  0
N  N274  1  0.00002156  0.71017311  0.44776284  1  -1.287333  0  -0.366773  -0.262553  0  3.628521  0
N  N275  1  0.73781276  0.29000164  0.29010786  1  -1.265835  0  -0.366648  -0.263214  0  3.627159  0
N  N276  1  0.26226481  0.55201790  0.55188371  1  -1.263947  0  -0.365804  -0.261475  0  3.626603  0
N  N277  1  0.00024470  0.44791986  0.71034215  1  -1.285974  0  -0.366422  -0.262406  0  3.626452  0
N  N278  1  0.10049567  0.62724572  0.47303004  1  -1.387274  0  -0.364516  -0.294231  0  3.480419  0
N  N279  1  0.52678132  0.37259200  0.89960734  1  -1.386968  0  -0.36488  -0.294428  0  3.480543  0
N  N280  1  0.92761426  0.92745807  0.52841912  1  -1.168144  0  -0.330148  -0.436595  0  3.245026  0
N  N281  1  0.60100241  0.07275497  0.00008527  1  -1.184646  0  -0.329729  -0.435541  0  3.245637  0
N  N282  1  0.39899195  0.39873957  0.47137636  1  -1.187188  0  -0.330464  -0.43752  0  3.2449  0
N  N283  1  0.07233747  0.60089068  0.99999526  1  -1.174845  0  -0.330417  -0.437623  0  3.242275  0
N  N284  1  0.71021626  0.00009516  0.44785186  1  -1.280286  0  -0.366765  -0.262867  0  3.62836  0
N  N285  1  0.55215224  0.26220619  0.55231260  1  -1.263283  0  -0.367071  -0.263173  0  3.628201  0
N  N286  1  0.28973115  0.73771543  0.28967516  1  -1.267692  0  -0.365831  -0.261967  0  3.625194  0
N  N287  1  0.44773744  0.99984841  0.71011611  1  -1.289424  0  -0.366414  -0.26211  0  3.627713  0
N  N288  1  0.52676169  0.89959435  0.37265375  1  -1.387148  0  -0.364681  -0.294525  0  3.480271  0
N  N289  1  0.84599504  0.47338965  0.37293427  1  -1.385083  0  -0.364385  -0.294097  0  3.479961  0
N  N290  1  0.99986725  0.07243870  0.60085819  1  -1.194614  0  -0.329804  -0.436044  0  3.244735  0
N  N291  1  0.47160053  0.39889178  0.39896400  1  -1.180757  0  -0.329601  -0.435258  0  3.246306  0
N  N292  1  0.99974582  0.60072314  0.07240822  1  -1.176493  0  -0.330135  -0.436708  0  3.244931  0
N  N293  1  0.52874961  0.92773019  0.92767516  1  -1.159894  0  -0.330527  -0.437425  0  3.243722  0
N  N294  1  0.71014824  0.71017378  0.26227475  1  -1.267387  0  -0.366427  -0.263103  0  3.627678  0
N  N295  1  0.28990151  0.55227858  0.99990054  1  -1.279659  0  -0.367266  -0.263634  0  3.628153  0
N  N296  1  0.55213590  0.28974223  0.00013245  1  -1.286782  0  -0.365941  -0.261462  0  3.625918  0
N  N297  1  0.44798358  0.44781574  0.73777798  1  -1.261109  0  -0.36671  -0.262875  0  3.628174  0
N  N298  1  0.62719901  0.52674348  0.15409701  1  -1.3879  0  -0.36444  -0.294182  0  3.48006  0
N  N299  1  0.37254183  0.84594592  0.47303934  1  -1.388305  0  -0.364392  -0.293896  0  3.480132  0
N  N300  1  0.92742314  0.99985479  0.39889595  1  -1.192121  0  -0.330233  -0.436639  0  3.244116  0
N  N301  1  0.07273800  0.47179582  0.07268842  1  -1.175292  0  -0.329712  -0.435291  0  3.246128  0
N  N302  1  0.39892418  0.99973159  0.92734710  1  -1.192083  0  -0.330261  -0.436759  0  3.244702  0
N  N303  1  0.60093696  0.52864057  0.60100443  1  -1.193484  0  -0.330537  -0.437884  0  3.242481  0
N  N304  1  0.00006746  0.28987051  0.55222484  1  -1.286476  0  -0.36682  -0.26278  0  3.628488  0
N  N305  1  0.26226819  0.71003575  0.70991088  1  -1.265268  0  -0.366936  -0.26361  0  3.627223  0
N  N306  1  0.73771034  0.44795954  0.44807618  1  -1.261809  0  -0.365888  -0.261778  0  3.626114  0
N  N307  1  0.99982792  0.55209955  0.28971619  1  -1.281145  0  -0.366502  -0.262387  0  3.626797  0
N  N308  1  0.89961377  0.37283222  0.52699502  1  -1.387281  0  -0.364488  -0.294232  0  3.480144  0
N  N309  1  0.47326814  0.62748689  0.10049006  1  -1.386098  0  -0.364707  -0.294351  0  3.48033  0
N  N310  1  0.07243414  0.07257754  0.47145813  1  -1.163477  0  -0.330499  -0.437064  0  3.244106  0
N  N311  1  0.39907193  0.92727701  0.99994105  1  -1.183941  0  -0.329956  -0.435593  0  3.245194  0
N  N312  1  0.60075299  0.60106497  0.52842221  1  -1.19039  0  -0.33055  -0.437595  0  3.24521  0
N  N313  1  0.92769503  0.39901019  0.00007989  1  -1.186278  0  -0.330481  -0.437664  0  3.24348  0
N  N314  1  0.28979378  0.99995939  0.55217187  1  -1.276532  0  -0.366668  -0.262397  0  3.628434  0
N  N315  1  0.44774842  0.73780655  0.44769979  1  -1.264356  0  -0.367078  -0.263334  0  3.628612  0
N  N316  1  0.71026748  0.26234219  0.71043374  1  -1.267852  0  -0.36546  -0.261688  0  3.625395  0
N  N317  1  0.55226474  0.00020492  0.28993442  1  -1.290028  0  -0.366546  -0.262759  0  3.627084  0
N  N318  1  0.47322810  0.10049364  0.62743509  1  -1.385174  0  -0.364511  -0.294214  0  3.480347  0
N  N319  1  0.15408346  0.52667907  0.62712503  1  -1.386879  0  -0.364403  -0.294392  0  3.48077  0
N  N320  1  0.00017054  0.92758629  0.39902255  1  -1.191572  0  -0.330431  -0.437182  0  3.24361  0
N  N321  1  0.52814839  0.60088839  0.60082541  1  -1.178507  0  -0.329697  -0.435516  0  3.246318  0
N  N322  1  0.00026379  0.39916991  0.92764740  1  -1.189161  0  -0.330589  -0.437414  0  3.244855  0
N  N323  1  0.47130940  0.07230095  0.07235404  1  -1.160217  0  -0.330487  -0.437651  0  3.243629  0
