# generated using pymatgen
data_CdH32C44S2(NO)8
_symmetry_space_group_name_H-M   'P 1'
_cell_length_a   8.42000559
_cell_length_b   8.41991118
_cell_length_c   15.32024771
_cell_angle_alpha   106.29247056
_cell_angle_beta   106.29213568
_cell_angle_gamma   88.79016858
_symmetry_Int_Tables_number   1
_chemical_formula_structural   CdH32C44S2(NO)8
_chemical_formula_sum   'Cd1 H32 C44 S2 N8 O8'
_cell_volume   998.70216309
_cell_formula_units_Z   1
loop_
 _symmetry_equiv_pos_site_id
 _symmetry_equiv_pos_as_xyz
  1  'x, y, z'
loop_
 _atom_site_type_symbol
 _atom_site_label
 _atom_site_symmetry_multiplicity
 _atom_site_fract_x
 _atom_site_fract_y
 _atom_site_fract_z
 _atom_site_occupancy
 _atom_site_hle17_bader_spin_density
 _atom_site_hle17_ddec_charge
 _atom_site_hle17_ddec_spin_density
 _atom_site_hle17_ddec_sum_bond_order
 _atom_site_hle17_magmom
 _atom_site_hse06_10hf_bader_spin_density
 _atom_site_hse06_10hf_ddec_charge
 _atom_site_hse06_10hf_ddec_spin_density
 _atom_site_hse06_10hf_ddec_sum_bond_order
 _atom_site_hse06_10hf_magmom
 _atom_site_hse06_bader_spin_density
 _atom_site_hse06_ddec_charge
 _atom_site_hse06_ddec_spin_density
 _atom_site_hse06_ddec_sum_bond_order
 _atom_site_hse06_magmom
 _atom_site_pbe_bader_spin_density
 _atom_site_pbe_cm5_charge
 _atom_site_pbe_ddec_charge
 _atom_site_pbe_ddec_spin_density
 _atom_site_pbe_ddec_sum_bond_order
 _atom_site_pbe_magmom
Cd  Cd0  1  0.00012991  0.99987159  0.00000042  1  0  1.044748  0  1.752076  0  0  0.831707  0  2.189457  0  0  0.888325  0  2.146158  0  0  0.778055  0.791665  0  2.218715  0
H  H1  1  0.15379248  0.40908194  0.14301394  1  0  0.105495  0  0.96875  0  0  0.113742  0  1.030692  0  0  0.115353  0  1.031202  0  0  0.117771  0.112506  0  1.030531  0
H  H2  1  0.98948697  0.73404842  0.14305017  1  0  0.104906  0  0.967482  0  0  0.112629  0  1.030255  0  0  0.114201  0  1.030843  0  0  0.117497  0.111443  0  1.029987  0
H  H3  1  0.26594714  0.01051919  0.85695377  1  0  0.104976  0  0.967272  0  0  0.112685  0  1.030083  0  0  0.114258  0  1.030671  0  0  0.117511  0.111495  0  1.029818  0
H  H4  1  0.59091583  0.84620762  0.85698651  1  0  0.105573  0  0.968863  0  0  0.113831  0  1.030776  0  0  0.115452  0  1.031266  0  0  0.117826  0.112593  0  1.030618  0
H  H5  1  0.74785100  0.12446517  0.14142077  1  0  0.115285  0  0.969697  0  0  0.121368  0  1.037779  0  0  0.124887  0  1.032863  0  0  0.137764  0.118731  0  1.041362  0
H  H6  1  0.39382397  0.01739227  0.14176063  1  0  0.114865  0  0.969809  0  0  0.120911  0  1.038023  0  0  0.124458  0  1.033043  0  0  0.137285  0.118259  0  1.041623  0
H  H7  1  0.98260428  0.60617617  0.85824115  1  0  0.114828  0  0.969842  0  0  0.120864  0  1.038077  0  0  0.124406  0  1.033099  0  0  0.137256  0.11822  0  1.041659  0
H  H8  1  0.87553549  0.25214969  0.85857633  1  0  0.115269  0  0.969701  0  0  0.121376  0  1.037768  0  0  0.124899  0  1.032846  0  0  0.137757  0.118737  0  1.041354  0
H  H9  1  0.02352665  0.58496149  0.28828669  1  0  0.116573  0  0.960955  0  0  0.126251  0  1.023027  0  0  0.12904  0  1.021492  0  0  0.122203  0.124257  0  1.024225  0
H  H10  1  0.26465194  0.70406232  0.28872654  1  0  0.116993  0  0.96178  0  0  0.126654  0  1.02377  0  0  0.129467  0  1.02221  0  0  0.122179  0.124645  0  1.024971  0
H  H11  1  0.29593467  0.73534886  0.71127468  1  0  0.11692  0  0.961861  0  0  0.126576  0  1.023848  0  0  0.129388  0  1.022292  0  0  0.122135  0.124567  0  1.025047  0
H  H12  1  0.41504074  0.97647568  0.71171696  1  0  0.116604  0  0.960944  0  0  0.126255  0  1.023052  0  0  0.129045  0  1.021516  0  0  0.122185  0.124261  0  1.024255  0
H  H13  1  0.96169874  0.52760560  0.41506842  1  0  0.124952  0  0.951351  0  0  0.132442  0  1.01623  0  0  0.136176  0  1.013895  0  0  0.111214  0.129734  0  1.018048  0
H  H14  1  0.45362511  0.88781427  0.41557690  1  0  0.126277  0  0.950267  0  0  0.133655  0  1.015205  0  0  0.137352  0  1.012934  0  0  0.111826  0.130952  0  1.017011  0
H  H15  1  0.11217724  0.54637641  0.58442359  1  0  0.126276  0  0.950311  0  0  0.133657  0  1.015257  0  0  0.137358  0  1.012981  0  0  0.111817  0.130952  0  1.017059  0
H  H16  1  0.47238861  0.03829891  0.58492737  1  0  0.125121  0  0.951312  0  0  0.132533  0  1.016278  0  0  0.136252  0  1.013959  0  0  0.111251  0.129825  0  1.018102  0
H  H17  1  0.79067491  0.60755289  0.52671742  1  0  0.108192  0  0.934421  0  0  0.119406  0  0.992181  0  0  0.122455  0  0.990318  0  0  0.111382  0.117176  0  0.993587  0
H  H18  1  0.73647294  0.91879534  0.52699501  1  0  0.108702  0  0.933132  0  0  0.119984  0  0.990814  0  0  0.123062  0  0.9889  0  0  0.111435  0.117739  0  0.992251  0
H  H19  1  0.08119381  0.26352810  0.47300292  1  0  0.108696  0  0.933075  0  0  0.120002  0  0.990737  0  0  0.123083  0  0.988824  0  0  0.111441  0.117759  0  0.992169  0
H  H20  1  0.39244443  0.20932971  0.47328269  1  0  0.10815  0  0.934351  0  0  0.119388  0  0.992103  0  0  0.122438  0  0.990238  0  0  0.111346  0.117159  0  0.993505  0
H  H21  1  0.35586757  0.36838038  0.30175243  1  0  0.107427  0  0.956576  0  0  0.114683  0  1.020711  0  0  0.117703  0  1.019276  0  0  0.107711  0.112479  0  1.02177  0
H  H22  1  0.94578414  0.93323365  0.30182488  1  0  0.107021  0  0.956986  0  0  0.114118  0  1.021282  0  0  0.117132  0  1.01985  0  0  0.107729  0.111874  0  1.022387  0
H  H23  1  0.06676406  0.05420526  0.69816852  1  0  0.107006  0  0.956959  0  0  0.114112  0  1.021251  0  0  0.117126  0  1.01982  0  0  0.107697  0.111888  0  1.022339  0
H  H24  1  0.63161978  0.64413561  0.69825260  1  0  0.107441  0  0.956534  0  0  0.114717  0  1.020654  0  0  0.117737  0  1.019218  0  0  0.107709  0.112495  0  1.021732  0
H  H25  1  0.52446726  0.29638843  0.18751526  1  0  0.124705  0  0.966441  0  0  0.128359  0  1.036974  0  0  0.132317  0  1.034794  0  0  0.110173  0.12544  0  1.038689  0
H  H26  1  0.66285068  0.89159300  0.18784670  1  0  0.124918  0  0.965618  0  0  0.128903  0  1.035904  0  0  0.132828  0  1.033747  0  0  0.110255  0.125979  0  1.037642  0
H  H27  1  0.10841241  0.33714178  0.81215439  1  0  0.124936  0  0.96557  0  0  0.128913  0  1.035866  0  0  0.132855  0  1.033691  0  0  0.110257  0.12599  0  1.037606  0
H  H28  1  0.70360535  0.47552798  0.81248416  1  0  0.124679  0  0.96643  0  0  0.128353  0  1.03695  0  0  0.132312  0  1.034768  0  0  0.110156  0.125434  0  1.038667  0
H  H29  1  0.21286741  0.57739766  0.99823396  1  0  0.0959  0  0.963791  0  0  0.103574  0  1.032007  0  0  0.10678  0  1.030391  0  0  0.097955  0.101262  0  1.033217  0
H  H30  1  0.78574925  0.42075103  0.99845542  1  0  0.097529  0  0.96239  0  0  0.104922  0  1.030843  0  0  0.108083  0  1.029308  0  0  0.098638  0.102647  0  1.031997  0
H  H31  1  0.57925466  0.21425143  0.00154784  1  0  0.097558  0  0.962304  0  0  0.104968  0  1.030741  0  0  0.108128  0  1.029208  0  0  0.09866  0.102693  0  1.031895  0
H  H32  1  0.42260449  0.78713757  0.00176537  1  0  0.095886  0  0.963866  0  0  0.103545  0  1.032094  0  0  0.106753  0  1.030478  0  0  0.097956  0.101234  0  1.033299  0
C  C33  1  0.05084316  0.37603414  0.16513279  1  0  0.007158  0  3.752599  0  0  -0.026563  0  4.01943  0  0  -0.024497  0  4.039847  0  0  0.000432  -0.027955  0  4.00566  0
C  C34  1  0.11450555  0.78933684  0.16530242  1  0  0.008459  0  3.745635  0  0  -0.024615  0  4.012189  0  0  -0.022554  0  4.032617  0  0  0.000702  -0.026004  0  3.998404  0
C  C35  1  0.21066092  0.88548984  0.83469957  1  0  0.008338  0  3.745638  0  0  -0.02476  0  4.012219  0  0  -0.022701  0  4.032648  0  0  0.000625  -0.026135  0  3.998421  0
C  C36  1  0.62396809  0.94915488  0.83487003  1  0  0.007035  0  3.752766  0  0  -0.026682  0  4.0196  0  0  -0.024618  0  4.040024  0  0  0.000358  -0.028064  0  4.005826  0
C  C37  1  0.83977783  0.22583791  0.16047626  1  0  0.173484  0  3.628421  0  0  0.113256  0  3.89163  0  0  0.127443  0  3.903163  0  0  0.146979  0.104142  0  3.883455  0
C  C38  1  0.32093062  0.93507055  0.16080659  1  0  0.172595  0  3.626788  0  0  0.112871  0  3.889993  0  0  0.127022  0  3.901562  0  0  0.14776  0.103799  0  3.881785  0
C  C39  1  0.06492622  0.67907052  0.83919608  1  0  0.17263  0  3.626932  0  0  0.112869  0  3.890149  0  0  0.127029  0  3.901713  0  0  0.147728  0.103794  0  3.881955  0
C  C40  1  0.77416103  0.16022006  0.83952080  1  0  0.173516  0  3.6284  0  0  0.113249  0  3.891595  0  0  0.127441  0  3.903132  0  0  0.146976  0.104133  0  3.883414  0
C  C41  1  0.98828311  0.46488545  0.23650255  1  0  -0.067595  0  3.671582  0  0  -0.107887  0  3.931821  0  0  -0.105997  0  3.949496  0  0  -0.002827  -0.109083  0  3.919879  0
C  C42  1  0.24825788  0.77215580  0.23685652  1  0  -0.069427  0  3.669565  0  0  -0.109543  0  3.930034  0  0  -0.107691  0  3.947701  0  0  -0.002917  -0.110692  0  3.918091  0
C  C43  1  0.22783720  0.75174339  0.76314880  1  0  -0.069209  0  3.66987  0  0  -0.109313  0  3.930287  0  0  -0.107459  0  3.947957  0  0  -0.002793  -0.110467  0  3.918343  0
C  C44  1  0.53511626  0.01171622  0.76349653  1  0  -0.067632  0  3.671677  0  0  -0.107933  0  3.931902  0  0  -0.106036  0  3.949581  0  0  -0.002814  -0.109139  0  3.919963  0
C  C45  1  0.75353997  0.40785639  0.29536347  1  0  0.204632  0  3.760483  0  0  0.198008  0  4.000674  0  0  0.205734  0  4.022267  0  0  0.108495  0.192865  0  3.986051  0
C  C46  1  0.54183572  0.88806454  0.29579278  1  0  0.202097  0  3.760926  0  0  0.196156  0  4.000941  0  0  0.203801  0  4.022617  0  0  0.107729  0.191087  0  3.986241  0
C  C47  1  0.11193193  0.45816198  0.70420717  1  0  0.201987  0  3.760632  0  0  0.196007  0  4.000693  0  0  0.203654  0  4.022371  0  0  0.107642  0.190943  0  3.985988  0
C  C48  1  0.59214368  0.24645551  0.70463229  1  0  0.204731  0  3.760665  0  0  0.19807  0  4.000845  0  0  0.205814  0  4.022419  0  0  0.108548  0.192924  0  3.986224  0
C  C49  1  0.82893015  0.49437738  0.39050542  1  0  -0.144434  0  3.700966  0  0  -0.16502  0  3.953761  0  0  -0.170251  0  3.973324  0  0  -0.085609  -0.161602  0  3.940599  0
C  C50  1  0.56176510  0.89644281  0.39092775  1  0  -0.144824  0  3.700031  0  0  -0.165766  0  3.953358  0  0  -0.170951  0  3.972947  0  0  -0.086331  -0.162379  0  3.940219  0
C  C51  1  0.10354732  0.43823444  0.60907151  1  0  -0.144802  0  3.700084  0  0  -0.165742  0  3.95342  0  0  -0.170932  0  3.97301  0  0  -0.086272  -0.162349  0  3.940271  0
C  C52  1  0.50562163  0.17106437  0.60949135  1  0  -0.144622  0  3.701074  0  0  -0.165163  0  3.953915  0  0  -0.170384  0  3.973477  0  0  -0.085663  -0.161755  0  3.940767  0
C  C53  1  0.73329461  0.53771611  0.45304650  1  0  -0.041611  0  3.765646  0  0  -0.066067  0  4.014344  0  0  -0.064437  0  4.034983  0  0  -0.077961  -0.066824  0  4.000145  0
C  C54  1  0.72001608  0.91524288  0.45334786  1  0  -0.043606  0  3.762135  0  0  -0.06737  0  4.011388  0  0  -0.065741  0  4.032006  0  0  -0.078429  -0.068131  0  3.997211  0
C  C55  1  0.08474900  0.27998105  0.54665055  1  0  -0.043572  0  3.762123  0  0  -0.067374  0  4.01135  0  0  -0.065752  0  4.031975  0  0  -0.07847  -0.06814  0  3.997169  0
C  C56  1  0.46228668  0.26670801  0.54695282  1  0  -0.041546  0  3.76546  0  0  -0.066031  0  4.014125  0  0  -0.064403  0  4.034763  0  0  -0.077952  -0.066779  0  3.999918  0
C  C57  1  0.56353857  0.49254261  0.41995672  1  0  -0.13479  0  3.777884  0  0  -0.10935  0  4.023611  0  0  -0.117817  0  4.048183  0  0  -0.028305  -0.103757  0  4.007009  0
C  C58  1  0.85658867  0.92720663  0.42013417  1  0  -0.134603  0  3.777086  0  0  -0.110978  0  4.025261  0  0  -0.119456  0  4.049869  0  0  -0.02909  -0.105369  0  4.008634  0
C  C59  1  0.07278663  0.14340419  0.57986502  1  0  -0.13467  0  3.777219  0  0  -0.110986  0  4.025318  0  0  -0.119461  0  4.049925  0  0  -0.029101  -0.105384  0  4.008704  0
C  C60  1  0.50746342  0.43645961  0.58004251  1  0  -0.13484  0  3.777871  0  0  -0.109337  0  4.023535  0  0  -0.117802  0  4.048101  0  0  -0.028229  -0.103746  0  4.006926  0
C  C61  1  0.48852046  0.40229485  0.32571611  1  0  -0.049016  0  3.742987  0  0  -0.071197  0  3.987047  0  0  -0.069366  0  4.007162  0  0  -0.080158  -0.072155  0  3.973357  0
C  C62  1  0.83718264  0.92348525  0.32591318  1  0  -0.046849  0  3.744445  0  0  -0.068244  0  3.988957  0  0  -0.066395  0  4.009066  0  0  -0.079653  -0.069182  0  3.975278  0
C  C63  1  0.07651267  0.16281341  0.67408525  1  0  -0.046879  0  3.744759  0  0  -0.068301  0  3.989264  0  0  -0.066455  0  4.009379  0  0  -0.079676  -0.069254  0  3.97558  0
C  C64  1  0.59770599  0.51148277  0.67428439  1  0  -0.048971  0  3.742863  0  0  -0.07119  0  3.986901  0  0  -0.06936  0  4.007017  0  0  -0.080168  -0.072133  0  3.97322  0
C  C65  1  0.58372496  0.36074326  0.26226626  1  0  -0.142616  0  3.683638  0  0  -0.161409  0  3.9337  0  0  -0.167647  0  3.954469  0  0  -0.084033  -0.157384  0  3.919894  0
C  C66  1  0.67847294  0.90197663  0.26259979  1  0  -0.142762  0  3.68293  0  0  -0.161901  0  3.932415  0  0  -0.16809  0  3.953241  0  0  -0.083548  -0.15788  0  3.918561  0
C  C67  1  0.09802299  0.32151761  0.73739751  1  0  -0.142679  0  3.682823  0  0  -0.16182  0  3.932347  0  0  -0.168024  0  3.953161  0  0  -0.083489  -0.157807  0  3.918508  0
C  C68  1  0.63925408  0.41626844  0.73773147  1  0  -0.142682  0  3.683675  0  0  -0.161491  0  3.933774  0  0  -0.167732  0  3.95454  0  0  -0.084066  -0.157465  0  3.919966  0
C  C69  1  0.25815405  0.25801790  0.99981491  1  0  0.618355  0  3.981236  0  0  0.57276  0  4.274231  0  0  0.606661  0  4.265118  0  0  0.183707  0.549795  0  4.279511  0
C  C70  1  0.74198317  0.74184802  0.00018486  1  0  0.618283  0  3.981456  0  0  0.57268  0  4.274439  0  0  0.606596  0  4.265332  0  0  0.183699  0.549725  0  4.27971  0
C  C71  1  0.38325075  0.38301974  0.99985318  1  0  -0.064694  0  3.772895  0  0  -0.040174  0  4.002331  0  0  -0.045536  0  4.022615  0  0  -0.025925  -0.036775  0  3.988722  0
C  C72  1  0.61698252  0.61675349  0.00014775  1  0  -0.064792  0  3.77302  0  0  -0.040219  0  4.002387  0  0  -0.045637  0  4.022744  0  0  -0.025972  -0.036824  0  3.988779  0
C  C73  1  0.33897805  0.54417800  0.99898308  1  0  -0.089637  0  3.755036  0  0  -0.112447  0  4.006432  0  0  -0.113347  0  4.026475  0  0  -0.097389  -0.11174  0  3.992899  0
C  C74  1  0.66033678  0.45465189  0.99914050  1  0  -0.092101  0  3.756489  0  0  -0.114803  0  4.008078  0  0  -0.115667  0  4.028091  0  0  -0.0983  -0.114108  0  3.994581  0
C  C75  1  0.54535353  0.33966549  0.00086177  1  0  -0.092182  0  3.756425  0  0  -0.114882  0  4.008029  0  0  -0.115763  0  4.028023  0  0  -0.098336  -0.114191  0  3.994533  0
C  C76  1  0.45582617  0.66102725  0.00101780  1  0  -0.089568  0  3.755093  0  0  -0.112382  0  4.006469  0  0  -0.113267  0  4.026531  0  0  -0.097338  -0.111678  0  3.992935  0
S  S77  1  0.44238267  0.55762873  0.50000142  1  0  1.068468  0  5.253636  0  0  0.99685  0  5.743104  0  0  1.037074  0  5.729948  0  0  0.471238  0.968468  0  5.752766  0
S  S78  1  0.05791282  0.94208343  0.49999547  1  0  1.066263  0  5.254874  0  0  0.994943  0  5.74538  0  0  1.035205  0  5.732159  0  0  0.470701  0.966561  0  5.755026  0
N  N79  1  0.95804883  0.22740842  0.11913617  1  0  -0.352693  0  3.232612  0  0  -0.278105  0  3.508709  0  0  -0.298854  0  3.526968  0  0  -0.344194  -0.263932  0  3.495841  0
N  N80  1  0.16143218  0.89188881  0.11929921  1  0  -0.351818  0  3.228522  0  0  -0.277745  0  3.504843  0  0  -0.298495  0  3.523103  0  0  -0.344241  -0.263565  0  3.491961  0
N  N81  1  0.10810467  0.83857066  0.88070461  1  0  -0.351854  0  3.228546  0  0  -0.277706  0  3.504834  0  0  -0.298458  0  3.523091  0  0  -0.344202  -0.26353  0  3.491963  0
N  N82  1  0.77258975  0.04194927  0.88086334  1  0  -0.352618  0  3.2326  0  0  -0.278071  0  3.508749  0  0  -0.298821  0  3.527012  0  0  -0.344165  -0.263901  0  3.495883  0
N  N83  1  0.85340518  0.36847054  0.23278734  1  0  -0.097318  0  3.61053  0  0  -0.007436  0  3.820622  0  0  -0.023132  0  3.845645  0  0  -0.228316  0.003046  0  3.803382  0
N  N84  1  0.37942155  0.86499352  0.23323958  1  0  -0.093306  0  3.607256  0  0  -0.004206  0  3.817744  0  0  -0.019829  0  3.842743  0  0  -0.227167  0.006193  0  3.800578  0
N  N85  1  0.13500079  0.62057864  0.76676183  1  0  -0.093292  0  3.607226  0  0  -0.004139  0  3.817656  0  0  -0.01977  0  3.842666  0  0  -0.227082  0.006258  0  3.80049  0
N  N86  1  0.63152909  0.14658966  0.76720946  1  0  -0.097443  0  3.610727  0  0  -0.007456  0  3.820728  0  0  -0.023177  0  3.845776  0  0  -0.228342  0.003046  0  3.803463  0
O  O87  1  0.49103563  0.72995134  0.55356968  1  0  -0.584506  0  1.942924  0  0  -0.542608  0  2.192344  0  0  -0.562276  0  2.181648  0  0  -0.314514  -0.528603  0  2.199229  0
O  O88  1  0.06304904  0.82353303  0.55374060  1  0  -0.584802  0  1.942158  0  0  -0.542349  0  2.191275  0  0  -0.562014  0  2.180574  0  0  -0.314637  -0.528388  0  2.198229  0
O  O89  1  0.17645332  0.93692526  0.44626434  1  0  -0.584686  0  1.942832  0  0  -0.54226  0  2.191964  0  0  -0.561922  0  2.181263  0  0  -0.314522  -0.5283  0  2.198912  0
O  O90  1  0.27005368  0.50897020  0.44643339  1  0  -0.584549  0  1.942513  0  0  -0.54265  0  2.191931  0  0  -0.562311  0  2.181225  0  0  -0.314579  -0.52865  0  2.198829  0
O  O91  1  0.30754141  0.16005172  0.05046834  1  0  -0.651512  0  1.934864  0  0  -0.594937  0  2.168745  0  0  -0.62074  0  2.158923  0  0  -0.33733  -0.57656  0  2.174678  0
O  O92  1  0.74312334  0.89042115  0.05081939  1  0  -0.651655  0  1.935084  0  0  -0.595632  0  2.169526  0  0  -0.621411  0  2.159725  0  0  -0.337977  -0.577273  0  2.175445  0
O  O93  1  0.10958499  0.25687848  0.94917860  1  0  -0.651718  0  1.935014  0  0  -0.59568  0  2.16944  0  0  -0.621461  0  2.159644  0  0  -0.337969  -0.577321  0  2.175364  0
O  O94  1  0.83994877  0.69246058  0.94953252  1  0  -0.651462  0  1.934943  0  0  -0.594885  0  2.16883  0  0  -0.620687  0  2.159001  0  0  -0.3373  -0.576517  0  2.174765  0
