# generated using pymatgen
data_NdH9C13N2O7
_symmetry_space_group_name_H-M   'P 1'
_cell_length_a   9.34789956
_cell_length_b   10.58101669
_cell_length_c   14.33700000
_cell_angle_alpha   90.00000000
_cell_angle_beta   90.00000000
_cell_angle_gamma   95.35818320
_symmetry_Int_Tables_number   1
_chemical_formula_structural   NdH9C13N2O7
_chemical_formula_sum   'Nd4 H36 C52 N8 O28'
_cell_volume   1411.88025140
_cell_formula_units_Z   4
loop_
 _symmetry_equiv_pos_site_id
 _symmetry_equiv_pos_as_xyz
  1  'x, y, z'
loop_
 _atom_site_type_symbol
 _atom_site_label
 _atom_site_symmetry_multiplicity
 _atom_site_fract_x
 _atom_site_fract_y
 _atom_site_fract_z
 _atom_site_occupancy
 _atom_site_pbe_bader_charge
 _atom_site_pbe_bader_spin_density
 _atom_site_pbe_cm5_charge
 _atom_site_pbe_ddec_charge
 _atom_site_pbe_ddec_spin_density
 _atom_site_pbe_ddec_sum_bond_order
 _atom_site_pbe_magmom
Nd  Nd0  1  0.62481663  0.46857165  0.86604032  1  2.264963  0  1.494176  2.110835  0  2.172061  0
Nd  Nd1  1  0.37518422  0.03142922  0.36604171  1  2.264959  0  1.494152  2.110843  0  2.172209  0
Nd  Nd2  1  0.37518374  0.53142819  0.13395899  1  2.264989  0  1.49415  2.110831  0  2.172186  0
Nd  Nd3  1  0.62481625  0.96857156  0.63395899  1  2.264905  0  1.494189  2.110837  0  2.17201  0
H  H4  1  0.53313183  0.25932573  0.72507428  1  0.630135  0  0.308887  0.402138  0  0.923795  0
H  H5  1  0.46686891  0.24067418  0.22507428  1  0.630115  0  0.308884  0.402145  0  0.923785  0
H  H6  1  0.46686854  0.74067410  0.27492572  1  0.630085  0  0.308877  0.402131  0  0.923804  0
H  H7  1  0.53313156  0.75932660  0.77492572  1  0.630095  0  0.308891  0.402149  0  0.923782  0
H  H8  1  0.44434156  0.37351510  0.68444933  1  0.654951  0  0.284056  0.348242  0  1.013306  0
H  H9  1  0.55565909  0.12648387  0.18444933  1  0.654946  0  0.284067  0.348278  0  1.013246  0
H  H10  1  0.55565871  0.62648379  0.31555067  1  0.65494  0  0.284075  0.348285  0  1.013238  0
H  H11  1  0.44434128  0.87351596  0.81555067  1  0.654852  0  0.284068  0.348261  0  1.01327  0
H  H12  1  0.04588203  0.77092532  0.66304318  1  0.102683  0  0.112585  0.121559  0  1.004539  0
H  H13  1  0.95411796  0.72907443  0.16304387  1  0.102691  0  0.112584  0.121556  0  1.004551  0
H  H14  1  0.95411844  0.22907546  0.33695682  1  0.102691  0  0.112584  0.121554  0  1.004542  0
H  H15  1  0.04588134  0.27092540  0.83695682  1  0.102691  0  0.112587  0.121563  0  1.004519  0
H  H16  1  0.27000502  0.70260972  0.74002650  1  0.133738  0  0.118738  0.124623  0  1.002889  0
H  H17  1  0.72999615  0.79739099  0.24002720  1  0.133775  0  0.118738  0.124641  0  1.002873  0
H  H18  1  0.72999555  0.29739202  0.25997350  1  0.133764  0  0.118733  0.124637  0  1.002881  0
H  H19  1  0.27000422  0.20260885  0.75997350  1  0.133743  0  0.118724  0.124634  0  1.002894  0
H  H20  1  0.99112915  0.46689434  0.92246495  1  0.105296  0  0.125956  0.092635  0  1.00965  0
H  H21  1  0.00887169  0.03310652  0.42246495  1  0.105252  0  0.125929  0.092592  0  1.009697  0
H  H22  1  0.00887025  0.53310644  0.07753505  1  0.105185  0  0.125948  0.092606  0  1.009628  0
H  H23  1  0.99112985  0.96689426  0.57753435  1  0.105209  0  0.125957  0.092617  0  1.009605  0
H  H24  1  0.83530774  0.87952273  0.90749180  1  0.092134  0  0.114961  0.118388  0  0.982001  0
H  H25  1  0.16469149  0.62047987  0.40749111  1  0.092111  0  0.114955  0.118408  0  0.981988  0
H  H26  1  0.16469079  0.12047995  0.09250959  1  0.092101  0  0.114952  0.118416  0  0.981997  0
H  H27  1  0.83530801  0.37952186  0.59250820  1  0.092129  0  0.114957  0.118387  0  0.982004  0
H  H28  1  0.92355931  0.10716786  0.94723513  1  0.070339  0  0.103704  0.103895  0  1.0289  0
H  H29  1  0.07644076  0.39283586  0.44723373  1  0.070336  0  0.103724  0.10395  0  1.028916  0
H  H30  1  0.07644039  0.89283578  0.05276697  1  0.070335  0  0.103698  0.103905  0  1.028889  0
H  H31  1  0.92355777  0.60716683  0.55276557  1  0.070354  0  0.103673  0.10385  0  1.028886  0
H  H32  1  0.79322136  0.21830732  0.06855897  1  0.08902  0  0.112011  0.075152  0  1.038237  0
H  H33  1  0.20677637  0.28169449  0.56855618  1  0.089056  0  0.112032  0.075165  0  1.038254  0
H  H34  1  0.20677600  0.78169441  0.93144451  1  0.089045  0  0.112033  0.075165  0  1.038274  0
H  H35  1  0.79322089  0.71830629  0.43144172  1  0.089036  0  0.112017  0.075131  0  1.038285  0
H  H36  1  0.51756768  0.89681687  0.12355025  1  0.158396  0  0.124654  0.104004  0  1.029255  0
H  H37  1  0.48243232  0.60318288  0.62354886  1  0.158415  0  0.124644  0.103978  0  1.029276  0
H  H38  1  0.48243269  0.10318296  0.87645184  1  0.158422  0  0.124657  0.103978  0  1.029306  0
H  H39  1  0.51756699  0.39681696  0.37644905  1  0.158388  0  0.124643  0.103988  0  1.029246  0
C  C40  1  0.76645165  0.68996209  0.71131966  1  1.625281  0  0.232343  0.589767  0  4.213794  0
C  C41  1  0.23354728  0.81003767  0.21131966  1  1.625272  0  0.232301  0.589679  0  4.213918  0
C  C42  1  0.23354628  0.31003490  0.28868104  1  1.625328  0  0.232288  0.589707  0  4.213918  0
C  C43  1  0.76644948  0.18995837  0.78867964  1  1.625263  0  0.232412  0.589823  0  4.213607  0
C  C44  1  0.90538773  0.64965181  0.75037804  1  0.469276  0  0.120054  0.106504  0  3.971795  0
C  C45  1  0.09461237  0.85034890  0.25037804  1  0.469272  0  0.120085  0.106621  0  3.971774  0
C  C46  1  0.09461244  0.35034613  0.24962056  1  0.469219  0  0.120081  0.106506  0  3.971818  0
C  C47  1  0.90538683  0.14964999  0.74962196  1  0.469293  0  0.120045  0.106449  0  3.971642  0
C  C48  1  0.03984835  0.70154562  0.71928995  1  0.004655  0  -0.075164  -0.129788  0  3.931541  0
C  C49  1  0.96015271  0.79845413  0.21928995  1  0.004651  0  -0.075188  -0.129842  0  3.931537  0
C  C50  1  0.96015095  0.29845421  0.28071005  1  0.004626  0  -0.075141  -0.129763  0  3.931492  0
C  C51  1  0.03984863  0.20154476  0.78071005  1  0.00466  0  -0.07516  -0.129762  0  3.931449  0
C  C52  1  0.16293290  0.66457666  0.76228779  1  -0.093755  0  -0.055073  -0.038006  0  3.904877  0
C  C53  1  0.83706827  0.83542405  0.26228848  1  -0.093755  0  -0.055053  -0.037947  0  3.904817  0
C  C54  1  0.83706767  0.33542508  0.23771152  1  -0.093734  0  -0.055074  -0.037975  0  3.904831  0
C  C55  1  0.16293327  0.16457674  0.73771152  1  -0.093718  0  -0.055096  -0.03807  0  3.904862  0
C  C56  1  0.14709363  0.58218007  0.83877310  1  0.016792  0  -0.004244  -0.072256  0  3.921591  0
C  C57  1  0.85290432  0.91782063  0.33877310  1  0.016875  0  -0.004265  -0.072382  0  3.921602  0
C  C58  1  0.85290577  0.41782071  0.16122690  1  0.016868  0  -0.004309  -0.072453  0  3.921719  0
C  C59  1  0.14709391  0.08217921  0.66122550  1  0.01678  0  -0.004261  -0.072287  0  3.921641  0
C  C60  1  0.00834762  0.53271631  0.86408663  1  0.494481  0  0.065325  0.094281  0  3.931159  0
C  C61  1  0.99165258  0.96728535  0.36408733  1  0.494489  0  0.065265  0.094267  0  3.931206  0
C  C62  1  0.99165265  0.46728258  0.13591267  1  0.494476  0  0.0653  0.094294  0  3.931237  0
C  C63  1  0.00834819  0.03271829  0.63591267  1  0.494662  0  0.065304  0.094279  0  3.931307  0
C  C64  1  0.27426548  0.55208073  0.89637790  1  1.626362  0  0.234982  0.638909  0  4.194967  0
C  C65  1  0.72573763  0.94791808  0.39638348  1  1.62605  0  0.235115  0.639102  0  4.194979  0
C  C66  1  0.72573683  0.44791721  0.10361791  1  1.626282  0  0.235055  0.639029  0  4.194952  0
C  C67  1  0.27426906  0.05208081  0.60362349  1  1.626353  0  0.235009  0.638863  0  4.195004  0
C  C68  1  0.61536627  0.73774096  0.99108112  1  1.589623  0  0.231813  0.649601  0  4.18787  0
C  C69  1  0.38464229  0.76225879  0.49108809  1  1.589737  0  0.231799  0.649583  0  4.187969  0
C  C70  1  0.38464159  0.26225888  0.00891400  1  1.589784  0  0.231795  0.64956  0  4.188004  0
C  C71  1  0.61536868  0.23774009  0.50892028  1  1.589636  0  0.231863  0.649687  0  4.187796  0
C  C72  1  0.67050192  0.87212628  0.01264002  1  0.003524  0  -0.010673  -0.085904  0  3.94945  0
C  C73  1  0.32949818  0.62787442  0.51263793  1  0.003376  0  -0.010738  -0.086018  0  3.949586  0
C  C74  1  0.32949855  0.12787451  0.98736207  1  0.003359  0  -0.010721  -0.08597  0  3.949603  0
C  C75  1  0.67050122  0.37212636  0.48735928  1  0.003587  0  -0.010672  -0.08603  0  3.949492  0
C  C76  1  0.78591340  0.93198514  0.96239311  1  -0.070941  0  -0.057349  -0.040365  0  3.932462  0
C  C77  1  0.21409011  0.56801747  0.46239171  1  -0.070848  0  -0.057374  -0.040382  0  3.932494  0
C  C78  1  0.21409038  0.06801660  0.03760898  1  -0.070841  0  -0.057362  -0.040415  0  3.932507  0
C  C79  1  0.78591260  0.43198427  0.53760689  1  -0.070804  0  -0.057354  -0.040359  0  3.932427  0
C  C80  1  0.83337631  0.05705861  0.98377624  1  0.035589  0  -0.086792  -0.132307  0  4.002529  0
C  C81  1  0.16662249  0.44294321  0.48377345  1  0.035488  0  -0.086728  -0.132294  0  4.002501  0
C  C82  1  0.16662319  0.94294313  0.01622655  1  0.03548  0  -0.08672  -0.132237  0  4.00248  0
C  C83  1  0.83337604  0.55705948  0.51622306  1  0.035902  0  -0.086773  -0.132244  0  4.0025  0
C  C84  1  0.76140764  0.11913299  0.05255005  1  0.444514  0  0.053244  0.101908  0  3.941476  0
C  C85  1  0.23859321  0.38086788  0.55254865  1  0.444547  0  0.053182  0.101831  0  3.941554  0
C  C86  1  0.23859283  0.88086780  0.94745205  1  0.444531  0  0.053169  0.101796  0  3.941629  0
C  C87  1  0.76140522  0.61913385  0.44744926  1  0.444111  0  0.053219  0.101864  0  3.941578  0
C  C88  1  0.60715456  0.94061845  0.08232824  1  0.491419  0  0.059038  0.077528  0  3.897095  0
C  C89  1  0.39284864  0.55938131  0.58232754  1  0.491346  0  0.059067  0.077591  0  3.897019  0
C  C90  1  0.39284892  0.05938044  0.91767315  1  0.491351  0  0.059027  0.077512  0  3.897062  0
C  C91  1  0.60715387  0.44061853  0.41767176  1  0.49134  0  0.059063  0.077582  0  3.897031  0
N  N92  1  0.89066041  0.56287735  0.81945177  1  -1.228583  0  -0.362003  -0.336875  0  3.493623  0
N  N93  1  0.10934066  0.93712241  0.31945247  1  -1.228579  0  -0.361919  -0.336833  0  3.493573  0
N  N94  1  0.10933879  0.43712154  0.18054753  1  -1.22857  0  -0.361955  -0.336787  0  3.493562  0
N  N95  1  0.89066175  0.06287648  0.68054753  1  -1.228798  0  -0.36197  -0.336786  0  3.493605  0
N  N96  1  0.65072166  0.06244553  0.10139848  1  -1.22319  0  -0.300161  -0.231217  0  3.396442  0
N  N97  1  0.34927684  0.43755344  0.60139639  1  -1.223174  0  -0.300133  -0.231167  0  3.396504  0
N  N98  1  0.34927647  0.93755336  0.89860431  1  -1.223066  0  -0.300097  -0.231086  0  3.396448  0
N  N99  1  0.65072139  0.56244640  0.39860152  1  -1.223208  0  -0.300138  -0.231127  0  3.396411  0
O  O100  1  0.65191835  0.62100385  0.73197949  1  -1.183388  0  -0.357881  -0.623112  0  2.301474  0
O  O101  1  0.34808282  0.87899686  0.23197949  1  -1.183368  0  -0.357877  -0.623113  0  2.301481  0
O  O102  1  0.34808135  0.37899978  0.26802190  1  -1.183317  0  -0.357875  -0.623095  0  2.301339  0
O  O103  1  0.65192006  0.12099634  0.76802190  1  -1.183422  0  -0.35793  -0.623136  0  2.301515  0
O  O104  1  0.77365988  0.79061439  0.66300691  1  -1.204047  0  -0.378099  -0.647398  0  2.276403  0
O  O105  1  0.22634022  0.70938632  0.16300691  1  -1.204046  0  -0.378086  -0.647356  0  2.276446  0
O  O106  1  0.22634156  0.20938545  0.33699379  1  -1.204082  0  -0.378089  -0.647353  0  2.276625  0
O  O107  1  0.77365685  0.29061257  0.83699449  1  -1.203965  0  -0.378108  -0.647387  0  2.276295  0
O  O108  1  0.25056005  0.53200533  0.98262468  1  -1.197433  0  -0.377927  -0.661753  0  2.281565  0
O  O109  1  0.74943985  0.96799348  0.48261910  1  -1.197496  0  -0.377942  -0.661766  0  2.281914  0
O  O110  1  0.74943915  0.46799356  0.01737881  1  -1.19747  0  -0.377885  -0.661704  0  2.281873  0
O  O111  1  0.25056032  0.03200446  0.51737463  1  -1.197417  0  -0.377956  -0.661751  0  2.281512  0
O  O112  1  0.39361404  0.55268635  0.85452396  1  -1.194078  0  -0.387569  -0.640473  0  2.282335  0
O  O113  1  0.60638080  0.94731531  0.35452187  1  -1.193828  0  -0.387682  -0.6406  0  2.282026  0
O  O114  1  0.60638108  0.44731444  0.14547744  1  -1.19406  0  -0.387667  -0.640565  0  2.282054  0
O  O115  1  0.39361228  0.05268643  0.64547534  1  -1.1941  0  -0.387547  -0.640409  0  2.28243  0
O  O116  1  0.66816145  0.68841673  0.91990933  1  -1.193108  0  -0.384703  -0.653509  0  2.327092  0
O  O117  1  0.33183651  0.81158397  0.41990793  1  -1.19294  0  -0.384798  -0.653657  0  2.326733  0
O  O118  1  0.33183591  0.31158500  0.08009277  1  -1.193014  0  -0.384823  -0.653663  0  2.326807  0
O  O119  1  0.66816085  0.18841776  0.58008998  1  -1.193037  0  -0.384736  -0.65356  0  2.327106  0
O  O120  1  0.52074551  0.68259791  0.04445770  1  -1.209047  0  -0.407398  -0.702781  0  2.348271  0
O  O121  1  0.47925118  0.81740090  0.54445700  1  -1.209157  0  -0.407288  -0.702585  0  2.348653  0
O  O122  1  0.47925155  0.31740098  0.95554230  1  -1.209123  0  -0.407266  -0.702568  0  2.348601  0
O  O123  1  0.52074364  0.18259704  0.45554161  1  -1.209051  0  -0.407421  -0.702776  0  2.348205  0
O  O124  1  0.50425475  0.34419792  0.73846132  1  -1.305538  0  -0.651452  -0.864232  0  2.127243  0
O  O125  1  0.49574493  0.15580199  0.23846202  1  -1.305579  0  -0.651479  -0.864281  0  2.127203  0
O  O126  1  0.49574465  0.65580286  0.26153798  1  -1.30555  0  -0.651476  -0.864278  0  2.127215  0
O  O127  1  0.50425438  0.84419784  0.76153798  1  -1.305556  0  -0.651474  -0.864277  0  2.127215  0
