# generated using pymatgen
data_MnH36C30(NO)6
_symmetry_space_group_name_H-M   'P 1'
_cell_length_a   11.87315582
_cell_length_b   16.21570349
_cell_length_c   16.21778589
_cell_angle_alpha   114.26280350
_cell_angle_beta   104.10940797
_cell_angle_gamma   104.12533484
_symmetry_Int_Tables_number   1
_chemical_formula_structural   MnH36C30(NO)6
_chemical_formula_sum   'Mn3 H108 C90 N18 O18'
_cell_volume   2542.94834847
_cell_formula_units_Z   3
loop_
 _symmetry_equiv_pos_site_id
 _symmetry_equiv_pos_as_xyz
  1  'x, y, z'
loop_
 _atom_site_type_symbol
 _atom_site_label
 _atom_site_symmetry_multiplicity
 _atom_site_fract_x
 _atom_site_fract_y
 _atom_site_fract_z
 _atom_site_occupancy
 _atom_site_pbe_bader_charge
 _atom_site_pbe_bader_spin_density
 _atom_site_pbe_cm5_charge
 _atom_site_pbe_ddec_charge
 _atom_site_pbe_ddec_spin_density
 _atom_site_pbe_ddec_sum_bond_order
 _atom_site_pbe_magmom
Mn  Mn0  1  0.49999469  0.50000287  0.00000180  1  1.497075  4.462391  0.637652  0.843815  4.61239  2.501556  4.388
Mn  Mn1  1  0.99999614  0.50000458  0.50000634  1  1.501101  4.461039  0.638208  0.844869  4.611498  2.504068  4.387
Mn  Mn2  1  0.50000024  0.99999779  0.49999293  1  1.498573  4.461397  0.637957  0.843656  4.611448  2.505482  4.387
H  H3  1  0.65695208  0.35686091  0.73103759  1  0.571689  0.000251  0.304346  0.286744  0.000315  1.045158  0.0
H  H4  1  0.39751940  0.07751662  0.71368228  1  0.134898  0.000257  0.110789  0.116642  -0.000309  1.02795  0.0
H  H5  1  0.36866727  0.28930799  0.96858959  1  0.156631  0.001892  0.118964  0.098727  0.001575  1.054833  0.001
H  H6  1  0.35512580  0.09673596  0.92715056  1  0.034665  0.000291  0.096909  0.090718  0.000145  0.968682  0.0
H  H7  1  0.21942275  0.10965891  0.87235391  1  0.054414  5.7e-05  0.104758  0.105844  -3.4e-05  0.962114  0.0
H  H8  1  0.19184661  0.97812888  0.70455992  1  0.014678  4.1e-05  0.089438  0.120811  1e-05  1.00251  0.0
H  H9  1  0.19131850  0.93438835  0.78820093  1  0.04178  0.000152  0.091659  0.123609  7.6e-05  0.99745  0.0
H  H10  1  0.32749834  0.96358021  0.76189671  1  0.005081  4.9e-05  0.080747  0.104179  -8e-06  1.036113  0.0
H  H11  1  0.67105128  0.50851982  0.66866526  1  0.044659  0.000344  0.096551  0.138601  0.000202  1.002842  0.0
H  H12  1  0.71728699  0.63009919  0.76697078  1  0.021562  0.000102  0.098272  0.139611  2.3e-05  0.996437  0.0
H  H13  1  0.56699680  0.53752048  0.72827645  1  0.043527  4.6e-05  0.09032  0.129892  -3.4e-05  1.020882  0.0
H  H14  1  0.91146673  0.62611047  0.86265387  1  0.060888  6.1e-05  0.099401  0.068827  7e-06  0.960292  0.0
H  H15  1  0.88538631  0.44993692  0.89580296  1  0.027313  3.1e-05  0.085613  0.115098  -1.3e-05  1.02846  0.0
H  H16  1  0.91783695  0.57140227  0.98648859  1  0.031948  0.000134  0.086604  0.116426  4e-06  1.031857  0.0
H  H17  1  0.02917386  0.54629474  0.93420475  1  0.014279  5.3e-05  0.087919  0.121184  3.1e-05  1.004784  0.0
H  H18  1  0.98923668  0.49971244  0.76295577  1  0.028552  0.000118  0.084878  0.118539  -6.6e-05  1.028533  0.0
H  H19  1  0.86270614  0.50929621  0.68846218  1  0.046058  0.000137  0.089824  0.127586  -9e-05  1.0175  0.0
H  H20  1  0.83641975  0.40923550  0.71129135  1  -0.019047  0.000118  0.087277  0.12374  4.7e-05  1.011692  0.0
H  H21  1  0.30030376  0.37451591  0.64332582  1  0.566762  0.000254  0.304472  0.286922  0.000315  1.045897  0.0
H  H22  1  0.32027049  0.63673914  0.92260977  1  0.136388  0.000258  0.110922  0.117029  -0.000306  1.027404  0.0
H  H23  1  0.07939511  0.67956191  0.71080679  1  0.174861  0.001846  0.119273  0.09889  0.001569  1.056739  0.001
H  H24  1  0.25854145  0.83088792  0.90337812  1  0.02503  0.000291  0.0971  0.090507  0.000145  0.969474  0.0
H  H25  1  0.10991823  0.76315122  0.89049857  1  0.045579  5.7e-05  0.105249  0.107097  -3.4e-05  0.960736  0.0
H  H26  1  0.21385071  0.72689410  0.02196518  1  0.035718  4e-05  0.089204  0.120457  1e-05  1.002545  0.0
H  H27  1  0.25701389  0.85429255  0.06571169  1  0.016234  0.000153  0.091484  0.123395  7.6e-05  0.997433  0.0
H  H28  1  0.36402338  0.79880498  0.03648869  1  0.011845  4.8e-05  0.080645  0.104067  -8e-06  1.035518  0.0
H  H29  1  0.16289745  0.16027493  0.49154271  1  0.052834  0.000343  0.0968  0.139346  0.000201  1.002248  0.0
H  H30  1  0.08770207  0.13710536  0.37002915  1  0.065997  9.9e-05  0.098372  0.140014  2.3e-05  0.99615  0.0
H  H31  1  0.02972922  0.19074747  0.46253731  1  0.055819  4.5e-05  0.090525  0.129894  -3.4e-05  1.019529  0.0
H  H32  1  0.28568289  0.23704057  0.37408526  1  0.046734  6.2e-05  0.099302  0.068819  7e-06  0.959797  0.0
H  H33  1  0.43568723  0.44622546  0.55058481  1  0.033332  3e-05  0.085233  0.114049  -1.3e-05  1.029008  0.0
H  H34  1  0.34684196  0.41568827  0.42922066  1  0.032276  0.000135  0.086524  0.115948  4e-06  1.033609  0.0
H  H35  1  0.48324029  0.38850664  0.45417659  1  0.025795  5.3e-05  0.087685  0.120407  3.1e-05  1.006634  0.0
H  H36  1  0.48971537  0.26347333  0.50020615  1  0.039525  0.000118  0.084394  0.116968  -6.6e-05  1.028798  0.0
H  H37  1  0.35361269  0.17924401  0.49049139  1  0.064116  0.000136  0.089892  0.127149  -9.1e-05  1.017623  0.0
H  H38  1  0.42741570  0.30205875  0.59075804  1  -0.010588  0.000117  0.087527  0.123041  4.7e-05  1.011609  0.0
H  H39  1  0.92582133  0.26888739  0.62565295  1  0.559719  0.000256  0.304556  0.286711  0.000316  1.045275  0.0
H  H40  1  0.68397045  0.28593436  0.36340347  1  0.13536  0.000257  0.1106  0.116188  -0.000309  1.027409  0.0
H  H41  1  0.40013175  0.03125266  0.32053301  1  0.183946  0.001835  0.119087  0.098658  0.001571  1.056057  0.001
H  H42  1  0.42810635  0.07244288  0.16928139  1  0.034623  0.000295  0.09707  0.090695  0.000147  0.968586  0.0
H  H43  1  0.34717261  0.12725265  0.23703293  1  0.055268  5.8e-05  0.104642  0.105325  -3.3e-05  0.962552  0.0
H  H44  1  0.48717526  0.29504302  0.27321955  1  0.045541  4e-05  0.089252  0.120885  1e-05  1.002956  0.0
H  H45  1  0.40299092  0.21131863  0.14585416  1  0.043982  0.000151  0.091549  0.123532  7.6e-05  0.997418  0.0
H  H46  1  0.56550317  0.23771204  0.20129854  1  0.031373  4.7e-05  0.080846  0.104257  -8e-06  1.036055  0.0
H  H47  1  0.00242556  0.33130306  0.83982124  1  0.047156  0.000345  0.096727  0.138872  0.000201  1.002371  0.0
H  H48  1  0.95023451  0.23288623  0.86290529  1  0.046895  0.000101  0.097974  0.1393  2.3e-05  0.996802  0.0
H  H49  1  0.83876105  0.27179982  0.80929403  1  0.049332  4.5e-05  0.091187  0.131491  -3.4e-05  1.01817  0.0
H  H50  1  0.04841443  0.13701626  0.76296452  1  0.03684  6.3e-05  0.098895  0.068194  7e-06  0.959655  0.0
H  H51  1  0.98907663  0.10416038  0.55374926  1  0.014774  3.1e-05  0.085324  0.114339  -1.3e-05  1.029083  0.0
H  H52  1  0.93074084  0.01341467  0.58439603  1  0.028606  0.000136  0.086979  0.11662  4e-06  1.031672  0.0
H  H53  1  0.09427144  0.06544687  0.61138590  1  0.022883  5.3e-05  0.087449  0.12023  3.1e-05  1.007086  0.0
H  H54  1  0.22598081  0.23663799  0.73637885  1  0.026706  0.000119  0.08486  0.118566  -6.5e-05  1.028179  0.0
H  H55  1  0.17414011  0.31122706  0.82062741  1  0.053056  0.000136  0.089333  0.126454  -8.8e-05  1.018564  0.0
H  H56  1  0.12512745  0.28861344  0.69783583  1  0.013179  0.000116  0.087484  0.123345  4.6e-05  1.012487  0.0
H  H57  1  0.34307199  0.64314432  0.26896692  1  0.571764  0.000251  0.304376  0.286761  0.000315  1.045161  0.0
H  H58  1  0.60249748  0.92248641  0.28632682  1  0.13476  0.000257  0.110758  0.116571  -0.000309  1.027982  0.0
H  H59  1  0.63131723  0.71069798  0.03140198  1  0.156584  0.001892  0.118961  0.098746  0.001575  1.054824  0.001
H  H60  1  0.64487468  0.90327074  0.07285157  1  0.034558  0.00029  0.096889  0.090737  0.000145  0.968647  0.0
H  H61  1  0.78057897  0.89034853  0.12764566  1  0.054454  5.7e-05  0.104764  0.105854  -3.4e-05  0.962137  0.0
H  H62  1  0.80815835  0.02187636  0.29544364  1  0.014653  4.2e-05  0.089427  0.120776  1e-05  1.002435  0.0
H  H63  1  0.80868509  0.06561761  0.21180207  1  0.041713  0.000152  0.091673  0.123646  7.6e-05  0.997507  0.0
H  H64  1  0.67250241  0.03642355  0.23810672  1  0.004668  4.9e-05  0.080767  0.10418  -8e-06  1.036074  0.0
H  H65  1  0.32896053  0.49148174  0.33133185  1  0.044675  0.000344  0.096559  0.138527  0.000202  1.002824  0.0
H  H66  1  0.28272396  0.36990237  0.23302679  1  0.02157  0.000102  0.098267  0.139578  2.3e-05  0.996411  0.0
H  H67  1  0.43301475  0.46248402  0.27172182  1  0.043679  4.6e-05  0.090319  0.129863  -3.4e-05  1.020797  0.0
H  H68  1  0.08854495  0.37389256  0.13734690  1  0.060631  6.1e-05  0.09941  0.068898  7e-06  0.96027  0.0
H  H69  1  0.11462126  0.55006831  0.10420106  1  0.027085  3.1e-05  0.085594  0.115078  -1.3e-05  1.028407  0.0
H  H70  1  0.08216925  0.42860370  0.01351426  1  0.032651  0.000135  0.086633  0.116435  5e-06  1.031898  0.0
H  H71  1  0.97083595  0.45370976  0.06580122  1  0.01443  5.3e-05  0.087948  0.121257  3.1e-05  1.004759  0.0
H  H72  1  0.01077449  0.50029132  0.23704768  1  0.02854  0.000118  0.084825  0.118502  -6.6e-05  1.028598  0.0
H  H73  1  0.13730540  0.49070829  0.31153917  1  0.046019  0.000138  0.089832  0.127597  -8.9e-05  1.017604  0.0
H  H74  1  0.16359156  0.59076680  0.28871090  1  -0.019143  0.000118  0.087293  0.123665  4.7e-05  1.011772  0.0
H  H75  1  0.69970588  0.62549520  0.35666927  1  0.566563  0.000254  0.304436  0.286867  0.000316  1.045867  0.0
H  H76  1  0.67972988  0.36326903  0.07737814  1  0.13624  0.000258  0.110903  0.116945  -0.000306  1.027592  0.0
H  H77  1  0.92057990  0.32043378  0.28917824  1  0.174939  0.001845  0.119335  0.098971  0.001567  1.056764  0.001
H  H78  1  0.74146228  0.16911658  0.09661752  1  0.025188  0.000291  0.097091  0.090543  0.000145  0.969465  0.0
H  H79  1  0.89008240  0.23685401  0.10949434  1  0.045545  5.7e-05  0.105261  0.107219  -3.4e-05  0.960608  0.0
H  H80  1  0.78614715  0.27309865  0.97801718  1  0.035409  4e-05  0.089223  0.120564  1e-05  1.002521  0.0
H  H81  1  0.74299002  0.14570534  0.93428188  1  0.016334  0.000153  0.091448  0.123344  7.6e-05  0.99747  0.0
H  H82  1  0.63597695  0.20118923  0.96349965  1  0.011817  4.8e-05  0.080706  0.104175  -8e-06  1.035339  0.0
H  H83  1  0.83711433  0.83973178  0.50846390  1  0.052883  0.000343  0.096771  0.13926  0.000201  1.002219  0.0
H  H84  1  0.91230590  0.86289547  0.62997437  1  0.065933  0.0001  0.098375  0.139987  2.3e-05  0.996171  0.0
H  H85  1  0.97027541  0.80925189  0.53746501  1  0.055777  4.5e-05  0.090502  0.129821  -3.4e-05  1.019535  0.0
H  H86  1  0.71432471  0.76295953  0.62591605  1  0.046759  6.2e-05  0.099332  0.068802  7e-06  0.959791  0.0
H  H87  1  0.56431266  0.55377831  0.44941662  1  0.033357  3e-05  0.085238  0.11407  -1.3e-05  1.028943  0.0
H  H88  1  0.65315509  0.58431330  0.57078059  1  0.032302  0.000135  0.086528  0.115979  4e-06  1.033621  0.0
H  H89  1  0.51676193  0.61150007  0.54582585  1  0.025731  5.3e-05  0.087685  0.120411  3.1e-05  1.006661  0.0
H  H90  1  0.51028858  0.73653337  0.49979845  1  0.039546  0.000118  0.084382  0.11691  -6.6e-05  1.028921  0.0
H  H91  1  0.64639451  0.82076049  0.50951350  1  0.063937  0.000136  0.089876  0.127175  -9e-05  1.017645  0.0
H  H92  1  0.57258766  0.69794502  0.40924586  1  -0.010522  0.000117  0.087543  0.123074  4.7e-05  1.011533  0.0
H  H93  1  0.07419169  0.73110095  0.37434758  1  0.559473  0.000256  0.304555  0.286608  0.000316  1.045174  0.0
H  H94  1  0.31602579  0.71405692  0.63660205  1  0.13516  0.000257  0.110639  0.11629  -0.000309  1.027406  0.0
H  H95  1  0.59986211  0.96874083  0.67947669  1  0.184029  0.001833  0.119119  0.098749  0.00157  1.055909  0.001
H  H96  1  0.57188926  0.92755061  0.83072245  1  0.034152  0.000294  0.097034  0.090639  0.000147  0.968526  0.0
H  H97  1  0.65282643  0.87274598  0.76297734  1  0.055191  5.8e-05  0.104659  0.105305  -3.3e-05  0.962462  0.0
H  H98  1  0.51282940  0.70495120  0.72678683  1  0.045876  4e-05  0.089209  0.120801  1e-05  1.003028  0.0
H  H99  1  0.59701484  0.78867779  0.85415394  1  0.057106  0.000151  0.091571  0.123563  7.6e-05  0.997353  0.0
H  H100  1  0.43449925  0.76228291  0.79870897  1  0.031167  4.7e-05  0.080868  0.104326  -8e-06  1.03592  0.0
H  H101  1  0.99758054  0.66869924  0.16018316  1  0.047097  0.000345  0.09675  0.138873  0.000201  1.002467  0.0
H  H102  1  0.04977072  0.76711607  0.13710019  1  0.046913  0.000101  0.097959  0.139279  2.3e-05  0.996745  0.0
H  H103  1  0.16124371  0.72819808  0.19070956  1  0.049256  4.6e-05  0.091133  0.131422  -3.4e-05  1.018127  0.0
H  H104  1  0.95160246  0.86298677  0.23704335  1  0.036655  6.3e-05  0.09894  0.068251  7e-06  0.959729  0.0
H  H105  1  0.01093143  0.89584412  0.44625887  1  0.014783  3.1e-05  0.085294  0.11432  -1.3e-05  1.029073  0.0
H  H106  1  0.06926737  0.98658836  0.41560843  1  0.028508  0.000136  0.086984  0.116613  4e-06  1.031675  0.0
H  H107  1  0.90573516  0.93455469  0.38861644  1  0.023002  5.3e-05  0.087446  0.120267  3.1e-05  1.006998  0.0
H  H108  1  0.77402429  0.76336577  0.26362413  1  0.026688  0.000119  0.084838  0.118498  -6.5e-05  1.028112  0.0
H  H109  1  0.82586759  0.68877671  0.17937727  1  0.052948  0.000136  0.089353  0.126439  -8.8e-05  1.018607  0.0
H  H110  1  0.87487654  0.71138812  0.30216913  1  0.013039  0.000116  0.087483  0.123357  4.6e-05  1.012408  0.0
C  C111  1  0.53137041  0.19439281  0.67403212  1  1.623307  0.015794  0.219459  0.579942  0.015053  4.188675  0.012
C  C112  1  0.52387120  0.32594654  0.83496905  1  0.494344  0.016347  0.131908  0.116443  0.012758  3.922259  0.01
C  C113  1  0.49517060  0.22857637  0.76272056  1  0.04786  0.005318  -0.000488  -0.086861  0.002808  3.875122  0.002
C  C114  1  0.42107176  0.15208226  0.77070290  1  -0.064296  0.006443  -0.066447  -0.11336  0.004758  3.91638  0.003
C  C115  1  0.37752640  0.17014294  0.84593358  1  -0.029422  0.004858  0.000892  0.078205  0.00347  3.956509  0.003
C  C116  1  0.40708659  0.26912231  0.91162812  1  0.507066  0.011045  0.059909  0.040417  0.009998  3.904671  0.007
C  C117  1  0.29880438  0.09115413  0.85848333  1  -0.008999  0.000482  -0.151588  -0.139251  0.000314  3.981939  0.0
C  C118  1  0.25013164  0.98625593  0.77368813  1  -0.038857  0.000172  -0.243544  -0.351995  0.000159  3.965162  0.0
C  C119  1  0.60134764  0.41841504  0.84421860  1  1.101493  0.007631  0.267256  0.362426  0.006059  4.019269  0.005
C  C120  1  0.72628657  0.52468389  0.81457950  1  0.331085  0.002161  0.090318  0.154889  0.00163  3.789393  0.001
C  C121  1  0.70149502  0.57707279  0.90801338  1  1.360876  0.007393  0.246145  0.470551  0.006159  4.039597  0.005
C  C122  1  0.66628644  0.55181242  0.73941585  1  -0.026098  0.000721  -0.23256  -0.426583  0.000592  3.887262  0.0
C  C123  1  0.86827117  0.54699850  0.83671025  1  0.008095  0.000491  -0.081765  0.058765  0.000396  3.853126  0.0
C  C124  1  0.92810322  0.52790379  0.91822798  1  -0.06503  0.000128  -0.248872  -0.399706  5.2e-05  3.939466  0.0
C  C125  1  0.88943865  0.48847427  0.74439425  1  -0.033869  0.000341  -0.25084  -0.393202  0.000187  3.898935  0.0
C  C126  1  0.33720336  0.48011487  0.80577561  1  1.610215  0.015847  0.217778  0.575688  0.014909  4.191626  0.012
C  C127  1  0.19806904  0.50933924  0.67422150  1  0.481822  0.016238  0.131464  0.111622  0.012645  3.926796  0.01
C  C128  1  0.26679683  0.53457848  0.77159956  1  0.007521  0.005278  0.000361  -0.08305  0.002792  3.873998  0.002
C  C129  1  0.26919164  0.61908186  0.84803001  1  -0.083274  0.00636  -0.067556  -0.115964  0.004674  3.916782  0.003
C  C130  1  0.20752084  0.67622570  0.82998162  1  0.033855  0.004789  0.002114  0.081239  0.003469  3.955471  0.003
C  C131  1  0.13804440  0.64280399  0.73099491  1  0.446564  0.011048  0.059296  0.037992  0.009873  3.90895  0.007
C  C132  1  0.20778830  0.76778972  0.90895705  1  0.007033  0.00048  -0.152194  -0.140664  0.000314  3.982295  0.0
C  C133  1  0.26398767  0.78791608  0.01383021  1  -0.032088  0.00017  -0.242885  -0.351048  0.000159  3.964694  0.0
C  C134  1  0.18307600  0.42603051  0.58177285  1  1.13231  0.007564  0.268517  0.366449  0.006032  4.023832  0.005
C  C135  1  0.20185791  0.29013608  0.47552670  1  0.35799  0.002135  0.090233  0.158529  0.001613  3.78527  0.001
C  C136  1  0.12469642  0.33115909  0.42315763  1  1.345159  0.007401  0.245453  0.469076  0.00614  4.038455  0.005
C  C137  1  0.11481727  0.18775075  0.44831495  1  -0.108077  0.000723  -0.233363  -0.429178  0.000587  3.885255  0.0
C  C138  1  0.32156792  0.29006543  0.45323314  1  0.004287  0.000487  -0.082674  0.056466  0.000395  3.854501  0.0
C  C139  1  0.40053688  0.39081023  0.47258470  1  -0.073305  0.00013  -0.247809  -0.397021  5.2e-05  3.942682  0.0
C  C140  1  0.40118173  0.25606843  0.51150323  1  -0.054344  0.000342  -0.249778  -0.38891  0.000186  3.897676  0.0
C  C141  1  0.85732955  0.32576389  0.52007891  1  1.624105  0.015877  0.21871  0.578705  0.015044  4.188388  0.012
C  C142  1  0.68889183  0.16489336  0.49074047  1  0.506846  0.016302  0.132151  0.113921  0.012746  3.925424  0.01
C  C143  1  0.73248681  0.23706316  0.46553724  1  -0.021301  0.005453  -0.000145  -0.085478  0.002849  3.87484  0.002
C  C144  1  0.65045499  0.22897138  0.38102107  1  -0.067198  0.006386  -0.066726  -0.113875  0.004701  3.915653  0.003
C  C145  1  0.53168312  0.15378468  0.32390348  1  0.00196  0.00487  0.002161  0.080115  0.003506  3.953408  0.003
C  C146  1  0.49551708  0.08819122  0.35727659  1  0.463122  0.011094  0.059225  0.038994  0.009939  3.905303  0.007
C  C147  1  0.44039107  0.14113853  0.23235636  1  -0.013096  0.00048  -0.151746  -0.138072  0.000313  3.980533  0.0
C  C148  1  0.47636903  0.22589135  0.21220735  1  -0.090715  0.000174  -0.243279  -0.352512  0.000159  3.96529  0.0
C  C149  1  0.75703503  0.15577607  0.57405405  1  1.11417  0.007716  0.268273  0.365693  0.006087  4.016518  0.005
C  C150  1  0.91153719  0.18540803  0.70994922  1  0.325418  0.002156  0.090155  0.154975  0.001619  3.790999  0.001
C  C151  1  0.79329660  0.09203568  0.66891546  1  1.336976  0.007466  0.2452  0.468633  0.006167  4.038746  0.005
C  C152  1  0.92684601  0.26058500  0.81231706  1  -0.062052  0.000721  -0.233085  -0.428391  0.000591  3.886715  0.0
C  C153  1  0.03125301  0.16310901  0.70992799  1  0.027978  0.000493  -0.081825  0.05965  0.0004  3.851628  0.0
C  C154  1  0.00934212  0.08162294  0.60917945  1  -0.049088  0.00013  -0.248396  -0.398578  5.3e-05  3.941299  0.0
C  C155  1  0.14487962  0.25536275  0.74382102  1  -0.064766  0.00034  -0.249916  -0.391197  0.000185  3.899999  0.0
C  C156  1  0.46862724  0.80561169  0.32597168  1  1.623804  0.015797  0.219525  0.579916  0.015057  4.189018  0.012
C  C157  1  0.47613016  0.67406016  0.16502769  1  0.493455  0.016351  0.131808  0.116302  0.012759  3.922197  0.01
C  C158  1  0.50482818  0.77142519  0.23728100  1  0.047897  0.005312  -0.000476  -0.086858  0.002804  3.875233  0.002
C  C159  1  0.57893631  0.84792224  0.22930277  1  -0.063687  0.006451  -0.066493  -0.113349  0.004764  3.916245  0.003
C  C160  1  0.62247806  0.82986302  0.15406773  1  -0.030016  0.004852  0.000882  0.078224  0.003465  3.956441  0.003
C  C161  1  0.59290298  0.73088513  0.08836680  1  0.507299  0.01105  0.059897  0.0404  0.010002  3.904838  0.007
C  C162  1  0.70119908  0.90885331  0.14151902  1  -0.008985  0.000482  -0.151643  -0.139378  0.000314  3.982032  0.0
C  C163  1  0.74987282  0.01375004  0.22631441  1  -0.038418  0.000171  -0.24354  -0.351949  0.000159  3.965201  0.0
C  C164  1  0.39865142  0.58158358  0.15577193  1  1.102127  0.007632  0.267418  0.362644  0.006061  4.019227  0.005
C  C165  1  0.27372498  0.47532060  0.18541754  1  0.332394  0.002162  0.090178  0.154528  0.001631  3.789507  0.001
C  C166  1  0.29850317  0.42292583  0.09197207  1  1.361414  0.007396  0.246212  0.47054  0.006165  4.039709  0.005
C  C167  1  0.33372451  0.44818914  0.26058111  1  -0.026205  0.000721  -0.232556  -0.426382  0.000592  3.886903  0.0
C  C168  1  0.13173964  0.45300453  0.16329099  1  0.008223  0.000491  -0.081748  0.058763  0.000396  3.853293  0.0
C  C169  1  0.07190645  0.47210218  0.08177611  1  -0.065601  0.000128  -0.248943  -0.399787  5.2e-05  3.93957  0.0
C  C170  1  0.11057252  0.51152950  0.25560796  1  -0.033937  0.000341  -0.250845  -0.393195  0.000187  3.899171  0.0
C  C171  1  0.66276370  0.51988229  0.19420243  1  1.61035  0.015859  0.217768  0.575412  0.014921  4.191777  0.012
C  C172  1  0.80191689  0.49065572  0.32576641  1  0.482566  0.016235  0.131317  0.111224  0.012643  3.92683  0.01
C  C173  1  0.73319562  0.46542602  0.22838666  1  0.007445  0.005279  0.000435  -0.082649  0.002795  3.873457  0.002
C  C174  1  0.73080602  0.38092264  0.15195591  1  -0.081876  0.006364  -0.067448  -0.115833  0.004677  3.9171  0.003
C  C175  1  0.79247298  0.32377807  0.17000577  1  0.032243  0.004787  0.002132  0.081173  0.003467  3.955684  0.003
C  C176  1  0.86194067  0.35719096  0.26899409  1  0.446592  0.01105  0.059159  0.037921  0.009876  3.908793  0.007
C  C177  1  0.79221036  0.23221331  0.09103400  1  0.007306  0.00048  -0.152265  -0.140911  0.000314  3.982398  0.0
C  C178  1  0.73601276  0.21208181  0.98615842  1  -0.031876  0.00017  -0.242918  -0.351182  0.000159  3.964674  0.0
C  C179  1  0.81690846  0.57396151  0.41821915  1  1.132886  0.007567  0.268444  0.366451  0.006036  4.023415  0.005
C  C180  1  0.79814585  0.70986328  0.52447361  1  0.358156  0.002134  0.090276  0.158541  0.001613  3.785284  0.001
C  C181  1  0.87528253  0.66882191  0.57682824  1  1.345861  0.007407  0.245412  0.469137  0.006143  4.038545  0.005
C  C182  1  0.88518612  0.81224788  0.55168685  1  -0.108024  0.000723  -0.233332  -0.428994  0.000587  3.885145  0.0
C  C183  1  0.67843471  0.70993687  0.54676694  1  0.004305  0.000487  -0.082699  0.056477  0.000394  3.854501  0.0
C  C184  1  0.59946388  0.60919353  0.52741750  1  -0.073292  0.000131  -0.247829  -0.397093  5.2e-05  3.942595  0.0
C  C185  1  0.59882200  0.74393608  0.48850104  1  -0.05424  0.000341  -0.249788  -0.388946  0.000186  3.89782  0.0
C  C186  1  0.14263930  0.67422299  0.47993223  1  1.625562  0.015867  0.218823  0.578707  0.015041  4.188468  0.012
C  C187  1  0.31111313  0.83509278  0.50926018  1  0.507119  0.016279  0.132019  0.113688  0.012727  3.925782  0.01
C  C188  1  0.26750763  0.76291931  0.53445756  1  -0.021427  0.005447  5.9e-05  -0.085242  0.002844  3.874382  0.002
C  C189  1  0.34954379  0.77101109  0.61898313  1  -0.067765  0.006389  -0.066784  -0.114054  0.004703  3.915806  0.003
C  C190  1  0.46830968  0.84620146  0.67609561  1  0.002683  0.004856  0.002235  0.080319  0.003496  3.953462  0.003
C  C191  1  0.50447769  0.91179712  0.64272931  1  0.463345  0.01109  0.059113  0.038835  0.009934  3.905128  0.007
C  C192  1  0.55960554  0.85885349  0.76764830  1  -0.012527  0.000479  -0.1517  -0.138017  0.000313  3.980285  0.0
C  C193  1  0.52363425  0.77410360  0.78780094  1  -0.104026  0.000174  -0.24334  -0.352575  0.000159  3.965321  0.0
C  C194  1  0.24297561  0.84421447  0.42595190  1  1.114043  0.007716  0.268382  0.365804  0.006086  4.016612  0.005
C  C195  1  0.08846834  0.81458619  0.29005794  1  0.325862  0.002157  0.090064  0.154872  0.00162  3.790808  0.001
C  C196  1  0.20671717  0.90796809  0.33109400  1  1.336824  0.007467  0.245207  0.468598  0.006168  4.038916  0.005
C  C197  1  0.07315949  0.73941436  0.18768480  1  -0.061967  0.00072  -0.233021  -0.428286  0.00059  3.886567  0.0
C  C198  1  0.96876114  0.83689549  0.29007938  1  0.028656  0.000492  -0.081876  0.059519  0.000399  3.852082  0.0
C  C199  1  0.99066585  0.91837789  0.39082407  1  -0.049145  0.000129  -0.248369  -0.398579  5.3e-05  3.941278  0.0
C  C200  1  0.85513215  0.74464396  0.25618559  1  -0.06475  0.000341  -0.249895  -0.391095  0.000185  3.90006  0.0
N  N201  1  0.47613401  0.34299378  0.90559790  1  -1.249374  0.053519  -0.304011  -0.242252  0.037045  3.513694  0.021
N  N202  1  0.62260574  0.50705646  0.91883058  1  -1.229332  0.051093  -0.359071  -0.481514  0.035298  3.322244  0.015
N  N203  1  0.65655908  0.42267732  0.78372284  1  -1.265228  0.009926  -0.387033  -0.341267  0.007251  3.505875  0.007
N  N204  1  0.13323654  0.56289818  0.65717291  1  -1.228123  0.053385  -0.303074  -0.238706  0.037063  3.515705  0.021
N  N205  1  0.11573926  0.41196973  0.49315450  1  -1.22451  0.051234  -0.359798  -0.483303  0.035278  3.326358  0.015
N  N206  1  0.23401784  0.36128143  0.57752634  1  -1.279095  0.009899  -0.387818  -0.344898  0.007227  3.509262  0.007
N  N207  1  0.57055294  0.09428278  0.43717938  1  -1.242548  0.053557  -0.303534  -0.240337  0.037058  3.514735  0.021
N  N208  1  0.70367168  0.08120409  0.58810349  1  -1.192413  0.050959  -0.359224  -0.481423  0.035271  3.322348  0.015
N  N209  1  0.87271201  0.21631426  0.63885618  1  -1.267918  0.009953  -0.388158  -0.34327  0.007274  3.504578  0.007
N  N210  1  0.52385817  0.65701366  0.09439256  1  -1.248851  0.053511  -0.303872  -0.242146  0.037042  3.513524  0.021
N  N211  1  0.37738387  0.49294583  0.08115299  1  -1.229795  0.051109  -0.359125  -0.481437  0.035302  3.322172  0.015
N  N212  1  0.34345201  0.57732277  0.21626984  1  -1.266812  0.009927  -0.387073  -0.341181  0.007252  3.505758  0.007
N  N213  1  0.86673787  0.43709457  0.34282068  1  -1.228363  0.053372  -0.302874  -0.238447  0.037049  3.51522  0.021
N  N214  1  0.88423471  0.58801348  0.50683816  1  -1.225258  0.051252  -0.359704  -0.483293  0.035277  3.326583  0.015
N  N215  1  0.76598205  0.63872234  0.42246954  1  -1.278857  0.0099  -0.387802  -0.344846  0.007228  3.508934  0.007
N  N216  1  0.42944477  0.90571144  0.56282021  1  -1.243049  0.053537  -0.303476  -0.240358  0.037054  3.514264  0.021
N  N217  1  0.29633869  0.91878940  0.41190546  1  -1.19251  0.050979  -0.359328  -0.48147  0.035272  3.322433  0.015
N  N218  1  0.12729699  0.78367995  0.36114666  1  -1.267883  0.009952  -0.388159  -0.342979  0.007273  3.504104  0.007
O  O219  1  0.45806341  0.10833057  0.60379685  1  -1.196867  0.052511  -0.308362  -0.542269  0.035463  2.345011  0.02
O  O220  1  0.62850992  0.24807670  0.67385679  1  -1.181579  0.014324  -0.306955  -0.534993  0.010219  2.269648  0.012
O  O221  1  0.74406065  0.66705855  0.96170125  1  -1.14816  0.004563  -0.297474  -0.477249  0.002806  2.11109  0.003
O  O222  1  0.34993493  0.49591440  0.89181018  1  -1.181704  0.052268  -0.307762  -0.541001  0.035406  2.344028  0.02
O  O223  1  0.38070901  0.42627848  0.75205689  1  -1.182594  0.014182  -0.307396  -0.53369  0.010142  2.2712  0.012
O  O224  1  0.07733709  0.29487296  0.33318637  1  -1.147579  0.004555  -0.296739  -0.476148  0.002802  2.10785  0.003
O  O225  1  0.85428006  0.39601035  0.50426537  1  -1.184279  0.052393  -0.308264  -0.541872  0.035403  2.345451  0.02
O  O226  1  0.95461801  0.32596427  0.57397868  1  -1.184984  0.014327  -0.307371  -0.5348  0.010231  2.268853  0.012
O  O227  1  0.78210375  0.03835422  0.70522874  1  -1.138723  0.004563  -0.297154  -0.476352  0.002816  2.10728  0.003
O  O228  1  0.54192096  0.89167686  0.39619036  1  -1.196988  0.052541  -0.30836  -0.542161  0.035479  2.345554  0.02
O  O229  1  0.37150014  0.75192486  0.32615974  1  -1.18172  0.014327  -0.30694  -0.534947  0.010221  2.269675  0.012
O  O230  1  0.25592846  0.33294448  0.03828685  1  -1.148144  0.004566  -0.29743  -0.477138  0.002808  2.111296  0.003
O  O231  1  0.65000625  0.50407615  0.10816730  1  -1.181994  0.052342  -0.30783  -0.540939  0.035434  2.344539  0.02
O  O232  1  0.61926447  0.57372455  0.24792163  1  -1.182911  0.014196  -0.307313  -0.533568  0.010152  2.271298  0.012
O  O233  1  0.92263324  0.70509777  0.66680792  1  -1.148563  0.00456  -0.296693  -0.476125  0.002805  2.107505  0.003
O  O234  1  0.14567062  0.60399930  0.49577469  1  -1.18523  0.052461  -0.308401  -0.541834  0.035451  2.346202  0.02
O  O235  1  0.04535782  0.67401747  0.42602112  1  -1.185252  0.014327  -0.307412  -0.534822  0.010231  2.268853  0.012
O  O236  1  0.21790623  0.96165763  0.29480063  1  -1.138932  0.004561  -0.297033  -0.476263  0.002814  2.107766  0.003
