# generated using pymatgen
data_PrAgH5C9NO9
_symmetry_space_group_name_H-M   'P 1'
_cell_length_a   9.65516317
_cell_length_b   11.16814415
_cell_length_c   13.33786831
_cell_angle_alpha   112.63609555
_cell_angle_beta   89.99797885
_cell_angle_gamma   115.60981138
_symmetry_Int_Tables_number   1
_chemical_formula_structural   PrAgH5C9NO9
_chemical_formula_sum   'Pr4 Ag4 H20 C36 N4 O36'
_cell_volume   1172.88165599
_cell_formula_units_Z   4
loop_
 _symmetry_equiv_pos_site_id
 _symmetry_equiv_pos_as_xyz
  1  'x, y, z'
loop_
 _atom_site_type_symbol
 _atom_site_label
 _atom_site_symmetry_multiplicity
 _atom_site_fract_x
 _atom_site_fract_y
 _atom_site_fract_z
 _atom_site_occupancy
 _atom_site_hle17_bader_spin_density
 _atom_site_hle17_ddec_charge
 _atom_site_hle17_ddec_spin_density
 _atom_site_hle17_ddec_sum_bond_order
 _atom_site_hle17_magmom
 _atom_site_hse06_10hf_bader_spin_density
 _atom_site_hse06_10hf_ddec_charge
 _atom_site_hse06_10hf_ddec_spin_density
 _atom_site_hse06_10hf_ddec_sum_bond_order
 _atom_site_hse06_10hf_magmom
 _atom_site_hse06_bader_spin_density
 _atom_site_hse06_ddec_charge
 _atom_site_hse06_ddec_spin_density
 _atom_site_hse06_ddec_sum_bond_order
 _atom_site_hse06_magmom
 _atom_site_pbe_bader_spin_density
 _atom_site_pbe_cm5_charge
 _atom_site_pbe_ddec_charge
 _atom_site_pbe_ddec_spin_density
 _atom_site_pbe_ddec_sum_bond_order
 _atom_site_pbe_magmom
Pr  Pr0  1  0.93179358  0.73629952  0.81658364  1  0  2.290347  0  1.601195  0  0  2.125864  0  2.06455  0  0  2.217034  0  1.92448  0  0  1.452225  2.09532  0  2.098075  0
Pr  Pr1  1  0.19564803  0.26387049  0.68350787  1  0  2.290043  0  1.601358  0  0  2.124988  0  2.065886  0  0  2.216839  0  1.924636  0  0  1.452221  2.094431  0  2.099473  0
Pr  Pr2  1  0.06821101  0.26370475  0.18341787  1  0  2.29034  0  1.601053  0  0  2.12576  0  2.064539  0  0  2.217018  0  1.92432  0  0  1.452294  2.095233  0  2.098063  0
Pr  Pr3  1  0.80435192  0.73613487  0.31649475  1  0  2.290051  0  1.60152  0  0  2.125136  0  2.06584  0  0  2.216852  0  1.924818  0  0  1.452138  2.094568  0  2.099429  0
Ag  Ag4  1  0.71428189  0.50742909  0.99541873  1  0  0.692911  0  1.219353  0  0  0.568675  0  1.638777  0  0  0.600227  0  1.589343  0  0  0.503852  0.545138  0  1.676608  0
Ag  Ag5  1  0.20690827  0.49276962  0.50461287  1  0  0.693057  0  1.218015  0  0  0.568995  0  1.636875  0  0  0.600598  0  1.587464  0  0  0.503945  0.54542  0  1.67469  0
Ag  Ag6  1  0.28571732  0.49256856  0.00458287  1  0  0.69296  0  1.219161  0  0  0.568733  0  1.638504  0  0  0.600289  0  1.589076  0  0  0.503922  0.545205  0  1.676342  0
Ag  Ag7  1  0.79308729  0.50722694  0.49538762  1  0  0.693011  0  1.218191  0  0  0.568976  0  1.637042  0  0  0.60057  0  1.587628  0  0  0.503905  0.545401  0  1.674848  0
H  H8  1  0.06788828  0.87729864  0.65278596  1  0  0.443847  0  0.857216  0  0  0.41332  0  0.920458  0  0  0.424511  0  0.904274  0  0  0.303601  0.405498  0  0.93178  0
H  H9  1  0.19052404  0.12283416  0.84726790  1  0  0.44371  0  0.857385  0  0  0.412772  0  0.921344  0  0  0.424011  0  0.905125  0  0  0.303179  0.404912  0  0.932703  0
H  H10  1  0.93211157  0.12270235  0.34721223  1  0  0.443831  0  0.857246  0  0  0.413311  0  0.920471  0  0  0.424499  0  0.904293  0  0  0.303601  0.405485  0  0.9318  0
H  H11  1  0.80947581  0.87716685  0.15272955  1  0  0.443652  0  0.857448  0  0  0.412713  0  0.921416  0  0  0.423951  0  0.905195  0  0  0.303145  0.404851  0  0.932778  0
H  H12  1  0.89134711  0.79972737  0.60656749  1  0  0.434194  0  0.864986  0  0  0.408932  0  0.920312  0  0  0.41878  0  0.905944  0  0  0.306605  0.402152  0  0.93032  0
H  H13  1  0.09143161  0.20029270  0.89344460  1  0  0.436113  0  0.862737  0  0  0.410847  0  0.917806  0  0  0.420708  0  0.903398  0  0  0.30734  0.404085  0  0.927805  0
H  H14  1  0.10865217  0.20027250  0.39343333  1  0  0.434128  0  0.864942  0  0  0.408843  0  0.920419  0  0  0.418698  0  0.90604  0  0  0.30658  0.402068  0  0.93042  0
H  H15  1  0.90856872  0.79970718  0.10655548  1  0  0.436097  0  0.862769  0  0  0.410828  0  0.917843  0  0  0.420689  0  0.903433  0  0  0.307326  0.404067  0  0.927839  0
H  H16  1  0.52023120  0.85720502  0.84589056  1  0  0.122418  0  0.910252  0  0  0.13425  0  0.967114  0  0  0.137974  0  0.96344  0  0  0.120448  0.131521  0  0.969595  0
H  H17  1  0.66336074  0.14301484  0.65425703  1  0  0.122883  0  0.909759  0  0  0.133857  0  0.967656  0  0  0.137653  0  0.963914  0  0  0.120291  0.131096  0  0.97014  0
H  H18  1  0.47977266  0.14279158  0.15410695  1  0  0.122389  0  0.91031  0  0  0.134221  0  0.967171  0  0  0.137943  0  0.963498  0  0  0.120431  0.131494  0  0.969646  0
H  H19  1  0.33663281  0.85698392  0.34574493  1  0  0.122894  0  0.909688  0  0  0.133802  0  0.967666  0  0  0.137597  0  0.963929  0  0  0.120311  0.131047  0  0.970143  0
H  H20  1  0.88078613  0.30636765  0.95630532  1  0  0.102036  0  0.94618  0  0  0.106619  0  1.016955  0  0  0.110563  0  1.0116  0  0  0.126658  0.103854  0  1.020675  0
H  H21  1  0.57439362  0.69365013  0.54358294  1  0  0.101365  0  0.945283  0  0  0.106113  0  1.016177  0  0  0.110097  0  1.010757  0  0  0.126238  0.103268  0  1.019992  0
H  H22  1  0.11921421  0.69363225  0.04369177  1  0  0.102065  0  0.946162  0  0  0.106625  0  1.016952  0  0  0.110569  0  1.011599  0  0  0.126651  0.103872  0  1.020652  0
H  H23  1  0.42560250  0.30634755  0.45641567  1  0  0.101371  0  0.945369  0  0  0.106127  0  1.016247  0  0  0.110093  0  1.010849  0  0  0.126247  0.103289  0  1.020067  0
H  H24  1  0.41649015  0.21844942  0.92508590  1  0  0.09305  0  0.945546  0  0  0.101317  0  1.013286  0  0  0.104935  0  1.008514  0  0  0.126686  0.098951  0  1.016027  0
H  H25  1  0.19824737  0.78188803  0.57491784  1  0  0.093358  0  0.945383  0  0  0.102019  0  1.012593  0  0  0.105625  0  1.0078  0  0  0.126959  0.099665  0  1.015355  0
H  H26  1  0.58350744  0.78154500  0.07490939  1  0  0.093065  0  0.945651  0  0  0.101312  0  1.013419  0  0  0.104925  0  1.00865  0  0  0.126696  0.098947  0  1.016153  0
H  H27  1  0.80174974  0.21810748  0.42507782  1  0  0.093332  0  0.945346  0  0  0.101962  0  1.01262  0  0  0.105569  0  1.007824  0  0  0.12692  0.099608  0  1.015377  0
C  C28  1  0.27472181  0.92221000  0.85176593  1  0  0.635938  0  3.961117  0  0  0.58636  0  4.254441  0  0  0.618856  0  4.25467  0  0  0.195615  0.564259  0  4.256137  0
C  C29  1  0.35282334  0.07813776  0.64837972  1  0  0.633265  0  3.966197  0  0  0.583778  0  4.259776  0  0  0.616259  0  4.26016  0  0  0.194768  0.561677  0  4.261412  0
C  C30  1  0.72527998  0.07778659  0.14823232  1  0  0.635885  0  3.961358  0  0  0.586316  0  4.254686  0  0  0.618811  0  4.254929  0  0  0.195504  0.564227  0  4.256368  0
C  C31  1  0.64718606  0.92187199  0.35162433  1  0  0.633344  0  3.965919  0  0  0.583836  0  4.259587  0  0  0.616321  0  4.259952  0  0  0.194793  0.561727  0  4.261227  0
C  C32  1  0.44649907  0.02384349  0.87845493  1  0  -0.120942  0  3.764859  0  0  -0.091622  0  4.002433  0  0  -0.105543  0  4.026735  0  0  -0.015063  -0.083034  0  3.986173  0
C  C33  1  0.42294799  0.97645919  0.62165559  1  0  -0.119396  0  3.76391  0  0  -0.090655  0  4.002142  0  0  -0.104597  0  4.026484  0  0  -0.015052  -0.082022  0  3.985832  0
C  C34  1  0.55350059  0.97615091  0.12154186  1  0  -0.120978  0  3.764792  0  0  -0.091697  0  4.002443  0  0  -0.105622  0  4.026745  0  0  -0.015091  -0.083118  0  3.986195  0
C  C35  1  0.57704965  0.02353738  0.37834415  1  0  -0.119473  0  3.7639  0  0  -0.0908  0  4.002261  0  0  -0.104749  0  4.026615  0  0  -0.015063  -0.082166  0  3.985949  0
C  C36  1  0.55747087  0.97363325  0.87207505  1  0  -0.002316  0  3.650545  0  0  -0.046654  0  3.901665  0  0  -0.03832  0  3.917056  0  0  -0.048943  -0.051079  0  3.890515  0
C  C37  1  0.58408944  0.02656956  0.62800753  1  0  -0.00269  0  3.651609  0  0  -0.046818  0  3.902746  0  0  -0.038526  0  3.918135  0  0  -0.049169  -0.051246  0  3.891613  0
C  C38  1  0.44253312  0.02636773  0.12792390  1  0  -0.002269  0  3.650442  0  0  -0.046604  0  3.901596  0  0  -0.038267  0  3.916994  0  0  -0.04893  -0.051027  0  3.890443  0
C  C39  1  0.41591136  0.97342920  0.37199368  1  0  -0.002551  0  3.651448  0  0  -0.046697  0  3.902557  0  0  -0.0384  0  3.917936  0  0  -0.049182  -0.051119  0  3.891429  0
C  C40  1  0.71588850  0.07605217  0.90348605  1  0  -0.126044  0  3.726343  0  0  -0.098516  0  3.963815  0  0  -0.112451  0  3.986259  0  0  -0.007054  -0.089758  0  3.948231  0
C  C41  1  0.64000178  0.92406172  0.59649868  1  0  -0.127639  0  3.726865  0  0  -0.098041  0  3.961619  0  0  -0.112116  0  3.984313  0  0  -0.00683  -0.089167  0  3.945838  0
C  C42  1  0.28410964  0.92394334  0.09651035  1  0  -0.126151  0  3.726267  0  0  -0.098617  0  3.963735  0  0  -0.112568  0  3.986196  0  0  -0.007086  -0.089843  0  3.948149  0
C  C43  1  0.35999482  0.07593485  0.40350107  1  0  -0.12777  0  3.727065  0  0  -0.097894  0  3.96143  0  0  -0.111965  0  3.984118  0  0  -0.00678  -0.089024  0  3.94567  0
C  C44  1  0.75809011  0.22399382  0.93385108  1  0  0.16049  0  3.61712  0  0  0.117121  0  3.866472  0  0  0.128606  0  3.880848  0  0  0.072394  0.109354  0  3.856758  0
C  C45  1  0.53417351  0.77611887  0.56607859  1  0  0.162074  0  3.614774  0  0  0.118102  0  3.864053  0  0  0.129596  0  3.878441  0  0  0.073129  0.110362  0  3.854336  0
C  C46  1  0.24191175  0.77600499  0.06614564  1  0  0.160451  0  3.61744  0  0  0.117121  0  3.866716  0  0  0.128613  0  3.881094  0  0  0.072413  0.109342  0  3.857017  0
C  C47  1  0.46582110  0.22387992  0.43391964  1  0  0.16196  0  3.61486  0  0  0.117889  0  3.864084  0  0  0.12939  0  3.878482  0  0  0.073026  0.110144  0  3.854387  0
C  C48  1  0.49890099  0.17414808  0.91454890  1  0  0.139129  0  3.644365  0  0  0.094842  0  3.894059  0  0  0.105514  0  3.909442  0  0  0.061082  0.088162  0  3.882929  0
C  C49  1  0.32495425  0.82615327  0.58547856  1  0  0.138393  0  3.643505  0  0  0.09413  0  3.893674  0  0  0.104817  0  3.909042  0  0  0.060826  0.087408  0  3.882563  0
C  C50  1  0.50109819  0.82584744  0.08544676  1  0  0.139249  0  3.64423  0  0  0.094973  0  3.89394  0  0  0.105655  0  3.909314  0  0  0.061139  0.088301  0  3.882806  0
C  C51  1  0.67504347  0.17384553  0.41451892  1  0  0.13835  0  3.643439  0  0  0.094119  0  3.893646  0  0  0.104805  0  3.90902  0  0  0.060816  0.087406  0  3.88252  0
C  C52  1  0.84172398  0.03389615  0.91228054  1  0  0.725622  0  3.86282  0  0  0.674057  0  4.156412  0  0  0.709626  0  4.14855  0  0  0.243648  0.650313  0  4.162899  0
C  C53  1  0.80798504  0.96614686  0.58769893  1  0  0.724666  0  3.86542  0  0  0.672607  0  4.15887  0  0  0.70821  0  4.15108  0  0  0.242639  0.648838  0  4.165299  0
C  C54  1  0.15828665  0.96612018  0.08772567  1  0  0.725875  0  3.86278  0  0  0.674281  0  4.156399  0  0  0.709856  0  4.14853  0  0  0.243755  0.650529  0  4.162895  0
C  C55  1  0.19201887  0.03387054  0.41231063  1  0  0.724555  0  3.865483  0  0  0.672493  0  4.158805  0  0  0.708097  0  4.151019  0  0  0.242657  0.648718  0  4.165247  0
C  C56  1  0.55159982  0.54085200  0.81786999  1  0  0.579322  0  3.885881  0  0  0.534985  0  4.172403  0  0  0.566093  0  4.167084  0  0  0.223084  0.513358  0  4.178644  0
C  C57  1  0.01096874  0.45938399  0.68226093  1  0  0.579214  0  3.885373  0  0  0.534071  0  4.172969  0  0  0.565231  0  4.167638  0  0  0.222735  0.51243  0  4.179181  0
C  C58  1  0.44838421  0.45914014  0.18213206  1  0  0.578975  0  3.885971  0  0  0.534729  0  4.172315  0  0  0.56583  0  4.167003  0  0  0.223064  0.513138  0  4.17851  0
C  C59  1  0.98903796  0.54060378  0.31773819  1  0  0.579778  0  3.884928  0  0  0.534543  0  4.172626  0  0  0.565702  0  4.167283  0  0  0.222887  0.512908  0  4.178844  0
C  C60  1  0.54661764  0.53076566  0.69825825  1  0  0.586812  0  3.896159  0  0  0.544857  0  4.186809  0  0  0.574611  0  4.182307  0  0  0.22478  0.52417  0  4.192798  0
C  C61  1  0.01595280  0.46942644  0.80185531  1  0  0.585278  0  3.895224  0  0  0.544019  0  4.18508  0  0  0.573745  0  4.180625  0  0  0.224838  0.52335  0  4.191023  0
C  C62  1  0.45336426  0.46922429  0.30174308  1  0  0.586795  0  3.896622  0  0  0.544903  0  4.187089  0  0  0.57466  0  4.182589  0  0  0.224885  0.524202  0  4.193073  0
C  C63  1  0.98405440  0.53056025  0.19814121  1  0  0.584919  0  3.895667  0  0  0.543783  0  4.185381  0  0  0.573506  0  4.180931  0  0  0.224671  0.523106  0  4.191334  0
N  N64  1  0.65151508  0.27203824  0.93899791  1  0  -0.308278  0  3.286746  0  0  -0.230679  0  3.582939  0  0  -0.251206  0  3.595858  0  0  -0.33101  -0.216729  0  3.574224  0
N  N65  1  0.37956577  0.72816100  0.56094397  1  0  -0.308455  0  3.285716  0  0  -0.231232  0  3.582804  0  0  -0.251766  0  3.595726  0  0  -0.331016  -0.21727  0  3.574075  0
N  N66  1  0.34848050  0.72795836  0.06099885  1  0  -0.308314  0  3.286781  0  0  -0.230694  0  3.582923  0  0  -0.251226  0  3.595837  0  0  -0.330999  -0.216743  0  3.574214  0
N  N67  1  0.62043084  0.27183561  0.43905279  1  0  -0.308277  0  3.285666  0  0  -0.231055  0  3.582754  0  0  -0.251584  0  3.595672  0  0  -0.33093  -0.217092  0  3.574022  0
O  O68  1  0.22465052  0.78672168  0.82484197  1  0  -0.664917  0  1.941464  0  0  -0.616586  0  2.173498  0  0  -0.646345  0  2.168401  0  0  -0.353185  -0.59838  0  2.176083  0
O  O69  1  0.43822537  0.21362486  0.67523534  1  0  -0.664178  0  1.942652  0  0  -0.615704  0  2.174734  0  0  -0.645484  0  2.169545  0  0  -0.353062  -0.59751  0  2.17734  0
O  O70  1  0.77534960  0.21327157  0.17515968  1  0  -0.664954  0  1.941667  0  0  -0.616563  0  2.173631  0  0  -0.646316  0  2.168503  0  0  -0.35316  -0.59836  0  2.17621  0
O  O71  1  0.56177488  0.78637281  0.32476477  1  0  -0.664274  0  1.942436  0  0  -0.615801  0  2.17453  0  0  -0.645574  0  2.169344  0  0  -0.353125  -0.597614  0  2.177163  0
O  O72  1  0.18013090  0.97710053  0.85940521  1  0  -0.708862  0  2.063691  0  0  -0.645644  0  2.300177  0  0  -0.675579  0  2.29142  0  0  -0.363289  -0.628148  0  2.305666  0
O  O73  1  0.20337362  0.02326336  0.64080812  1  0  -0.707225  0  2.065384  0  0  -0.644166  0  2.301936  0  0  -0.674131  0  2.293187  0  0  -0.362784  -0.62671  0  2.307429  0
O  O74  1  0.81986980  0.02289388  0.14059008  1  0  -0.708814  0  2.06373  0  0  -0.645607  0  2.300248  0  0  -0.675552  0  2.291487  0  0  -0.363186  -0.628114  0  2.305735  0
O  O75  1  0.79662933  0.97673762  0.35919157  1  0  -0.7072  0  2.065307  0  0  -0.644149  0  2.301893  0  0  -0.674091  0  2.293127  0  0  -0.362775  -0.626689  0  2.307385  0
O  O76  1  0.81274627  0.90303938  0.85543226  1  0  -0.686974  0  1.984807  0  0  -0.639373  0  2.237602  0  0  -0.66991  0  2.224602  0  0  -0.370961  -0.622746  0  2.244273  0
O  O77  1  0.90992276  0.09696653  0.64455662  1  0  -0.686995  0  1.987008  0  0  -0.639008  0  2.239602  0  0  -0.669665  0  2.226593  0  0  -0.370713  -0.622378  0  2.246269  0
O  O78  1  0.18725593  0.09695391  0.14456566  1  0  -0.686951  0  1.985256  0  0  -0.639342  0  2.238116  0  0  -0.669877  0  2.225078  0  0  -0.370923  -0.622714  0  2.244791  0
O  O79  1  0.09006294  0.90302894  0.35544277  1  0  -0.687067  0  1.986576  0  0  -0.639129  0  2.23914  0  0  -0.669772  0  2.226148  0  0  -0.370809  -0.622484  0  2.245802  0
O  O80  1  0.97175671  0.13715417  0.97889243  1  0  -0.75794  0  2.040746  0  0  -0.698292  0  2.295559  0  0  -0.728518  0  2.279541  0  0  -0.385297  -0.681987  0  2.305451  0
O  O81  1  0.83467204  0.86282145  0.52106296  1  0  -0.756503  0  2.04088  0  0  -0.697378  0  2.296645  0  0  -0.727598  0  2.280454  0  0  -0.384517  -0.681088  0  2.306611  0
O  O82  1  0.02824363  0.86284573  0.02110540  1  0  -0.758115  0  2.040343  0  0  -0.698461  0  2.295147  0  0  -0.728678  0  2.27913  0  0  -0.385411  -0.682147  0  2.305038  0
O  O83  1  0.16533145  0.13718063  0.47893709  1  0  -0.756331  0  2.041248  0  0  -0.697225  0  2.29706  0  0  -0.727462  0  2.280854  0  0  -0.384471  -0.680933  0  2.307036  0
O  O84  1  0.68579970  0.61409289  0.88235179  1  0  -0.679076  0  2.156989  0  0  -0.610554  0  2.430849  0  0  -0.642596  0  2.416172  0  0  -0.368186  -0.591805  0  2.439865  0
O  O85  1  0.07192351  0.38613479  0.61780988  1  0  -0.678683  0  2.15588  0  0  -0.609849  0  2.430176  0  0  -0.642008  0  2.415482  0  0  -0.367994  -0.591077  0  2.43916  0
O  O86  1  0.31421498  0.38592118  0.11765969  1  0  -0.678849  0  2.157665  0  0  -0.61035  0  2.431462  0  0  -0.642394  0  2.416792  0  0  -0.36816  -0.59162  0  2.440459  0
O  O87  1  0.92807028  0.61387272  0.38219720  1  0  -0.67904  0  2.155014  0  0  -0.610204  0  2.429353  0  0  -0.642351  0  2.414658  0  0  -0.368133  -0.591426  0  2.438335  0
O  O88  1  0.67730515  0.59502399  0.67382115  1  0  -0.669924  0  2.075197  0  0  -0.612275  0  2.33685  0  0  -0.64201  0  2.323975  0  0  -0.360406  -0.594835  0  2.344758  0
O  O89  1  0.08232245  0.40517414  0.82631807  1  0  -0.668526  0  2.075627  0  0  -0.611122  0  2.337302  0  0  -0.640897  0  2.32445  0  0  -0.359812  -0.593711  0  2.345205  0
O  O90  1  0.32271303  0.40498467  0.32618106  1  0  -0.66982  0  2.075995  0  0  -0.612205  0  2.337645  0  0  -0.641942  0  2.324768  0  0  -0.360424  -0.594772  0  2.345554  0
O  O91  1  0.91766937  0.59483566  0.17368150  1  0  -0.668583  0  2.074881  0  0  -0.611212  0  2.336473  0  0  -0.640992  0  2.323649  0  0  -0.359844  -0.593793  0  2.34438  0
O  O92  1  0.42306910  0.47212630  0.84144298  1  0  -0.686161  0  2.170654  0  0  -0.627596  0  2.445955  0  0  -0.657601  0  2.431086  0  0  -0.358985  -0.610499  0  2.455572  0
O  O93  1  0.95119276  0.52813688  0.65865559  1  0  -0.68611  0  2.170069  0  0  -0.62745  0  2.445715  0  0  -0.657397  0  2.430844  0  0  -0.358982  -0.610336  0  2.455304  0
O  O94  1  0.57694548  0.52788346  0.15855959  1  0  -0.686088  0  2.169876  0  0  -0.627576  0  2.445125  0  0  -0.65757  0  2.430266  0  0  -0.359006  -0.610477  0  2.454718  0
O  O95  1  0.04880114  0.47187293  0.34134250  1  0  -0.686201  0  2.170673  0  0  -0.62753  0  2.446396  0  0  -0.657482  0  2.431514  0  0  -0.358953  -0.610429  0  2.455998  0
O  O96  1  0.41262044  0.45643668  0.63560451  1  0  -0.678494  0  2.066779  0  0  -0.631242  0  2.329338  0  0  -0.659598  0  2.315881  0  0  -0.355272  -0.615408  0  2.338469  0
O  O97  1  0.95619076  0.54374633  0.86448213  1  0  -0.678284  0  2.064506  0  0  -0.6312  0  2.326716  0  0  -0.659455  0  2.313244  0  0  -0.355669  -0.615389  0  2.335877  0
O  O98  1  0.58739873  0.54357190  0.36440591  1  0  -0.678516  0  2.066378  0  0  -0.631318  0  2.328911  0  0  -0.65967  0  2.31546  0  0  -0.355349  -0.615465  0  2.33803  0
O  O99  1  0.04379840  0.45626229  0.13552455  1  0  -0.677927  0  2.065566  0  0  -0.630867  0  2.327708  0  0  -0.659122  0  2.314233  0  0  -0.355456  -0.615067  0  2.336886  0
O  O100  1  0.96799975  0.79422840  0.65163810  1  0  -0.916523  0  1.897053  0  0  -0.862128  0  2.10412  0  0  -0.887832  0  2.067635  0  0  -0.643008  -0.847593  0  2.126975  0
O  O101  1  0.17359362  0.20583752  0.84836669  1  0  -0.918417  0  1.896435  0  0  -0.863741  0  2.103752  0  0  -0.889592  0  2.067092  0  0  -0.643564  -0.849152  0  2.126643  0
O  O102  1  0.03199742  0.20576929  0.34835976  1  0  -0.916436  0  1.896987  0  0  -0.862016  0  2.104168  0  0  -0.887741  0  2.067666  0  0  -0.642946  -0.84748  0  2.127018  0
O  O103  1  0.82640719  0.79416126  0.15163228  1  0  -0.918356  0  1.896491  0  0  -0.863693  0  2.103794  0  0  -0.889521  0  2.067142  0  0  -0.643545  -0.849106  0  2.126684  0
