# generated using pymatgen
data_CdH16C24(NO)4
_symmetry_space_group_name_H-M   'P 1'
_cell_length_a   7.97374110
_cell_length_b   10.85092202
_cell_length_c   13.11724561
_cell_angle_alpha   76.70284778
_cell_angle_beta   80.30370757
_cell_angle_gamma   67.20319789
_symmetry_Int_Tables_number   1
_chemical_formula_structural   CdH16C24(NO)4
_chemical_formula_sum   'Cd2 H32 C48 N8 O8'
_cell_volume   1014.24372429
_cell_formula_units_Z   2
loop_
 _symmetry_equiv_pos_site_id
 _symmetry_equiv_pos_as_xyz
  1  'x, y, z'
loop_
 _atom_site_type_symbol
 _atom_site_label
 _atom_site_symmetry_multiplicity
 _atom_site_fract_x
 _atom_site_fract_y
 _atom_site_fract_z
 _atom_site_occupancy
 _atom_site_hle17_bader_spin_density
 _atom_site_hle17_ddec_charge
 _atom_site_hle17_ddec_spin_density
 _atom_site_hle17_ddec_sum_bond_order
 _atom_site_hle17_magmom
 _atom_site_hse06_10hf_bader_spin_density
 _atom_site_hse06_10hf_ddec_charge
 _atom_site_hse06_10hf_ddec_spin_density
 _atom_site_hse06_10hf_ddec_sum_bond_order
 _atom_site_hse06_10hf_magmom
 _atom_site_hse06_bader_spin_density
 _atom_site_hse06_ddec_charge
 _atom_site_hse06_ddec_spin_density
 _atom_site_hse06_ddec_sum_bond_order
 _atom_site_hse06_magmom
 _atom_site_pbe_bader_spin_density
 _atom_site_pbe_cm5_charge
 _atom_site_pbe_ddec_charge
 _atom_site_pbe_ddec_spin_density
 _atom_site_pbe_ddec_sum_bond_order
 _atom_site_pbe_magmom
Cd  Cd0  1  0.79009488  0.22235445  0.23307934  1  0  1.047655  0  1.700017  0  0  0.842389  0  2.139605  0  0  0.904365  0  2.090561  0  0  0.761096  0.798358  0  2.172789  0
Cd  Cd1  1  0.20990856  0.77764270  0.76692103  1  0  1.047653  0  1.700082  0  0  0.842422  0  2.139662  0  0  0.904393  0  2.090616  0  0  0.761107  0.798389  0  2.172852  0
H  H2  1  0.98450419  0.59992753  0.25351685  1  0  0.064157  0  0.967691  0  0  0.069367  0  1.040881  0  0  0.072362  0  1.038341  0  0  0.102393  0.067267  0  1.042634  0
H  H3  1  0.01548263  0.40007592  0.74647839  1  0  0.064195  0  0.967639  0  0  0.069394  0  1.040856  0  0  0.072391  0  1.03831  0  0  0.102395  0.06729  0  1.042608  0
H  H4  1  0.63332308  0.49777881  0.51817073  1  0  0.101675  0  0.947301  0  0  0.110086  0  1.013579  0  0  0.113766  0  1.009604  0  0  0.107555  0.107297  0  1.016558  0
H  H5  1  0.36666604  0.50222461  0.48182891  1  0  0.101695  0  0.947228  0  0  0.110082  0  1.013525  0  0  0.113781  0  1.009528  0  0  0.107553  0.107292  0  1.016507  0
H  H6  1  0.68051138  0.66337448  0.60543525  1  0  0.109604  0  0.964814  0  0  0.118873  0  1.024543  0  0  0.122042  0  1.024169  0  0  0.105069  0.116555  0  1.025017  0
H  H7  1  0.31949115  0.33662471  0.39456406  1  0  0.109587  0  0.964836  0  0  0.118848  0  1.024575  0  0  0.12202  0  1.024197  0  0  0.105058  0.116512  0  1.025072  0
H  H8  1  0.87816970  0.79168499  0.50905519  1  0  0.063838  0  0.951964  0  0  0.07278  0  1.017128  0  0  0.074405  0  1.016702  0  0  0.106808  0.071633  0  1.017512  0
H  H9  1  0.12183012  0.20831221  0.49094165  1  0  0.063793  0  0.951964  0  0  0.072742  0  1.017129  0  0  0.074367  0  1.016705  0  0  0.106783  0.071596  0  1.017513  0
H  H10  1  0.17512037  0.23495322  0.24271232  1  0  0.090784  0  0.961447  0  0  0.096081  0  1.032593  0  0  0.099793  0  1.028414  0  0  0.115019  0.093353  0  1.035673  0
H  H11  1  0.82488179  0.76504093  0.75729099  1  0  0.090825  0  0.961414  0  0  0.096032  0  1.032664  0  0  0.099731  0  1.028499  0  0  0.115014  0.0933  0  1.035748  0
H  H12  1  0.50864049  0.88032902  0.44172593  1  0  0.102054  0  0.964002  0  0  0.110664  0  1.027802  0  0  0.113069  0  1.026593  0  0  0.108676  0.108811  0  1.0288  0
H  H13  1  0.49136183  0.11966715  0.55828004  1  0  0.102104  0  0.963992  0  0  0.110688  0  1.027804  0  0  0.113095  0  1.026596  0  0  0.108693  0.108836  0  1.028803  0
H  H14  1  0.24766439  0.79544083  0.47665643  1  0  0.122864  0  0.947743  0  0  0.130764  0  1.007246  0  0  0.134553  0  1.006212  0  0  0.11007  0.127977  0  1.008275  0
H  H15  1  0.75233668  0.20455838  0.52334605  1  0  0.122846  0  0.947687  0  0  0.130745  0  1.007197  0  0  0.134533  0  1.006162  0  0  0.110057  0.127959  0  1.008227  0
H  H16  1  0.96314469  0.93724900  0.38280458  1  0  0.092846  0  0.975737  0  0  0.097602  0  1.047084  0  0  0.100973  0  1.042916  0  0  0.118344  0.094932  0  1.050483  0
H  H17  1  0.03685700  0.06274617  0.61719858  1  0  0.092899  0  0.975743  0  0  0.097636  0  1.047109  0  0  0.101011  0  1.042934  0  0  0.118348  0.094967  0  1.050511  0
H  H18  1  0.88827334  0.87941639  0.22464256  1  0  0.083433  0  0.968923  0  0  0.084182  0  1.046094  0  0  0.087274  0  1.043197  0  0  0.113178  0.081938  0  1.048164  0
H  H19  1  0.11171932  0.12058496  0.77535640  1  0  0.083406  0  0.968933  0  0  0.08415  0  1.046122  0  0  0.087239  0  1.043236  0  0  0.113147  0.081908  0  1.048188  0
H  H20  1  0.81259720  0.75056390  0.11476976  1  0  0.105025  0  0.944913  0  0  0.117545  0  1.000803  0  0  0.120329  0  1.000398  0  0  0.108171  0.114892  0  1.002309  0
H  H21  1  0.18739101  0.24943852  0.88523166  1  0  0.105036  0  0.944847  0  0  0.117555  0  1.00075  0  0  0.12034  0  1.000345  0  0  0.10819  0.114906  0  1.002245  0
H  H22  1  0.69924347  0.87004722  0.93746847  1  0  0.099232  0  0.933497  0  0  0.113489  0  0.989334  0  0  0.115961  0  0.987956  0  0  0.10974  0.111682  0  0.990501  0
H  H23  1  0.30075474  0.12995606  0.06252816  1  0  0.099253  0  0.93357  0  0  0.1135  0  0.989407  0  0  0.115972  0  0.988029  0  0  0.109757  0.111698  0  0.990574  0
H  H24  1  0.61831186  0.08213383  0.80135929  1  0  0.088915  0  0.989055  0  0  0.098467  0  1.053122  0  0  0.09967  0  1.055541  0  0  0.099002  0.097677  0  1.0514  0
H  H25  1  0.38170381  0.91786718  0.19863861  1  0  0.088852  0  0.988984  0  0  0.09839  0  1.053061  0  0  0.099591  0  1.055479  0  0  0.098971  0.097604  0  1.051334  0
H  H26  1  0.60090412  0.32014953  0.74043568  1  0  0.108209  0  0.933111  0  0  0.120697  0  0.988879  0  0  0.123165  0  0.988723  0  0  0.109457  0.118896  0  0.989144  0
H  H27  1  0.39911276  0.67984944  0.25955791  1  0  0.108228  0  0.933124  0  0  0.120674  0  0.988944  0  0  0.123142  0  0.988788  0  0  0.109464  0.118874  0  0.989207  0
H  H28  1  0.63120211  0.52730342  0.77643991  1  0  0.11458  0  0.936204  0  0  0.125343  0  0.996002  0  0  0.128409  0  0.993661  0  0  0.115668  0.123182  0  0.997621  0
H  H29  1  0.36880024  0.47269577  0.22356247  1  0  0.114504  0  0.93605  0  0  0.125292  0  0.995825  0  0  0.128347  0  0.993498  0  0  0.11565  0.123132  0  0.997443  0
H  H30  1  0.70717067  0.63722458  0.89874454  1  0  0.112247  0  0.949018  0  0  0.122039  0  1.008699  0  0  0.125758  0  1.006515  0  0  0.108  0.119118  0  1.010913  0
H  H31  1  0.29281263  0.36278296  0.10125635  1  0  0.112194  0  0.948946  0  0  0.121984  0  1.008655  0  0  0.125701  0  1.006476  0  0  0.107986  0.119086  0  1.010845  0
H  H32  1  0.79718605  0.50210769  0.08003059  1  0  0.088709  0  0.964232  0  0  0.096989  0  1.026309  0  0  0.100048  0  1.023546  0  0  0.113497  0.094316  0  1.02923  0
H  H33  1  0.20279359  0.49790495  0.91996967  1  0  0.088685  0  0.964383  0  0  0.096961  0  1.026448  0  0  0.100015  0  1.023696  0  0  0.113497  0.094289  0  1.029373  0
C  C34  1  0.91347396  0.61450367  0.33114948  1  0  0.104497  0  3.728149  0  0  0.072165  0  3.981969  0  0  0.079171  0  3.999183  0  0  0.041756  0.067807  0  3.970139  0
C  C35  1  0.08651619  0.38549771  0.66884892  1  0  0.104549  0  3.728028  0  0  0.072214  0  3.981862  0  0  0.079218  0  3.999079  0  0  0.041825  0.06786  0  3.970032  0
C  C36  1  0.80488255  0.53777493  0.37812865  1  0  -0.125428  0  3.772539  0  0  -0.096922  0  4.001292  0  0  -0.10997  0  4.026567  0  0  -0.021925  -0.088656  0  3.984333  0
C  C37  1  0.19511320  0.46222234  0.62187233  1  0  -0.125418  0  3.772373  0  0  -0.096896  0  4.001117  0  0  -0.109946  0  4.0264  0  0  -0.021916  -0.088628  0  3.984157  0
C  C38  1  0.71856091  0.55549860  0.47858455  1  0  -0.007306  0  3.692887  0  0  -0.037506  0  3.939203  0  0  -0.032144  0  3.956413  0  0  -0.06302  -0.040409  0  3.927304  0
C  C39  1  0.28143509  0.44450068  0.52141756  1  0  -0.007303  0  3.692798  0  0  -0.037475  0  3.939116  0  0  -0.032126  0  3.956319  0  0  -0.063002  -0.040377  0  3.927214  0
C  C40  1  0.74523188  0.64714499  0.52711070  1  0  -0.125857  0  3.722592  0  0  -0.133455  0  3.969992  0  0  -0.141477  0  3.991855  0  0  -0.086941  -0.128313  0  3.955163  0
C  C41  1  0.25476980  0.35285320  0.47288962  1  0  -0.125879  0  3.722647  0  0  -0.133478  0  3.97005  0  0  -0.141499  0  3.991916  0  0  -0.086929  -0.128319  0  3.955231  0
C  C42  1  0.85581267  0.71863169  0.47310714  1  0  0.126065  0  3.731202  0  0  0.097206  0  3.996171  0  0  0.104331  0  4.012494  0  0  0.043248  0.092695  0  3.985117  0
C  C43  1  0.14418692  0.28136855  0.52689070  1  0  0.126117  0  3.73108  0  0  0.097246  0  3.996055  0  0  0.10437  0  4.012378  0  0  0.04323  0.092739  0  3.984994  0
C  C44  1  0.79142631  0.43606022  0.32248605  1  0  0.620156  0  3.975903  0  0  0.572491  0  4.264725  0  0  0.607  0  4.259871  0  0  0.18499  0.549136  0  4.267  0
C  C45  1  0.20857204  0.56394003  0.67751112  1  0  0.620192  0  3.975868  0  0  0.572522  0  4.264698  0  0  0.607031  0  4.259849  0  0  0.185019  0.549165  0  4.266975  0
C  C46  1  0.19818070  0.13558326  0.29252500  1  0  0.103746  0  3.701883  0  0  0.060771  0  3.954844  0  0  0.070141  0  3.971009  0  0  0.044786  0.054523  0  3.944531  0
C  C47  1  0.80182017  0.86441090  0.70747840  1  0  0.103882  0  3.701849  0  0  0.060965  0  3.954816  0  0  0.070342  0  3.970989  0  0  0.044867  0.054753  0  3.944434  0
C  C48  1  0.36326259  0.06182045  0.33746596  1  0  -0.118434  0  3.754514  0  0  -0.090719  0  3.990396  0  0  -0.10307  0  4.011228  0  0  -0.015328  -0.083182  0  3.976671  0
C  C49  1  0.63673470  0.93817579  0.66253889  1  0  -0.118459  0  3.754619  0  0  -0.090716  0  3.990433  0  0  -0.103053  0  4.011247  0  0  -0.015268  -0.083182  0  3.976714  0
C  C50  1  0.38172177  0.93788429  0.40504954  1  0  0.013352  0  3.662131  0  0  -0.016655  0  3.905798  0  0  -0.008861  0  3.920166  0  0  -0.054814  -0.021405  0  3.896085  0
C  C51  1  0.61827866  0.06211292  0.59495869  1  0  0.013269  0  3.662198  0  0  -0.016698  0  3.905817  0  0  -0.00891  0  3.920182  0  0  -0.05489  -0.021453  0  3.896111  0
C  C52  1  0.23787212  0.89086182  0.42322311  1  0  -0.112748  0  3.689406  0  0  -0.120555  0  3.940419  0  0  -0.129436  0  3.960396  0  0  -0.076367  -0.114954  0  3.927108  0
C  C53  1  0.76213228  0.10913533  0.57678252  1  0  -0.112778  0  3.689525  0  0  -0.120608  0  3.940507  0  0  -0.129494  0  3.960507  0  0  -0.076392  -0.115006  0  3.927203  0
C  C54  1  0.07932231  0.96929305  0.37306809  1  0  0.128538  0  3.681143  0  0  0.092054  0  3.937468  0  0  0.101219  0  3.954774  0  0  0.049562  0.086278  0  3.925778  0
C  C55  1  0.92067919  0.03070515  0.62693530  1  0  0.12852  0  3.681265  0  0  0.092068  0  3.937584  0  0  0.101229  0  3.954892  0  0  0.049588  0.086283  0  3.925903  0
C  C56  1  0.51658850  0.11465265  0.31192319  1  0  0.619886  0  3.967305  0  0  0.57116  0  4.255407  0  0  0.605663  0  4.250933  0  0  0.187725  0.548  0  4.257287  0
C  C57  1  0.48340963  0.88534459  0.68808065  1  0  0.620027  0  3.966951  0  0  0.571293  0  4.255052  0  0  0.605793  0  4.250581  0  0  0.187813  0.548128  0  4.256941  0
C  C58  1  0.83916333  0.92878365  0.14716867  1  0  0.146442  0  3.677437  0  0  0.115172  0  3.936543  0  0  0.123009  0  3.952983  0  0  0.053468  0.109959  0  3.924758  0
C  C59  1  0.16084081  0.07121753  0.85283014  1  0  0.146415  0  3.67759  0  0  0.115146  0  3.936711  0  0  0.122982  0  3.95315  0  0  0.053453  0.109932  0  3.924927  0
C  C60  1  0.79669734  0.85651347  0.08507260  1  0  -0.116493  0  3.730127  0  0  -0.131305  0  3.986523  0  0  -0.137321  0  4.007095  0  0  -0.085249  -0.126617  0  3.972644  0
C  C61  1  0.20330054  0.14348780  0.91492443  1  0  -0.116444  0  3.730084  0  0  -0.131253  0  3.986446  0  0  -0.13727  0  4.007019  0  0  -0.085207  -0.126564  0  3.972573  0
C  C62  1  0.73438751  0.92228572  0.98767287  1  0  -0.044873  0  3.690945  0  0  -0.071708  0  3.944501  0  0  -0.069295  0  3.961843  0  0  -0.065141  -0.073157  0  3.932678  0
C  C63  1  0.26561611  0.07771647  0.01232657  1  0  -0.044916  0  3.690888  0  0  -0.071697  0  3.944483  0  0  -0.069282  0  3.961819  0  0  -0.065193  -0.073151  0  3.932666  0
C  C64  1  0.71526505  0.05980243  0.95209730  1  0  0.024914  0  3.791656  0  0  0.041256  0  4.024636  0  0  0.038896  0  4.048384  0  0  -0.004677  0.042299  0  4.009185  0
C  C65  1  0.28474814  0.94019862  0.04789928  1  0  0.024957  0  3.791719  0  0  0.041129  0  4.024874  0  0  0.038773  0  4.048607  0  0  -0.004714  0.042173  0  4.009422  0
C  C66  1  0.65446044  0.13367121  0.85147305  1  0  -0.1007  0  3.764085  0  0  -0.123747  0  4.017419  0  0  -0.127145  0  4.042721  0  0  -0.086831  -0.121037  0  4.000439  0
C  C67  1  0.34555494  0.86632779  0.14852448  1  0  -0.100578  0  3.763787  0  0  -0.123511  0  4.017093  0  0  -0.126907  0  4.042394  0  0  -0.086745  -0.120805  0  4.000114  0
C  C68  1  0.64333105  0.26513880  0.81819000  1  0  -0.095374  0  3.736258  0  0  -0.116416  0  3.987478  0  0  -0.119716  0  4.010298  0  0  -0.08058  -0.114697  0  3.972372  0
C  C69  1  0.35668054  0.73486026  0.18180706  1  0  -0.095391  0  3.736243  0  0  -0.116459  0  3.98744  0  0  -0.119761  0  4.010262  0  0  -0.080641  -0.11474  0  3.972336  0
C  C70  1  0.68675963  0.33423737  0.88469639  1  0  0.020336  0  3.793807  0  0  0.036955  0  4.025037  0  0  0.033828  0  4.050316  0  0  -0.001438  0.039433  0  4.007737  0
C  C71  1  0.31324797  0.66576779  0.11529761  1  0  0.020259  0  3.794087  0  0  0.036961  0  4.02516  0  0  0.033836  0  4.05044  0  0  -0.001425  0.03944  0  4.007856  0
C  C72  1  0.67502250  0.47057419  0.85347538  1  0  -0.03225  0  3.654293  0  0  -0.057654  0  3.905033  0  0  -0.05479  0  3.921493  0  0  -0.056616  -0.059476  0  3.893662  0
C  C73  1  0.32498144  0.52942800  0.14651869  1  0  -0.032147  0  3.654101  0  0  -0.057566  0  3.904807  0  0  -0.054692  0  3.921252  0  0  -0.056572  -0.059389  0  3.893442  0
C  C74  1  0.71676811  0.53200160  0.92185844  1  0  -0.097687  0  3.714743  0  0  -0.114576  0  3.974602  0  0  -0.120375  0  3.993733  0  0  -0.079553  -0.110845  0  3.962338  0
C  C75  1  0.28322369  0.46800177  0.07813870  1  0  -0.097628  0  3.714579  0  0  -0.114543  0  3.974452  0  0  -0.120337  0  3.993575  0  0  -0.079593  -0.110831  0  3.96218  0
C  C76  1  0.76587152  0.45810652  0.02208211  1  0  0.129442  0  3.70664  0  0  0.098525  0  3.957753  0  0  0.106279  0  3.975786  0  0  0.050498  0.093637  0  3.946153  0
C  C77  1  0.23412019  0.54189988  0.97791372  1  0  0.129389  0  3.706751  0  0  0.098479  0  3.957883  0  0  0.106232  0  3.975917  0  0  0.050466  0.093582  0  3.946295  0
C  C78  1  0.74105066  0.26593921  0.98698539  1  0  0.128834  0  3.748693  0  0  0.120674  0  3.987012  0  0  0.125195  0  4.010235  0  0  0.115953  0.118113  0  3.971249  0
C  C79  1  0.25895960  0.73405987  0.01301254  1  0  0.1288  0  3.748894  0  0  0.120632  0  3.987179  0  0  0.125151  0  4.010406  0  0  0.115949  0.118073  0  3.971414  0
C  C80  1  0.75964855  0.12479458  0.02068860  1  0  0.130275  0  3.747028  0  0  0.124731  0  3.983977  0  0  0.129137  0  4.005422  0  0  0.115782  0.121286  0  3.969869  0
C  C81  1  0.24036662  0.87520240  0.97930702  1  0  0.130252  0  3.747364  0  0  0.124769  0  3.984319  0  0  0.129175  0  4.005765  0  0  0.115853  0.121321  0  3.97021  0
N  N82  1  0.93896282  0.70401459  0.37627197  1  0  -0.32666  0  3.093746  0  0  -0.286792  0  3.367467  0  0  -0.298752  0  3.381747  0  0  -0.327131  -0.278655  0  3.357905  0
N  N83  1  0.06102938  0.29598777  0.62372684  1  0  -0.326758  0  3.093689  0  0  -0.286873  0  3.367411  0  0  -0.298834  0  3.381695  0  0  -0.327172  -0.278728  0  3.35783  0
N  N84  1  0.05939904  0.09015422  0.30958293  1  0  -0.336099  0  3.28018  0  0  -0.251588  0  3.547527  0  0  -0.273883  0  3.566698  0  0  -0.334368  -0.236419  0  3.533953  0
N  N85  1  0.94059748  0.90984102  0.69042140  1  0  -0.336188  0  3.280068  0  0  -0.251691  0  3.5474  0  0  -0.273984  0  3.566571  0  0  -0.334414  -0.23653  0  3.533837  0
N  N86  1  0.82020562  0.05889490  0.11612486  1  0  -0.348853  0  3.211037  0  0  -0.287686  0  3.47172  0  0  -0.305676  0  3.491357  0  0  -0.31587  -0.274523  0  3.457613  0
N  N87  1  0.17979952  0.94110425  0.88387348  1  0  -0.348873  0  3.211191  0  0  -0.287718  0  3.47184  0  0  -0.305706  0  3.491477  0  0  -0.315887  -0.274557  0  3.45774  0
N  N88  1  0.77629274  0.32963174  0.05385679  1  0  -0.352489  0  3.261424  0  0  -0.280047  0  3.522516  0  0  -0.300658  0  3.54309  0  0  -0.32423  -0.266474  0  3.50852  0
N  N89  1  0.22371329  0.67036840  0.94613977  1  0  -0.352377  0  3.261415  0  0  -0.279957  0  3.522527  0  0  -0.300568  0  3.543102  0  0  -0.324187  -0.266384  0  3.508532  0
O  O90  1  0.88890591  0.41753991  0.23568932  1  0  -0.651682  0  1.965637  0  0  -0.593465  0  2.200516  0  0  -0.621311  0  2.192154  0  0  -0.335835  -0.573593  0  2.205629  0
O  O91  1  0.11109478  0.58246031  0.76431148  1  0  -0.651721  0  1.965604  0  0  -0.593508  0  2.200513  0  0  -0.62134  0  2.192118  0  0  -0.335843  -0.573632  0  2.205611  0
O  O92  1  0.68658423  0.37075367  0.36473313  1  0  -0.634441  0  1.927458  0  0  -0.573702  0  2.161861  0  0  -0.60206  0  2.153007  0  0  -0.332389  -0.553617  0  2.167124  0
O  O93  1  0.31340740  0.62924971  0.63526707  1  0  -0.634433  0  1.927479  0  0  -0.573705  0  2.161914  0  0  -0.602059  0  2.15304  0  0  -0.332412  -0.553622  0  2.167178  0
O  O94  1  0.49030656  0.22539343  0.24451026  1  0  -0.650234  0  1.994062  0  0  -0.587966  0  2.243038  0  0  -0.618055  0  2.234991  0  0  -0.334191  -0.566512  0  2.247415  0
O  O95  1  0.50969128  0.77460179  0.75549321  1  0  -0.650343  0  1.993996  0  0  -0.588066  0  2.242958  0  0  -0.618154  0  2.234901  0  0  -0.334267  -0.566613  0  2.247341  0
O  O96  1  0.66298819  0.04794557  0.35549904  1  0  -0.614722  0  1.956585  0  0  -0.558065  0  2.192927  0  0  -0.585832  0  2.187209  0  0  -0.317026  -0.538529  0  2.196286  0
O  O97  1  0.33700951  0.95205268  0.64450388  1  0  -0.614731  0  1.956384  0  0  -0.558094  0  2.192762  0  0  -0.585863  0  2.187045  0  0  -0.317058  -0.53856  0  2.196123  0
