# generated using pymatgen
data_CoH3(CO2)3
_symmetry_space_group_name_H-M   'P 1'
_cell_length_a   7.46053501
_cell_length_b   8.01539072
_cell_length_c   8.01533755
_cell_angle_alpha   66.70849769
_cell_angle_beta   62.66950050
_cell_angle_gamma   62.67049564
_symmetry_Int_Tables_number   1
_chemical_formula_structural   CoH3(CO2)3
_chemical_formula_sum   'Co2 H6 C6 O12'
_cell_volume   367.78180906
_cell_formula_units_Z   2
loop_
 _symmetry_equiv_pos_site_id
 _symmetry_equiv_pos_as_xyz
  1  'x, y, z'
loop_
 _atom_site_type_symbol
 _atom_site_label
 _atom_site_symmetry_multiplicity
 _atom_site_fract_x
 _atom_site_fract_y
 _atom_site_fract_z
 _atom_site_occupancy
 _atom_site_pbe_bader_charge
 _atom_site_pbe_bader_spin_density
 _atom_site_pbe_cm5_charge
 _atom_site_pbe_ddec_charge
 _atom_site_pbe_ddec_spin_density
 _atom_site_pbe_ddec_sum_bond_order
 _atom_site_pbe_magmom
Co  Co0  1  0.00000097  0.99999844  0.00000144  1  1.52971  2.895286  0.800269  1.167268  3.265085  2.552368  2.872
Co  Co1  1  0.50000113  0.49999947  0.50000114  1  1.376633  0.288313  0.761582  0.977872  0.32229  3.125881  0.287
H  H2  1  0.34690695  0.74677790  0.74678090  1  0.173432  0.002259  0.133922  0.059105  0.000543  1.002241  0.002
H  H3  1  0.65309992  0.25321227  0.25322056  1  0.17345  0.002259  0.133926  0.059092  0.000543  1.002251  0.002
H  H4  1  0.82480327  0.66041676  0.16801744  1  0.123988  0.002517  0.12986  0.049174  0.000714  0.983497  0.002
H  H5  1  0.17523100  0.83199326  0.33956230  1  0.123588  0.002516  0.129852  0.049207  0.000713  0.983599  0.002
H  H6  1  0.17519569  0.33958632  0.83197832  1  0.124006  0.002517  0.12986  0.049189  0.000714  0.983514  0.002
H  H7  1  0.82475947  0.16800417  0.66043979  1  0.123569  0.002516  0.129825  0.049221  0.000713  0.983555  0.002
C  C8  1  0.20128374  0.74526886  0.74526596  1  1.508943  -0.004275  0.169596  0.504527  -0.004867  4.051513  -0.006
C  C9  1  0.79871891  0.25473286  0.25473245  1  1.508948  -0.004274  0.169593  0.504569  -0.004867  4.051545  -0.006
C  C10  1  0.73098104  0.75850408  0.26702172  1  1.548467  -0.002853  0.176583  0.508238  -0.003041  4.073872  -0.003
C  C11  1  0.26901989  0.73296898  0.24149719  1  1.54865  -0.002855  0.176444  0.507994  -0.003043  4.074057  -0.003
C  C12  1  0.26901546  0.24149763  0.73297701  1  1.54847  -0.002853  0.176573  0.508269  -0.003042  4.073824  -0.003
C  C13  1  0.73098127  0.26702841  0.75850252  1  1.548467  -0.002856  0.176478  0.507999  -0.003044  4.074025  -0.003
O  O14  1  0.77154676  0.90893770  0.22894404  1  -1.110964  0.115324  -0.28945  -0.480654  0.06075  2.367878  0.098
O  O15  1  0.41929967  0.57867107  0.28093468  1  -1.043286  0.023416  -0.27225  -0.423316  0.012203  2.423533  0.02
O  O16  1  0.58067184  0.71909009  0.42130468  1  -1.043479  0.023421  -0.272247  -0.423468  0.012205  2.42357  0.02
O  O17  1  0.22845183  0.77103474  0.09106575  1  -1.110925  0.115305  -0.289324  -0.480589  0.060738  2.367677  0.098
O  O18  1  0.22845236  0.09106114  0.77105598  1  -1.110933  0.115324  -0.289464  -0.480708  0.06075  2.367831  0.098
O  O19  1  0.58070556  0.42133214  0.71906440  1  -1.04312  0.023418  -0.272288  -0.423353  0.012203  2.423513  0.02
O  O20  1  0.41932883  0.28090878  0.57869587  1  -1.043556  0.023421  -0.272217  -0.423454  0.012204  2.423508  0.02
O  O21  1  0.77155387  0.22896259  0.90893190  1  -1.110966  0.115305  -0.289309  -0.480587  0.060738  2.367698  0.098
O  O22  1  0.01708080  0.84201337  0.84200767  1  -1.127023  0.109894  -0.295315  -0.499877  0.057295  2.324604  0.096
O  O23  1  0.22024679  0.64404138  0.64404048  1  -1.044509  0.023531  -0.278594  -0.442897  0.012104  2.39271  0.02
O  O24  1  0.77975165  0.35596314  0.35595491  1  -1.044527  0.02353  -0.278624  -0.442912  0.012103  2.39275  0.02
O  O25  1  0.98292340  0.15798837  0.15799127  1  -1.127031  0.109895  -0.295282  -0.499907  0.057296  2.324639  0.096
