# generated using pymatgen
data_Zn2H6C14SO7F
_symmetry_space_group_name_H-M   'P 1'
_cell_length_a   18.54481037
_cell_length_b   19.72130197
_cell_length_c   32.80203325
_cell_angle_alpha   85.99728486
_cell_angle_beta   73.58865103
_cell_angle_gamma   61.96878368
_symmetry_Int_Tables_number   1
_chemical_formula_structural   Zn2H6C14SO7F
_chemical_formula_sum   'Zn16 H48 C112 S8 O56 F8'
_cell_volume   10129.75205513
_cell_formula_units_Z   8
loop_
 _symmetry_equiv_pos_site_id
 _symmetry_equiv_pos_as_xyz
  1  'x, y, z'
loop_
 _atom_site_type_symbol
 _atom_site_label
 _atom_site_symmetry_multiplicity
 _atom_site_fract_x
 _atom_site_fract_y
 _atom_site_fract_z
 _atom_site_occupancy
 _atom_site_pbe_bader_charge
 _atom_site_pbe_bader_spin_density
 _atom_site_pbe_cm5_charge
 _atom_site_pbe_ddec_charge
 _atom_site_pbe_ddec_spin_density
 _atom_site_pbe_ddec_sum_bond_order
 _atom_site_pbe_magmom
Zn  Zn0  1  0.87371230  0.55617501  0.51867617  1  1.314863  0  0.669342  0.953582  0  2.360676  0
Zn  Zn1  1  0.03844152  0.48486693  0.43797999  1  1.31208  0  0.675127  0.95789  0  2.407924  0
Zn  Zn2  1  0.04192806  0.39818580  0.52321653  1  1.317542  0  0.670464  0.963145  0  2.365098  0
Zn  Zn3  1  0.04593404  0.56046637  0.51842777  1  1.317702  0  0.670799  0.964358  0  2.362974  0
Zn  Zn4  1  0.62544001  0.19175743  0.73170805  1  1.305055  0  0.669305  0.958302  0  2.367814  0
Zn  Zn5  1  0.46313452  0.35067977  0.72543869  1  1.314234  0  0.671517  0.952542  0  2.39009  0
Zn  Zn6  1  0.45796802  0.26619021  0.81258319  1  1.312706  0  0.672992  0.9673  0  2.357749  0
Zn  Zn7  1  0.45259006  0.19328731  0.72977658  1  1.319985  0  0.671908  0.962165  0  2.383129  0
Zn  Zn8  1  0.46206587  0.76368550  0.31237064  1  1.300886  0  0.669946  0.955019  0  2.380834  0
Zn  Zn9  1  0.45265549  0.69159926  0.23109167  1  1.320456  0  0.674726  0.957956  0  2.401936  0
Zn  Zn10  1  0.62579198  0.69197002  0.22942693  1  1.313412  0  0.67021  0.963114  0  2.357169  0
Zn  Zn11  1  0.45899696  0.85069959  0.22582269  1  1.316537  0  0.671579  0.963046  0  2.373271  0
Zn  Zn12  1  0.03726368  0.89907363  0.02409399  1  1.313802  0  0.671427  0.957669  0  2.382023  0
Zn  Zn13  1  0.04877671  0.05728069  0.01899381  1  1.317201  0  0.671059  0.956227  0  2.377726  0
Zn  Zn14  1  0.87519683  0.05795588  0.01937840  1  1.308814  0  0.670135  0.959178  0  2.388053  0
Zn  Zn15  1  0.03728331  0.98578251  0.93745036  1  1.310372  0  0.670838  0.960411  0  2.377932  0
H  H16  1  0.80324191  0.96577225  0.65526677  1  0.115807  0  0.121638  0.14698  0  0.96744  0
H  H17  1  0.31123893  0.97614262  0.40152755  1  0.12423  0  0.121  0.145838  0  0.970073  0
H  H18  1  0.81392719  0.24306146  0.65216840  1  0.131609  0  0.114184  0.143365  0  0.985899  0
H  H19  1  0.54241739  0.48453423  0.62096352  1  0.04291  0  0.098542  0.10891  0  0.980511  0
H  H20  1  0.54759269  0.52474152  0.66637695  1  0.03213  0  0.098313  0.108893  0  0.979978  0
H  H21  1  0.64585854  0.57103775  0.61816440  1  0.047741  0  0.100009  0.11222  0  0.977779  0
H  H22  1  0.64043417  0.53089425  0.57284708  1  0.042132  0  0.099012  0.109923  0  0.98154  0
H  H23  1  0.29143715  0.60080015  0.29611705  1  0.085477  0  0.116919  0.148066  0  0.980137  0
H  H24  1  0.35222990  0.67431761  0.43277521  1  0.027107  0  0.096561  0.10474  0  0.985968  0
H  H25  1  0.26146226  0.76261454  0.43014725  1  0.074048  0  0.097453  0.107208  0  0.981101  0
H  H26  1  0.16492152  0.71369816  0.47723632  1  0.069939  0  0.100659  0.112968  0  0.976868  0
H  H27  1  0.25548554  0.62541778  0.47983811  1  0.057533  0  0.100676  0.113505  0  0.976232  0
H  H28  1  0.81250587  0.60052431  0.29559348  1  0.101191  0  0.114644  0.143659  0  0.985379  0
H  H29  1  0.54623081  0.76267798  0.42950159  1  0.074715  0  0.09758  0.106897  0  0.981091  0
H  H30  1  0.54093743  0.67448653  0.43204067  1  0.067085  0  0.096674  0.104888  0  0.985273  0
H  H31  1  0.63921835  0.62527824  0.47916271  1  0.052207  0  0.098134  0.108774  0  0.982362  0
H  H32  1  0.64463163  0.71333956  0.47662750  1  0.046987  0  0.100093  0.112501  0  0.976632  0
H  H33  1  0.30474158  0.45875373  0.64532385  1  0.140203  0  0.114512  0.144425  0  0.984923  0
H  H34  1  0.33248148  0.17794927  0.63047873  1  0.077957  0  0.098013  0.1077  0  0.981936  0
H  H35  1  0.24184123  0.21809451  0.67593234  1  0.067267  0  0.09925  0.110657  0  0.97784  0
H  H36  1  0.14555249  0.26822336  0.62771473  1  0.073384  0  0.10176  0.114602  0  0.974086  0
H  H37  1  0.23623865  0.22811079  0.58234414  1  0.063382  0  0.100822  0.112574  0  0.977118  0
H  H38  1  0.18884302  0.65952476  0.96237333  1  0.131769  0  0.123073  0.14809  0  0.966418  0
H  H39  1  0.68675137  0.14986521  0.95442153  1  0.130764  0  0.11557  0.145409  0  0.982779  0
H  H40  1  0.95771411  0.07635160  0.81785706  1  0.074249  0  0.099268  0.109765  0  0.97863  0
H  H41  1  0.95277193  0.98800854  0.82041657  1  0.082485  0  0.097934  0.107344  0  0.981486  0
H  H42  1  0.85457932  0.03687096  0.77329683  1  0.034266  0  0.100027  0.111302  0  0.975895  0
H  H43  1  0.85948562  0.12519721  0.77077251  1  0.050397  0  0.100977  0.113054  0  0.97565  0
H  H44  1  0.19527727  0.05240219  0.84358003  1  0.097611  0  0.11433  0.143654  0  0.985466  0
H  H45  1  0.16737271  0.21523542  0.97658727  1  0.043976  0  0.098328  0.107732  0  0.980925  0
H  H46  1  0.25822195  0.12701839  0.97917833  1  0.063564  0  0.097531  0.105872  0  0.983827  0
H  H47  1  0.35419666  0.17438938  0.92995773  1  0.065318  0  0.102898  0.116534  0  0.972656  0
H  H48  1  0.26341888  0.26252394  0.92746004  1  0.023082  0  0.101445  0.113933  0  0.975298  0
H  H49  1  0.92566713  0.28355509  0.09443725  1  0.108167  0  0.121697  0.146495  0  0.969163  0
H  H50  1  0.19503699  0.79189348  0.10420593  1  0.117545  0  0.115259  0.144623  0  0.98414  0
H  H51  1  0.25804986  0.03265325  0.07372354  1  0.055323  0  0.097161  0.105435  0  0.985712  0
H  H52  1  0.16711783  0.07281600  0.11911471  1  0.070572  0  0.097856  0.107537  0  0.980055  0
H  H53  1  0.26301704  0.02275416  0.16738393  1  0.070153  0  0.100969  0.113184  0  0.976158  0
H  H54  1  0.35390005  0.98253055  0.12209140  1  0.06264  0  0.102367  0.115793  0  0.973405  0
H  H55  1  0.68692447  0.00632361  0.09773553  1  0.102059  0  0.115351  0.145439  0  0.983427  0
H  H56  1  0.95298655  0.72440790  0.08369411  1  0.076087  0  0.09824  0.108034  0  0.980411  0
H  H57  1  0.95806363  0.76471548  0.12912375  1  0.044358  0  0.099453  0.109895  0  0.978905  0
H  H58  1  0.85983423  0.71863492  0.17715136  1  0.047467  0  0.102452  0.115755  0  0.973283  0
H  H59  1  0.85485305  0.67814918  0.13179795  1  0.045658  0  0.100757  0.112672  0  0.978264  0
H  H60  1  0.62186768  0.82143391  0.60706491  1  0.640924  0  0.340133  0.365816  0  0.869928  0
H  H61  1  0.21376021  0.26112785  0.31177993  1  0.625467  0  0.34253  0.366905  0  0.865318  0
H  H62  1  0.28584800  0.65227283  0.77522679  1  0.611848  0  0.342016  0.36758  0  0.866568  0
H  H63  1  0.55099940  0.42963010  0.14324408  1  0.625005  0  0.343783  0.369382  0  0.864815  0
C  C64  1  0.86214825  0.56819583  0.43064156  1  1.56958  0  0.226925  0.624821  0  4.181419  0
C  C65  1  0.12374917  0.31593851  0.43785004  1  1.578935  0  0.212186  0.619186  0  4.224679  0
C  C66  1  0.86391681  0.42940106  0.56845571  1  1.583262  0  0.226332  0.62453  0  4.178575  0
C  C67  1  0.13808518  0.43255230  0.56844600  1  1.580303  0  0.22845  0.627303  0  4.175395  0
C  C68  1  0.87407309  0.68423886  0.56095440  1  1.555915  0  0.211836  0.621429  0  4.222002  0
C  C69  1  0.13732747  0.56953889  0.43092006  1  1.562075  0  0.227483  0.623798  0  4.17979  0
C  C70  1  0.63992676  0.31723887  0.68095656  1  1.568355  0  0.227889  0.606604  0  4.174748  0
C  C71  1  0.37691458  0.43529219  0.81037081  1  1.558002  0  0.213056  0.62191  0  4.221264  0
C  C72  1  0.63606075  0.18159958  0.81958551  1  1.60839  0  0.227161  0.625872  0  4.178189  0
C  C73  1  0.36141735  0.18122210  0.81824906  1  1.57736  0  0.22779  0.62594  0  4.176608  0
C  C74  1  0.62349448  0.06596116  0.68863253  1  1.557845  0  0.216514  0.606172  0  4.222956  0
C  C75  1  0.36292035  0.31984431  0.68038792  1  1.562307  0  0.227561  0.606716  0  4.171201  0
C  C76  1  0.36225188  0.68093499  0.31909744  1  1.549632  0  0.228727  0.607995  0  4.174154  0
C  C77  1  0.62208446  0.56555298  0.18833202  1  1.519723  0  0.211699  0.619982  0  4.222739  0
C  C78  1  0.63850940  0.68085437  0.31820549  1  1.576702  0  0.228917  0.609943  0  4.171649  0
C  C79  1  0.63643969  0.81957920  0.18070489  1  1.575702  0  0.226549  0.626826  0  4.174706  0
C  C80  1  0.37683165  0.93318235  0.31165401  1  1.55162  0  0.216962  0.608036  0  4.221138  0
C  C81  1  0.36116381  0.81845846  0.18112145  1  1.583764  0  0.2271  0.625903  0  4.177319  0
C  C82  1  0.13769487  0.93042440  0.06874339  1  1.568504  0  0.229563  0.611843  0  4.16816  0
C  C83  1  0.87876861  0.18391587  0.06124698  1  1.539395  0  0.216651  0.607786  0  4.223377  0
C  C84  1  0.86091932  0.93183102  0.06897690  1  1.5739  0  0.229651  0.609761  0  4.170245  0
C  C85  1  0.86082954  0.06967807  0.93146502  1  1.571487  0  0.227286  0.6076  0  4.168738  0
C  C86  1  0.12183812  0.81581273  0.93889088  1  1.548907  0  0.217007  0.608038  0  4.222824  0
C  C87  1  0.13770798  0.06855356  0.93060813  1  1.551825  0  0.229351  0.609652  0  4.170106  0
C  C88  1  0.73544137  0.80279222  0.60092292  1  0.576355  0  0.082263  0.274312  0  4.102317  0
C  C89  1  0.76020846  0.94735148  0.64915867  1  0.01496  0  -0.085722  -0.127933  0  3.953645  0
C  C90  1  0.82381468  0.75851051  0.58603403  1  -0.089327  0  -0.039199  -0.238003  0  3.929303  0
C  C91  1  0.67259719  0.99110182  0.66372155  1  -0.172315  0  -0.023637  -0.111101  0  3.971492  0
C  C92  1  0.78348080  0.87872580  0.62620888  1  -0.114857  0  -0.022388  0.011033  0  4.098748  0
C  C93  1  0.71265351  0.87164831  0.62386383  1  -0.17672  0  -0.040616  -0.159568  0  4.121809  0
C  C94  1  0.20196399  0.22768473  0.36837251  1  0.563862  0  0.083896  0.273608  0  4.102994  0
C  C95  1  0.29880190  0.02234734  0.38011994  1  0.037367  0  -0.086504  -0.129197  0  3.959265  0
C  C96  1  0.17294976  0.24196229  0.41267333  1  -0.127868  0  -0.039214  -0.239234  0  3.93509  0
C  C97  1  0.32744691  0.00827121  0.33627325  1  -0.164586  0  -0.02413  -0.111208  0  3.972488  0
C  C98  1  0.25309096  0.10213625  0.39197414  1  -0.140327  0  -0.023681  0.007555  0  4.105132  0
C  C99  1  0.24786919  0.14737031  0.35670545  1  -0.12691  0  -0.038581  -0.154832  0  4.11329  0
C  C100  1  0.69641012  0.34585102  0.65253992  1  -0.048425  0  -0.011178  -0.048409  0  3.995182  0
C  C101  1  0.80839668  0.39987273  0.59712718  1  0.074909  0  -0.018188  -0.186848  0  3.94767  0
C  C102  1  0.66524032  0.41819932  0.63634908  1  -0.02778  0  -0.009398  0.044467  0  3.892468  0
C  C103  1  0.83852564  0.32673137  0.61407252  1  0.441585  0  0.107179  0.280409  0  4.031266  0
C  C104  1  0.71958984  0.44366516  0.60971197  1  -0.03751  0  0.000106  0.084382  0  3.888122  0
C  C105  1  0.78549292  0.30017895  0.64061545  1  0.075547  0  -0.096666  -0.23556  0  3.982282  0
C  C106  1  0.58534348  0.49160102  0.63546171  1  0.019638  0  -0.150647  -0.196862  0  3.889721  0
C  C107  1  0.64676991  0.52060687  0.60530070  1  -0.003898  0  -0.149588  -0.199716  0  3.879454  0
C  C108  1  0.30555773  0.65264946  0.34753054  1  -0.003359  0  -0.010658  -0.04767  0  3.995982  0
C  C109  1  0.19444813  0.59701747  0.40199894  1  0.018062  0  -0.018973  -0.188294  0  3.949873  0
C  C110  1  0.28044668  0.66447596  0.39178206  1  0.012398  0  -0.009648  0.043679  0  3.897431  0
C  C111  1  0.22096977  0.58551491  0.35692403  1  0.464491  0  0.108479  0.280289  0  4.032213  0
C  C112  1  0.22695235  0.63754623  0.41773202  1  -0.025966  0  -9.1e-05  0.085215  0  3.892314  0
C  C113  1  0.27421245  0.61194112  0.33048050  1  0.048718  0  -0.094422  -0.234602  0  3.975364  0
C  C114  1  0.28777369  0.69968820  0.42900942  1  -0.003062  0  -0.151523  -0.197187  0  3.893399  0
C  C115  1  0.22723362  0.66909466  0.45848945  1  -0.034149  0  -0.148355  -0.199337  0  3.875959  0
C  C116  1  0.69492654  0.65258866  0.34677778  1  -0.028342  0  -0.011115  -0.050884  0  3.996036  0
C  C117  1  0.80677071  0.59639464  0.40154632  1  0.0589  0  -0.017761  -0.187931  0  3.950277  0
C  C118  1  0.66371440  0.66445596  0.39106531  1  0.06672  0  -0.009534  0.044503  0  3.893921  0
C  C119  1  0.83706930  0.58512592  0.35648081  1  0.523938  0  0.109268  0.281444  0  4.028809  0
C  C120  1  0.71803494  0.63718395  0.41710941  1  -0.078494  0  -0.000612  0.085453  0  3.895202  0
C  C121  1  0.78401036  0.61178052  0.32993292  1  -0.014329  0  -0.095376  -0.232877  0  3.98084  0
C  C122  1  0.58390117  0.69973847  0.42829035  1  -0.06546  0  -0.1504  -0.194487  0  3.889873  0
C  C123  1  0.64541955  0.66890814  0.45783044  1  -0.010958  0  -0.150368  -0.200756  0  3.88007  0
C  C124  1  0.30546496  0.34835273  0.65236798  1  0.010347  0  -0.009946  -0.046833  0  3.990804  0
C  C125  1  0.19455365  0.40541528  0.59708693  1  0.012523  0  -0.0191  -0.189807  0  3.949117  0
C  C126  1  0.27271117  0.30496250  0.63996918  1  -0.01545  0  -0.007677  0.046803  0  3.892571  0
C  C127  1  0.22834139  0.44853651  0.61028635  1  0.430265  0  0.106075  0.2777  0  4.033446  0
C  C128  1  0.21944938  0.33284246  0.61336138  1  -0.001199  0  -0.000499  0.08315  0  3.887919  0
C  C129  1  0.28152430  0.42185332  0.63675352  1  0.023142  0  -0.095914  -0.234638  0  3.979105  0
C  C130  1  0.27073020  0.22884967  0.64367692  1  -0.060691  0  -0.151667  -0.199727  0  3.889833  0
C  C131  1  0.21045845  0.26024341  0.61352801  1  -0.025811  0  -0.147846  -0.196833  0  3.87382  0
C  C132  1  0.29839442  0.58367088  0.81994747  1  0.567157  0  0.082923  0.273273  0  4.105145  0
C  C133  1  0.20120878  0.66852308  0.92854710  1  0.079349  0  -0.085485  -0.126748  0  3.952549  0
C  C134  1  0.32761981  0.51004018  0.83482863  1  -0.117465  0  -0.039193  -0.239772  0  3.932945  0
C  C135  1  0.17208359  0.74132611  0.91366529  1  -0.206618  0  -0.023194  -0.110968  0  3.972384  0
C  C136  1  0.24717425  0.61085689  0.89455027  1  -0.198967  0  -0.022124  0.009405  0  4.099871  0
C  C137  1  0.25222494  0.64121210  0.85431119  1  -0.157924  0  -0.039234  -0.15682  0  4.117857  0
C  C138  1  0.80416044  0.09793300  0.90305442  1  0.000497  0  -0.009165  -0.04539  0  3.989137  0
C  C139  1  0.69179420  0.15374465  0.84855547  1  -0.042865  0  -0.019639  -0.189576  0  3.950521  0
C  C140  1  0.83509452  0.08605887  0.85879202  1  0.000964  0  -0.008237  0.045477  0  3.894303  0
C  C141  1  0.66186639  0.16501914  0.89361342  1  0.420336  0  0.10704  0.279316  0  4.031273  0
C  C142  1  0.78060268  0.11314341  0.83281413  1  0.051942  0  -0.000158  0.082556  0  3.887928  0
C  C143  1  0.71507351  0.13861815  0.92007398  1  0.024405  0  -0.09395  -0.232107  0  3.973724  0
C  C144  1  0.91491133  0.05093381  0.82160778  1  -0.061365  0  -0.150502  -0.197082  0  3.890654  0
C  C145  1  0.85337041  0.08154249  0.79208970  1  0.009272  0  -0.147971  -0.196558  0  3.876243  0
C  C146  1  0.19462610  0.09691188  0.90233249  1  -0.004656  0  -0.009961  -0.046553  0  3.991712  0
C  C147  1  0.30499261  0.15185229  0.84613698  1  0.047125  0  -0.018317  -0.187273  0  3.946959  0
C  C148  1  0.22712652  0.13746132  0.91781804  1  -0.01659  0  -0.009329  0.043092  0  3.896411  0
C  C149  1  0.27134461  0.11036516  0.83116215  1  0.457736  0  0.10778  0.2798  0  4.033238  0
C  C150  1  0.28012964  0.16368027  0.89056806  1  0.023465  0  0.000751  0.085087  0  3.888695  0
C  C151  1  0.21840075  0.08377903  0.85775790  1  0.008848  0  -0.096036  -0.234728  0  3.97999  0
C  C152  1  0.22912368  0.17001494  0.95771542  1  -0.020467  0  -0.150947  -0.195228  0  3.891634  0
C  C153  1  0.28924101  0.19968161  0.92691458  1  0.02215  0  -0.148914  -0.200635  0  3.872385  0
C  C154  1  0.64096204  0.44701593  0.14909630  1  0.584524  0  0.086215  0.277611  0  4.098659  0
C  C155  1  0.85808190  0.30208250  0.10063878  1  0.076191  0  -0.086674  -0.129158  0  3.95725  0
C  C156  1  0.67090475  0.49109756  0.16364458  1  -0.072287  0  -0.040003  -0.239598  0  3.932989  0
C  C157  1  0.82836488  0.25861233  0.08615674  1  -0.134092  0  -0.023889  -0.11151  0  3.973811  0
C  C158  1  0.79011149  0.37075017  0.12354919  1  -0.167194  0  -0.021935  0.010244  0  4.10325  0
C  C159  1  0.70965901  0.37806971  0.12609454  1  -0.19648  0  -0.038571  -0.156969  0  4.112622  0
C  C160  1  0.19452360  0.90221504  0.09704577  1  -0.018633  0  -0.011181  -0.052046  0  3.998085  0
C  C161  1  0.30468512  0.84556201  0.15258511  1  0.017632  0  -0.017795  -0.187239  0  3.949243  0
C  C162  1  0.22695209  0.94579301  0.10956608  1  0.023886  0  -0.009502  0.044228  0  3.897124  0
C  C163  1  0.27110839  0.80224780  0.13937500  1  0.450359  0  0.109101  0.281529  0  4.030063  0
C  C164  1  0.27989067  0.91806108  0.13630318  1  -0.026233  0  0.001153  0.08635  0  3.892623  0
C  C165  1  0.21820053  0.82883132  0.11277590  1  0.045147  0  -0.095695  -0.233311  0  3.978122  0
C  C166  1  0.22889963  0.02193472  0.10593795  1  -0.051636  0  -0.15072  -0.195768  0  3.89269  0
C  C167  1  0.28894834  0.99057810  0.13620384  1  -0.014278  0  -0.148597  -0.199975  0  3.87506  0
C  C168  1  0.80437715  0.90331259  0.09736290  1  0.054842  0  -0.010192  -0.048125  0  3.993058  0
C  C169  1  0.69215470  0.84933853  0.15251305  1  -0.051699  0  -0.01761  -0.187146  0  3.946593  0
C  C170  1  0.83540802  0.83100231  0.11355932  1  -0.030701  0  -0.00863  0.046232  0  3.893443  0
C  C171  1  0.66214839  0.92263087  0.13569771  1  0.46449  0  0.10788  0.281379  0  4.028613  0
C  C172  1  0.78095472  0.80553192  0.14009245  1  0.070419  0  0.000869  0.083952  0  3.888373  0
C  C173  1  0.71528581  0.94916768  0.10925949  1  -0.001396  0  -0.09569  -0.234996  0  3.978051  0
C  C174  1  0.91521328  0.75764903  0.11457505  1  -0.030917  0  -0.150807  -0.197515  0  3.890596  0
C  C175  1  0.85368933  0.72869466  0.14466524  1  0.014234  0  -0.148751  -0.200074  0  3.876953  0
S  S176  1  0.87818784  0.80106721  0.60017373  1  0.269651  0  0.072676  0.117697  0  2.752647  0
S  S177  1  0.61760696  0.94931805  0.64971303  1  0.237721  0  0.066105  0.109688  0  2.775887  0
S  S178  1  0.20176643  0.15778984  0.43954119  1  0.2639  0  0.07017  0.115826  0  2.756431  0
S  S179  1  0.29914597  0.09180770  0.30901587  1  0.235596  0  0.067107  0.110814  0  2.771934  0
S  S180  1  0.29881119  0.51167250  0.89038103  1  0.316721  0  0.074091  0.121074  0  2.749184  0
S  S181  1  0.20039793  0.74049217  0.85826180  1  0.283362  0  0.066124  0.1094  0  2.773669  0
S  S182  1  0.78191077  0.44827933  0.14927999  1  0.275631  0  0.070491  0.115753  0  2.754655  0
S  S183  1  0.71763196  0.30061668  0.10026965  1  0.2484  0  0.069483  0.114689  0  2.769921  0
O  O184  1  0.99893069  0.50038538  0.50049798  1  -1.228055  0  -0.571248  -1.029836  0  2.533262  0
O  O185  1  0.82333075  0.58286257  0.47054619  1  -1.159098  0  -0.310706  -0.540761  0  2.314722  0
O  O186  1  0.10273267  0.37647733  0.41740413  1  -1.154761  0  -0.31161  -0.518788  0  2.338798  0
O  O187  1  0.94409086  0.38655245  0.55893161  1  -1.159919  0  -0.313473  -0.542295  0  2.365301  0
O  O188  1  0.94220047  0.53238717  0.41381458  1  -1.147317  0  -0.310309  -0.535307  0  2.376331  0
O  O189  1  0.82459022  0.49649629  0.55592008  1  -1.165502  0  -0.310032  -0.537907  0  2.316714  0
O  O190  1  0.10619568  0.31299343  0.47854638  1  -1.172222  0  -0.325577  -0.555942  0  2.325843  0
O  O191  1  0.11583335  0.38443328  0.55931370  1  -1.160882  0  -0.309302  -0.535999  0  2.312947  0
O  O192  1  0.95527673  0.65712417  0.55102781  1  -1.162265  0  -0.323769  -0.551728  0  2.329425  0
O  O193  1  0.11699199  0.49977567  0.55556089  1  -1.166357  0  -0.314411  -0.544529  0  2.363918  0
O  O194  1  0.83352804  0.65342037  0.55125047  1  -1.158909  0  -0.315023  -0.529116  0  2.3289  0
O  O195  1  0.11218384  0.53159933  0.41405908  1  -1.150561  0  -0.310278  -0.535592  0  2.375546  0
O  O196  1  0.11854389  0.58686800  0.47076662  1  -1.148129  0  -0.310576  -0.539086  0  2.312151  0
O  O197  1  0.50054228  0.25003064  0.74998846  1  -1.221185  0  -0.570852  -1.02932  0  2.534067  0
O  O198  1  0.67554532  0.25020773  0.69410888  1  -1.178565  0  -0.31452  -0.544206  0  2.332436  0
O  O199  1  0.39864473  0.43549756  0.76983913  1  -1.154279  0  -0.314438  -0.525727  0  2.335788  0
O  O200  1  0.55593406  0.21859016  0.83617820  1  -1.162511  0  -0.313195  -0.543348  0  2.364516  0
O  O201  1  0.56005616  0.36301874  0.68966329  1  -1.166006  0  -0.307877  -0.532678  0  2.332308  0
O  O202  1  0.67519467  0.16517310  0.77976405  1  -1.16612  0  -0.310742  -0.539068  0  2.319212  0
O  O203  1  0.39376680  0.37590606  0.83227801  1  -1.167797  0  -0.325535  -0.555216  0  2.328112  0
O  O204  1  0.38392618  0.21896935  0.83757841  1  -1.169492  0  -0.308661  -0.536549  0  2.312403  0
O  O205  1  0.54235270  0.09580393  0.69753846  1  -1.147438  0  -0.318878  -0.542968  0  2.335904  0
O  O206  1  0.38243985  0.16678601  0.77819418  1  -1.16764  0  -0.313949  -0.543592  0  2.36882  0
O  O207  1  0.66589913  0.09409690  0.69903011  1  -1.1674  0  -0.317195  -0.539905  0  2.31053  0
O  O208  1  0.38908178  0.36463999  0.68953776  1  -1.166632  0  -0.313146  -0.540777  0  2.333984  0
O  O209  1  0.38113509  0.25230501  0.69281626  1  -1.164349  0  -0.308498  -0.53544  0  2.329751  0
O  O210  1  0.50069887  0.74986846  0.24989359  1  -1.218501  0  -0.571536  -1.02941  0  2.534937  0
O  O211  1  0.38745863  0.71744865  0.33742999  1  -1.162397  0  -0.309989  -0.539686  0  2.3291  0
O  O212  1  0.54111794  0.59507117  0.19883674  1  -1.13428  0  -0.311381  -0.520299  0  2.339179  0
O  O213  1  0.67418334  0.66664843  0.27815890  1  -1.180037  0  -0.314472  -0.54336  0  2.329003  0
O  O214  1  0.38073827  0.66648272  0.27910570  1  -1.155005  0  -0.311492  -0.536026  0  2.339674  0
O  O215  1  0.55859899  0.71714021  0.33675103  1  -1.171052  0  -0.310254  -0.538148  0  2.331328  0
O  O216  1  0.66571619  0.59444801  0.19718135  1  -1.171015  0  -0.326651  -0.557932  0  2.325298  0
O  O217  1  0.67524948  0.75161738  0.19235770  1  -1.163365  0  -0.309465  -0.538975  0  2.313741  0
O  O218  1  0.39490411  0.93502267  0.27105523  1  -1.14718  0  -0.320035  -0.54659  0  2.336406  0
O  O219  1  0.55631364  0.86313396  0.19070573  1  -1.159382  0  -0.31372  -0.543622  0  2.367138  0
O  O220  1  0.39693051  0.87347143  0.33288608  1  -1.169455  0  -0.316876  -0.538675  0  2.312361  0
O  O221  1  0.38175652  0.75144302  0.19413716  1  -1.163042  0  -0.311444  -0.540293  0  2.374867  0
O  O222  1  0.38421691  0.86615212  0.19005104  1  -1.160806  0  -0.310193  -0.538416  0  2.312952  0
O  O223  1  0.00004838  0.99994195  0.99994175  1  -1.222149  0  -0.571475  -1.028065  0  2.536993  0
O  O224  1  0.11172580  0.88545871  0.05956686  1  -1.172752  0  -0.314319  -0.543109  0  2.334373  0
O  O225  1  0.95973690  0.15494794  0.05149652  1  -1.157676  0  -0.317105  -0.539682  0  2.314819  0
O  O226  1  0.82526564  0.99946069  0.05655977  1  -1.175206  0  -0.314503  -0.541882  0  2.334256  0
O  O227  1  0.11985398  0.99777031  0.05609427  1  -1.171332  0  -0.309961  -0.538475  0  2.329348  0
O  O228  1  0.94082157  0.88558479  0.05947709  1  -1.167815  0  -0.308885  -0.537563  0  2.33114  0
O  O229  1  0.83621222  0.15489635  0.05163674  1  -1.173655  0  -0.320225  -0.546036  0  2.341385  0
O  O230  1  0.82525643  0.08495001  0.97148210  1  -1.171435  0  -0.312954  -0.540347  0  2.3339  0
O  O231  1  0.10221633  0.87585802  0.91770607  1  -1.175896  0  -0.320998  -0.548133  0  2.336768  0
O  O232  1  0.94072308  0.03231051  0.91303536  1  -1.168127  0  -0.309017  -0.538358  0  2.328838  0
O  O233  1  0.10242867  0.81378845  0.97936239  1  -1.151266  0  -0.315639  -0.536977  0  2.314991  0
O  O234  1  0.11986461  0.08324265  0.97060139  1  -1.149451  0  -0.309408  -0.538378  0  2.32917  0
O  O235  1  0.11170345  0.03233274  0.91270600  1  -1.171165  0  -0.314256  -0.542155  0  2.332444  0
O  O236  1  0.67980110  0.78161330  0.59390980  1  -1.136344  0  -0.33482  -0.402862  0  2.272918  0
O  O237  1  0.18729550  0.28417849  0.34096973  1  -1.120936  0  -0.327606  -0.390745  0  2.274577  0
O  O238  1  0.31297859  0.59689991  0.77799912  1  -1.105011  0  -0.331717  -0.397442  0  2.274184  0
O  O239  1  0.55710817  0.46871204  0.15641066  1  -1.112556  0  -0.329737  -0.395266  0  2.274734  0
F  F240  1  0.92346148  0.27790163  0.60473327  1  -0.624497  0  -0.105747  -0.142115  0  1.346338  0
F  F241  1  0.19443151  0.54703618  0.33711780  1  -0.623595  0  -0.101853  -0.136262  0  1.347272  0
F  F242  1  0.92189184  0.54648798  0.33676565  1  -0.629368  0  -0.102226  -0.136362  0  1.345795  0
F  F243  1  0.20960568  0.52019553  0.59698665  1  -0.62389  0  -0.106928  -0.142681  0  1.346429  0
F  F244  1  0.57696274  0.20338150  0.91339579  1  -0.630516  0  -0.104828  -0.140687  0  1.34572  0
F  F245  1  0.29002892  0.09450303  0.78869228  1  -0.626216  0  -0.105215  -0.140767  0  1.346803  0
F  F246  1  0.28978180  0.73072485  0.15270437  1  -0.623997  0  -0.102673  -0.137204  0  1.34527  0
F  F247  1  0.57724105  0.97158855  0.14504976  1  -0.63061  0  -0.106271  -0.14268  0  1.344917  0
