# generated using pymatgen
data_ZnH23C32N5O4
_symmetry_space_group_name_H-M   'P 1'
_cell_length_a   9.80598541
_cell_length_b   10.08643122
_cell_length_c   14.97609223
_cell_angle_alpha   72.88941811
_cell_angle_beta   84.23013705
_cell_angle_gamma   63.62069592
_symmetry_Int_Tables_number   1
_chemical_formula_structural   ZnH23C32N5O4
_chemical_formula_sum   'Zn2 H46 C64 N10 O8'
_cell_volume   1267.48377883
_cell_formula_units_Z   2
loop_
 _symmetry_equiv_pos_site_id
 _symmetry_equiv_pos_as_xyz
  1  'x, y, z'
loop_
 _atom_site_type_symbol
 _atom_site_label
 _atom_site_symmetry_multiplicity
 _atom_site_fract_x
 _atom_site_fract_y
 _atom_site_fract_z
 _atom_site_occupancy
 _atom_site_hle17_bader_spin_density
 _atom_site_hle17_ddec_charge
 _atom_site_hle17_ddec_spin_density
 _atom_site_hle17_ddec_sum_bond_order
 _atom_site_hle17_magmom
 _atom_site_hse06_10hf_bader_spin_density
 _atom_site_hse06_10hf_ddec_charge
 _atom_site_hse06_10hf_ddec_spin_density
 _atom_site_hse06_10hf_ddec_sum_bond_order
 _atom_site_hse06_10hf_magmom
 _atom_site_hse06_bader_spin_density
 _atom_site_hse06_ddec_charge
 _atom_site_hse06_ddec_spin_density
 _atom_site_hse06_ddec_sum_bond_order
 _atom_site_hse06_magmom
 _atom_site_pbe_bader_spin_density
 _atom_site_pbe_cm5_charge
 _atom_site_pbe_ddec_charge
 _atom_site_pbe_ddec_spin_density
 _atom_site_pbe_ddec_sum_bond_order
 _atom_site_pbe_magmom
Zn  Zn0  1  0.26841748  0.27337470  0.34638522  1  0  1.005185  0  1.80466  0  0  0.818555  0  2.255873  0  0  0.869464  0  2.202155  0  0  0.683456  0.782514  0  2.292612  0
Zn  Zn1  1  0.73157314  0.72663319  0.65361553  1  0  1.00515  0  1.804738  0  0  0.818525  0  2.255953  0  0  0.869445  0  2.202235  0  0  0.683978  0.783144  0  2.292588  0
H  H2  1  0.54452147  0.35277120  0.54249266  1  0  0.095227  0  0.954812  0  0  0.107732  0  1.013008  0  0  0.110325  0  1.011807  0  0  0.102411  0.10584  0  1.013902  0
H  H3  1  0.45548188  0.64723094  0.45750774  1  0  0.095274  0  0.954794  0  0  0.107779  0  1.012989  0  0  0.110374  0  1.011785  0  0  0.102442  0.105935  0  1.013815  0
H  H4  1  0.58510739  0.41828592  0.68219537  1  0  0.117107  0  0.96327  0  0  0.127822  0  1.022554  0  0  0.131015  0  1.021444  0  0  0.105773  0.12524  0  1.023666  0
H  H5  1  0.41489643  0.58171276  0.31780635  1  0  0.117097  0  0.963331  0  0  0.127843  0  1.022575  0  0  0.131034  0  1.021466  0  0  0.105878  0.125376  0  1.023652  0
H  H6  1  0.10982451  0.54924897  0.74563921  1  0  0.115159  0  0.97612  0  0  0.123965  0  1.039531  0  0  0.127518  0  1.037982  0  0  0.100028  0.121277  0  1.041  0
H  H7  1  0.89017730  0.45075201  0.25435885  1  0  0.115159  0  0.976139  0  0  0.12395  0  1.039567  0  0  0.127503  0  1.038019  0  0  0.100127  0.121401  0  1.041021  0
H  H8  1  0.06959812  0.50096055  0.60111325  1  0  0.110921  0  0.991502  0  0  0.118699  0  1.057782  0  0  0.122107  0  1.054849  0  0  0.101972  0.116282  0  1.059768  0
H  H9  1  0.93040208  0.49903467  0.39888672  1  0  0.110913  0  0.991503  0  0  0.118697  0  1.057786  0  0  0.122105  0  1.054831  0  0  0.102029  0.116356  0  1.059705  0
H  H10  1  0.20038817  0.38506865  0.88772610  1  0  0.103253  0  0.971346  0  0  0.111369  0  1.036843  0  0  0.114327  0  1.036855  0  0  0.098949  0.109545  0  1.036526  0
H  H11  1  0.79961159  0.61493233  0.11227142  1  0  0.10324  0  0.971292  0  0  0.111358  0  1.036799  0  0  0.114315  0  1.036809  0  0  0.098872  0.109434  0  1.036531  0
H  H12  1  0.13054565  0.36450776  0.05221866  1  0  0.093753  0  0.964234  0  0  0.102314  0  1.031321  0  0  0.105165  0  1.029672  0  0  0.099862  0.100374  0  1.033037  0
H  H13  1  0.86945255  0.63549206  0.94778053  1  0  0.093786  0  0.964229  0  0  0.102343  0  1.031317  0  0  0.105193  0  1.029668  0  0  0.09984  0.100355  0  1.033072  0
H  H14  1  0.33134290  0.65993434  0.06612781  1  0  0.086932  0  0.984546  0  0  0.095532  0  1.051947  0  0  0.098146  0  1.050576  0  0  0.097883  0.093705  0  1.053037  0
H  H15  1  0.66866090  0.34006203  0.93387236  1  0  0.086937  0  0.984533  0  0  0.095542  0  1.051928  0  0  0.098155  0  1.050561  0  0  0.097854  0.09366  0  1.053024  0
H  H16  1  0.39599683  0.68771461  0.90003877  1  0  0.096829  0  0.966452  0  0  0.104953  0  1.032591  0  0  0.108048  0  1.032082  0  0  0.098533  0.103208  0  1.032583  0
H  H17  1  0.60400700  0.31228407  0.09996162  1  0  0.096825  0  0.966514  0  0  0.104969  0  1.032611  0  0  0.108068  0  1.0321  0  0  0.098552  0.10322  0  1.032641  0
H  H18  1  0.57473399  0.92719271  0.41699081  1  0  0.11898  0  0.955006  0  0  0.126606  0  1.016039  0  0  0.129604  0  1.01475  0  0  0.121059  0.124455  0  1.016935  0
H  H19  1  0.42525817  0.07281403  0.58300273  1  0  0.118981  0  0.955029  0  0  0.126599  0  1.016064  0  0  0.129593  0  1.014785  0  0  0.121092  0.124477  0  1.016927  0
H  H20  1  0.39282439  0.21502609  0.14817605  1  0  0.083694  0  1.000078  0  0  0.091796  0  1.069182  0  0  0.093456  0  1.067247  0  0  0.132279  0.090641  0  1.070317  0
H  H21  1  0.60716723  0.78497950  0.85182443  1  0  0.083676  0  1.000116  0  0  0.091774  0  1.06923  0  0  0.093442  0  1.067272  0  0  0.132287  0.090659  0  1.070333  0
H  H22  1  0.76987323  0.80458439  0.28561603  1  0  0.114435  0  0.972718  0  0  0.12489  0  1.033857  0  0  0.12682  0  1.033929  0  0  0.122747  0.123333  0  1.034221  0
H  H23  1  0.23012295  0.19541774  0.71438551  1  0  0.114419  0  0.972689  0  0  0.124889  0  1.033819  0  0  0.126821  0  1.033891  0  0  0.122848  0.123423  0  1.034166  0
H  H24  1  0.46107883  0.17542222  0.02115546  1  0  0.096839  0  0.979988  0  0  0.107138  0  1.043649  0  0  0.109049  0  1.044388  0  0  0.10279  0.106286  0  1.042246  0
H  H25  1  0.53891637  0.82458222  0.97884234  1  0  0.096797  0  0.979989  0  0  0.107109  0  1.04363  0  0  0.109018  0  1.044376  0  0  0.102817  0.106297  0  1.042197  0
H  H26  1  0.58012538  0.18038525  0.86949384  1  0  0.101068  0  0.940492  0  0  0.111322  0  1.00129  0  0  0.114135  0  1.000383  0  0  0.104515  0.109382  0  1.001821  0
H  H27  1  0.41987637  0.81961112  0.13050580  1  0  0.101189  0  0.94041  0  0  0.111424  0  1.001222  0  0  0.114237  0  1.000314  0  0  0.104637  0.109573  0  1.001753  0
H  H28  1  0.00569868  0.82171058  0.00504247  1  0  0.094629  0  0.969932  0  0  0.103561  0  1.035404  0  0  0.105317  0  1.036485  0  0  0.100598  0.102495  0  1.034453  0
H  H29  1  0.99429595  0.17829040  0.99496007  1  0  0.094665  0  0.969791  0  0  0.103604  0  1.035252  0  0  0.105365  0  1.036328  0  0  0.100516  0.102435  0  1.03427  0
H  H30  1  0.88953666  0.81984313  0.15814967  1  0  0.107124  0  0.952656  0  0  0.12002  0  1.008911  0  0  0.122625  0  1.008279  0  0  0.108429  0.11815  0  1.009572  0
H  H31  1  0.11045645  0.18015900  0.84185140  1  0  0.107145  0  0.95264  0  0  0.120032  0  1.008895  0  0  0.122638  0  1.008264  0  0  0.108451  0.118173  0  1.009531  0
H  H32  1  0.77170278  0.26373921  0.78965479  1  0  0.100972  0  0.985506  0  0  0.107866  0  1.053188  0  0  0.110686  0  1.051888  0  0  0.099979  0.105713  0  1.054485  0
H  H33  1  0.22829899  0.73625947  0.21034640  1  0  0.100946  0  0.985508  0  0  0.107837  0  1.053199  0  0  0.110657  0  1.051897  0  0  0.09993  0.105645  0  1.054509  0
H  H34  1  0.89625616  0.28533618  0.64035072  1  0  0.122322  0  0.977192  0  0  0.130146  0  1.039415  0  0  0.133463  0  1.037909  0  0  0.105716  0.127683  0  1.040682  0
H  H35  1  0.10374813  0.71465904  0.35965099  1  0  0.122327  0  0.977053  0  0  0.130107  0  1.039348  0  0  0.133421  0  1.037847  0  0  0.105727  0.127655  0  1.040601  0
H  H36  1  0.13812699  0.78738719  0.71032687  1  0  0.099034  0  0.988552  0  0  0.107753  0  1.054777  0  0  0.110409  0  1.053968  0  0  0.102395  0.105696  0  1.055518  0
H  H37  1  0.86187428  0.21261264  0.28967479  1  0  0.099007  0  0.988583  0  0  0.107725  0  1.054801  0  0  0.110396  0  1.053976  0  0  0.102457  0.105749  0  1.055507  0
H  H38  1  0.00777644  0.76739273  0.85827214  1  0  0.090925  0  0.970955  0  0  0.100112  0  1.037681  0  0  0.102213  0  1.03726  0  0  0.0992  0.098492  0  1.038179  0
H  H39  1  0.99222379  0.23260479  0.14172737  1  0  0.090981  0  0.97086  0  0  0.100097  0  1.037662  0  0  0.102198  0  1.037239  0  0  0.099196  0.098511  0  1.03811  0
H  H40  1  0.03851752  0.29098092  0.52539105  1  0  0.111811  0  0.963485  0  0  0.116234  0  1.033618  0  0  0.119153  0  1.03023  0  0  0.138707  0.114038  0  1.036004  0
H  H41  1  0.96148577  0.70901661  0.47461227  1  0  0.111843  0  0.963482  0  0  0.116185  0  1.033675  0  0  0.119165  0  1.030217  0  0  0.13874  0.11404  0  1.036028  0
H  H42  1  0.30268739  0.92801352  0.40557171  1  0  0.107973  0  0.953124  0  0  0.117546  0  1.013216  0  0  0.119693  0  1.012876  0  0  0.121092  0.116196  0  1.013261  0
H  H43  1  0.69730930  0.07198745  0.59442668  1  0  0.10799  0  0.95315  0  0  0.117556  0  1.01325  0  0  0.119702  0  1.012911  0  0  0.1211  0.116238  0  1.013221  0
H  H44  1  0.20585477  0.80609953  0.57575177  1  0  0.119433  0  0.957095  0  0  0.131092  0  1.014484  0  0  0.13319  0  1.01416  0  0  0.126075  0.129595  0  1.014716  0
H  H45  1  0.79414245  0.19390260  0.42424703  1  0  0.119394  0  0.957142  0  0  0.131053  0  1.014532  0  0  0.133149  0  1.014212  0  0  0.126107  0.1296  0  1.014715  0
H  H46  1  0.48195379  0.53920667  0.79403655  1  0  0.297163  0  0.929037  0  0  0.278754  0  0.996072  0  0  0.286688  0  0.989673  0  0  0.300893  0.273279  0  1.000414  0
H  H47  1  0.51804748  0.46079316  0.20596311  1  0  0.297203  0  0.929029  0  0  0.278775  0  0.996083  0  0  0.286708  0  0.989684  0  0  0.300878  0.273283  0  1.00042  0
C  C48  1  0.27650650  0.39730647  0.47433097  1  0  0.622151  0  3.930292  0  0  0.573492  0  4.22076  0  0  0.607637  0  4.214826  0  0  0.190388  0.550465  0  4.22401  0
C  C49  1  0.72350034  0.60268760  0.52566947  1  0  0.622117  0  3.93052  0  0  0.573464  0  4.220978  0  0  0.607612  0  4.215042  0  0  0.190395  0.550455  0  4.224164  0
C  C50  1  0.30374974  0.42651861  0.56102191  1  0  -0.100267  0  3.8091  0  0  -0.077754  0  4.044604  0  0  -0.089026  0  4.06994  0  0  -0.035721  -0.070427  0  4.027434  0
C  C51  1  0.69625253  0.57347891  0.43897880  1  0  -0.100288  0  3.809134  0  0  -0.077758  0  4.044622  0  0  -0.089028  0  4.069954  0  0  -0.035784  -0.07048  0  4.027428  0
C  C52  1  0.45010958  0.39749578  0.58689417  1  0  -0.057744  0  3.791644  0  0  -0.081418  0  4.041374  0  0  -0.078146  0  4.061056  0  0  -0.088546  -0.083418  0  4.027868  0
C  C53  1  0.54989220  0.60250289  0.41310568  1  0  -0.057844  0  3.79166  0  0  -0.081528  0  4.041397  0  0  -0.078257  0  4.06108  0  0  -0.088493  -0.083464  0  4.027857  0
C  C54  1  0.47357868  0.43112529  0.66560845  1  0  -0.179475  0  3.722908  0  0  -0.197706  0  3.977063  0  0  -0.204378  0  3.996663  0  0  -0.103676  -0.193535  0  3.963934  0
C  C55  1  0.52642266  0.56887916  0.33438962  1  0  -0.179442  0  3.722787  0  0  -0.197682  0  3.976969  0  0  -0.204353  0  3.996571  0  0  -0.103616  -0.193494  0  3.963866  0
C  C56  1  0.35210617  0.48661689  0.72437335  1  0  0.250139  0  3.827528  0  0  0.24074  0  4.079257  0  0  0.252345  0  4.098433  0  0  0.094215  0.233082  0  4.065936  0
C  C57  1  0.64789766  0.51338179  0.27562704  1  0  0.250168  0  3.827412  0  0  0.2407  0  4.079239  0  0  0.252302  0  4.098418  0  0  0.094197  0.233081  0  4.065945  0
C  C58  1  0.20640412  0.50764049  0.70174757  1  0  -0.205397  0  3.748152  0  0  -0.220878  0  4.002992  0  0  -0.228283  0  4.022669  0  0  -0.111831  -0.216123  0  3.990139  0
C  C59  1  0.79360018  0.49235473  0.29825281  1  0  -0.205369  0  3.748076  0  0  -0.220811  0  4.002906  0  0  -0.228216  0  4.022584  0  0  -0.111668  -0.215982  0  3.990038  0
C  C60  1  0.18308128  0.48149314  0.61948829  1  0  -0.077412  0  3.772439  0  0  -0.101471  0  4.022941  0  0  -0.098694  0  4.042554  0  0  -0.095927  -0.103469  0  4.009649  0
C  C61  1  0.81692050  0.51850553  0.38051156  1  0  -0.077391  0  3.772341  0  0  -0.101472  0  4.022852  0  0  -0.098682  0  4.042455  0  0  -0.095883  -0.103404  0  4.009497  0
C  C62  1  0.31195582  0.53152579  0.88327713  1  0  0.264389  0  3.80276  0  0  0.25533  0  4.050179  0  0  0.267838  0  4.068912  0  0  0.104284  0.247061  0  4.036868  0
C  C63  1  0.68804394  0.46847519  0.11672239  1  0  0.264426  0  3.802767  0  0  0.255349  0  4.050203  0  0  0.267855  0  4.068933  0  0  0.104343  0.247128  0  4.036919  0
C  C64  1  0.22746214  0.44805449  0.92547853  1  0  -0.189301  0  3.718369  0  0  -0.203568  0  3.969068  0  0  -0.211056  0  3.98824  0  0  -0.103833  -0.197897  0  3.955171  0
C  C65  1  0.77253911  0.55194303  0.07452159  1  0  -0.189291  0  3.718329  0  0  -0.203556  0  3.969024  0  0  -0.211042  0  3.988195  0  0  -0.104036  -0.198066  0  3.955226  0
C  C66  1  0.18819788  0.43624285  0.01866201  1  0  -0.062607  0  3.773554  0  0  -0.084788  0  4.024832  0  0  -0.080787  0  4.043466  0  0  -0.090043  -0.087751  0  4.012904  0
C  C67  1  0.81180337  0.56375468  0.98133810  1  0  -0.062685  0  3.773593  0  0  -0.08486  0  4.024868  0  0  -0.08086  0  4.043503  0  0  -0.09013  -0.087901  0  4.012953  0
C  C68  1  0.23029666  0.50658617  0.07223113  1  0  -0.121504  0  3.806733  0  0  -0.100981  0  4.047585  0  0  -0.112468  0  4.071269  0  0  -0.043277  -0.0938  0  4.031909  0
C  C69  1  0.76970409  0.49341250  0.92776946  1  0  -0.121462  0  3.806743  0  0  -0.10094  0  4.047582  0  0  -0.112428  0  4.071269  0  0  -0.043357  -0.093814  0  4.031848  0
C  C70  1  0.30101845  0.60151949  0.02660888  1  0  -0.049765  0  3.788282  0  0  -0.072681  0  4.035684  0  0  -0.068338  0  4.054194  0  0  -0.088988  -0.075706  0  4.023468  0
C  C71  1  0.69898383  0.39847804  0.97339184  1  0  -0.049773  0  3.788297  0  0  -0.072694  0  4.035709  0  0  -0.068353  0  4.05422  0  0  -0.088993  -0.07566  0  4.023439  0
C  C72  1  0.33822203  0.61637060  0.93400940  1  0  -0.174743  0  3.743667  0  0  -0.190314  0  3.996429  0  0  -0.19775  0  4.0168  0  0  -0.100742  -0.184855  0  3.982539  0
C  C73  1  0.66178077  0.38362808  0.06599106  1  0  -0.174785  0  3.74377  0  0  -0.190358  0  3.996529  0  0  -0.197797  0  4.0169  0  0  -0.100873  -0.185056  0  3.982766  0
C  C74  1  0.23060855  0.46075347  0.17624217  1  0  0.612924  0  3.941148  0  0  0.565693  0  4.229623  0  0  0.599942  0  4.223137  0  0  0.189257  0.542635  0  4.233094  0
C  C75  1  0.76939323  0.53924521  0.82375835  1  0  0.612826  0  3.941327  0  0  0.56562  0  4.229773  0  0  0.59987  0  4.22329  0  0  0.189159  0.542556  0  4.233157  0
C  C76  1  0.56701378  0.97123196  0.34133844  1  0  0.020328  0  3.695873  0  0  -0.013056  0  3.962391  0  0  -0.011098  0  3.981408  0  0  0.004538  -0.014279  0  3.948847  0
C  C77  1  0.43298091  0.02877363  0.65865917  1  0  0.020181  0  3.696109  0  0  -0.013205  0  3.962653  0  0  -0.011252  0  3.981675  0  0  0.004555  -0.014303  0  3.948999  0
C  C78  1  0.46774710  0.12207820  0.20400062  1  0  0.167196  0  3.649733  0  0  0.107942  0  3.907766  0  0  0.122419  0  3.920021  0  0  0.141379  0.09827  0  3.899312  0
C  C79  1  0.53224859  0.87792508  0.79599605  1  0  0.167139  0  3.649747  0  0  0.107855  0  3.907737  0  0  0.122333  0  3.919997  0  0  0.141442  0.098264  0  3.899234  0
C  C80  1  0.66515669  0.90917361  0.27695463  1  0  -0.053025  0  3.648025  0  0  -0.097533  0  3.912299  0  0  -0.096333  0  3.931966  0  0  0.003751  -0.097915  0  3.898722  0
C  C81  1  0.33484723  0.09083199  0.72304171  1  0  -0.052906  0  3.648063  0  0  -0.097464  0  3.912322  0  0  -0.096266  0  3.931989  0  0  0.003828  -0.097752  0  3.898596  0
C  C82  1  0.66736303  0.99859034  0.10088006  1  0  0.172463  0  3.775732  0  0  0.165009  0  4.022155  0  0  0.170974  0  4.043581  0  0  0.094519  0.161311  0  4.008113  0
C  C83  1  0.33263371  0.00141525  0.89912009  1  0  0.172489  0  3.77548  0  0  0.164887  0  4.022048  0  0  0.17085  0  4.043476  0  0  0.09448  0.161233  0  4.007983  0
C  C84  1  0.58093070  0.09804952  0.01888373  1  0  -0.145269  0  3.761136  0  0  -0.16586  0  4.014392  0  0  -0.169912  0  4.036121  0  0  -0.091884  -0.16353  0  4.000176  0
C  C85  1  0.41906504  0.90195838  0.98111669  1  0  -0.145236  0  3.761181  0  0  -0.165785  0  4.014451  0  0  -0.169839  0  4.036185  0  0  -0.091886  -0.163464  0  4.000244  0
C  C86  1  0.64868495  0.10093222  0.93264522  1  0  -0.095108  0  3.733261  0  0  -0.112806  0  3.982937  0  0  -0.114273  0  4.002527  0  0  -0.086732  -0.112128  0  3.970183  0
C  C87  1  0.35131375  0.89906645  0.06735550  1  0  -0.095247  0  3.733347  0  0  -0.112951  0  3.983033  0  0  -0.114417  0  4.002622  0  0  -0.086725  -0.11225  0  3.970311  0
C  C88  1  0.80286807  0.00300277  0.92570565  1  0  0.045786  0  3.789614  0  0  0.058453  0  4.022567  0  0  0.057818  0  4.047198  0  0  -0.007507  0.058922  0  4.006423  0
C  C89  1  0.19712754  0.99699359  0.07429373  1  0  0.045803  0  3.789706  0  0  0.058516  0  4.02261  0  0  0.057881  0  4.04724  0  0  -0.00751  0.058931  0  4.006464  0
C  C90  1  0.88571392  0.89868916  0.00831661  1  0  -0.089278  0  3.726465  0  0  -0.105854  0  3.971494  0  0  -0.108006  0  3.993665  0  0  -0.083791  -0.104773  0  3.956829  0
C  C91  1  0.11428071  0.10131182  0.99168459  1  0  -0.089315  0  3.726484  0  0  -0.105904  0  3.971496  0  0  -0.108061  0  3.993664  0  0  -0.083861  -0.10483  0  3.956749  0
C  C92  1  0.81975113  0.89671331  0.09522095  1  0  -0.13979  0  3.737614  0  0  -0.159791  0  3.987796  0  0  -0.163166  0  4.007926  0  0  -0.089109  -0.157684  0  3.974287  0
C  C93  1  0.18024306  0.10329344  0.90477980  1  0  -0.13988  0  3.737562  0  0  -0.159838  0  3.987795  0  0  -0.163211  0  4.007925  0  0  -0.089109  -0.157736  0  3.974226  0
C  C94  1  0.87774942  0.01365029  0.83520216  1  0  0.0366  0  3.807651  0  0  0.051154  0  4.037846  0  0  0.049733  0  4.063265  0  0  -0.012541  0.052239  0  4.02063  0
C  C95  1  0.12225027  0.98634608  0.16479828  1  0  0.036574  0  3.807719  0  0  0.05112  0  4.037892  0  0  0.049697  0  4.06331  0  0  -0.012483  0.052286  0  4.020653  0
C  C96  1  0.84891282  0.15801585  0.77192969  1  0  -0.099586  0  3.736023  0  0  -0.117379  0  3.982378  0  0  -0.119259  0  4.003959  0  0  -0.089962  -0.116078  0  3.967794  0
C  C97  1  0.15108638  0.84198167  0.22807056  1  0  -0.099576  0  3.736089  0  0  -0.117369  0  3.982451  0  0  -0.119249  0  4.004035  0  0  -0.089935  -0.116064  0  3.967866  0
C  C98  1  0.92136150  0.17070826  0.68708310  1  0  -0.158468  0  3.730082  0  0  -0.1767  0  3.980477  0  0  -0.18151  0  4.001462  0  0  -0.095719  -0.173482  0  3.96641  0
C  C99  1  0.07864229  0.82928811  0.31291908  1  0  -0.158448  0  3.72991  0  0  -0.176657  0  3.980349  0  0  -0.181467  0  4.001336  0  0  -0.095643  -0.173329  0  3.966248  0
C  C100  1  0.02542493  0.03671939  0.66428265  1  0  0.170723  0  3.805673  0  0  0.161492  0  4.055714  0  0  0.167259  0  4.078705  0  0  0.090996  0.157537  0  4.040218  0
C  C101  1  0.97457684  0.96327929  0.33571854  1  0  0.170799  0  3.805581  0  0  0.161577  0  4.05561  0  0  0.167342  0  4.078602  0  0  0.091135  0.157684  0  4.040172  0
C  C102  1  0.05696873  0.89220778  0.72691327  1  0  -0.135814  0  3.731781  0  0  -0.15804  0  3.984766  0  0  -0.161429  0  4.004435  0  0  -0.092738  -0.155847  0  3.971476  0
C  C103  1  0.94303354  0.10778975  0.27308811  1  0  -0.1359  0  3.731847  0  0  -0.158123  0  3.984821  0  0  -0.161525  0  4.00448  0  0  -0.092746  -0.155914  0  3.971538  0
C  C104  1  0.98349449  0.88121412  0.81123746  1  0  -0.083239  0  3.737603  0  0  -0.101571  0  3.982712  0  0  -0.102692  0  4.003541  0  0  -0.085621  -0.100681  0  3.968513  0
C  C105  1  0.01650828  0.11878226  0.18876412  1  0  -0.083208  0  3.737557  0  0  -0.101483  0  3.98268  0  0  -0.102602  0  4.003511  0  0  -0.085527  -0.100527  0  3.968399  0
C  C106  1  0.09656962  0.17683009  0.51487483  1  0  0.166678  0  3.609852  0  0  0.106031  0  3.876335  0  0  0.119652  0  3.889652  0  0  0.145701  0.097262  0  3.867096  0
C  C107  1  0.90343264  0.82316744  0.48512855  1  0  0.166635  0  3.609717  0  0  0.106091  0  3.876168  0  0  0.119666  0  3.889445  0  0  0.145836  0.09744  0  3.86684  0
C  C108  1  0.23287974  0.98536803  0.45589847  1  0  0.01311  0  3.732486  0  0  -0.021517  0  4.002497  0  0  -0.018867  0  4.020836  0  0  0.002131  -0.023722  0  3.99018  0
C  C109  1  0.76711443  0.01463640  0.54410007  1  0  0.013015  0  3.732617  0  0  -0.021617  0  4.002628  0  0  -0.018968  0  4.020966  0  0  0.002218  -0.023695  0  3.99018  0
C  C110  1  0.18607925  0.92360352  0.54032237  1  0  -0.037926  0  3.633251  0  0  -0.080992  0  3.894756  0  0  -0.078058  0  3.911058  0  0  0.007042  -0.082616  0  3.883627  0
C  C111  1  0.81392103  0.07639862  0.45967690  1  0  -0.037767  0  3.633207  0  0  -0.080821  0  3.894694  0  0  -0.077892  0  3.911011  0  0  0.007225  -0.082281  0  3.883417  0
N  N112  1  0.44445358  0.10446677  0.29474313  1  0  -0.365915  0  3.25741  0  0  -0.285678  0  3.539412  0  0  -0.305405  0  3.552864  0  0  -0.3444  -0.271902  0  3.529581  0
N  N113  1  0.55553752  0.89553766  0.70525294  1  0  -0.365808  0  3.257354  0  0  -0.285556  0  3.539344  0  0  -0.305282  0  3.552796  0  0  -0.344416  -0.271908  0  3.529603  0
N  N114  1  0.60153628  0.00636946  0.18949017  1  0  -0.083328  0  3.585136  0  0  0.005753  0  3.796547  0  0  -0.008663  0  3.820513  0  0  -0.221521  0.015122  0  3.780276  0
N  N115  1  0.39846046  0.99363613  0.81050798  1  0  -0.083284  0  3.584942  0  0  0.005937  0  3.796261  0  0  -0.008477  0  3.820228  0  0  -0.221486  0.01523  0  3.779978  0
N  N116  1  0.09917232  0.04601886  0.57735908  1  0  -0.095046  0  3.614746  0  0  -0.00566  0  3.826224  0  0  -0.021111  0  3.853229  0  0  -0.220937  0.004384  0  3.807963  0
N  N117  1  0.90082995  0.95397866  0.42264364  1  0  -0.095137  0  3.614789  0  0  -0.005764  0  3.826267  0  0  -0.021217  0  3.853282  0  0  -0.220996  0.004229  0  3.808034  0
N  N118  1  0.17690479  0.14288185  0.44077059  1  0  -0.378628  0  3.280846  0  0  -0.298723  0  3.571922  0  0  -0.31966  0  3.586725  0  0  -0.351186  -0.2846  0  3.561659  0
N  N119  1  0.82309191  0.85712143  0.55923136  1  0  -0.378584  0  3.280758  0  0  -0.29868  0  3.571813  0  0  -0.31962  0  3.586633  0  0  -0.351107  -0.284527  0  3.561503  0
N  N120  1  0.38169717  0.52779065  0.79841879  1  0  -0.423273  0  3.37756  0  0  -0.364008  0  3.612391  0  0  -0.385838  0  3.623904  0  0  -0.408841  -0.348724  0  3.603506  0
N  N121  1  0.61830414  0.47221148  0.20158041  1  0  -0.423339  0  3.377584  0  0  -0.364024  0  3.612427  0  0  -0.385854  0  3.623941  0  0  -0.408967  -0.348883  0  3.603626  0
O  O122  1  0.38616481  0.28976816  0.44531007  1  0  -0.637063  0  1.992611  0  0  -0.57238  0  2.249144  0  0  -0.600698  0  2.238547  0  0  -0.333776  -0.552852  0  2.255891  0
O  O123  1  0.61384358  0.71022707  0.55469004  1  0  -0.637024  0  1.992784  0  0  -0.572325  0  2.249306  0  0  -0.600656  0  2.238729  0  0  -0.333649  -0.552688  0  2.255983  0
O  O124  1  0.14680548  0.47404458  0.43229173  1  0  -0.633346  0  1.960057  0  0  -0.573992  0  2.193955  0  0  -0.598376  0  2.182485  0  0  -0.319929  -0.557012  0  2.201265  0
O  O125  1  0.85320136  0.52594949  0.56770670  1  0  -0.633309  0  1.960136  0  0  -0.574014  0  2.194089  0  0  -0.598403  0  2.182624  0  0  -0.319895  -0.557015  0  2.201376  0
O  O126  1  0.15264551  0.38718152  0.21925665  1  0  -0.629293  0  1.984804  0  0  -0.55807  0  2.239751  0  0  -0.585971  0  2.226762  0  0  -0.328026  -0.538573  0  2.248137  0
O  O127  1  0.84735525  0.61281715  0.78074127  1  0  -0.629269  0  1.984806  0  0  -0.558073  0  2.23977  0  0  -0.585975  0  2.226783  0  0  -0.328148  -0.538759  0  2.248199  0
O  O128  1  0.32075818  0.48042481  0.22063334  1  0  -0.63164  0  1.985301  0  0  -0.575669  0  2.220683  0  0  -0.598956  0  2.210153  0  0  -0.31749  -0.559082  0  2.227205  0
O  O129  1  0.67924354  0.51956926  0.77936877  1  0  -0.631554  0  1.985449  0  0  -0.5756  0  2.22082  0  0  -0.598887  0  2.210291  0  0  -0.317498  -0.559162  0  2.227385  0
