# generated using pymatgen
data_NiH20C26(NO5)2
_symmetry_space_group_name_H-M   'P 1'
_cell_length_a   6.53338095
_cell_length_b   8.57375853
_cell_length_c   11.24099227
_cell_angle_alpha   92.47794322
_cell_angle_beta   100.90883851
_cell_angle_gamma   81.65437752
_symmetry_Int_Tables_number   1
_chemical_formula_structural   NiH20C26(NO5)2
_chemical_formula_sum   'Ni1 H20 C26 N2 O10'
_cell_volume   611.66485909
_cell_formula_units_Z   1
loop_
 _symmetry_equiv_pos_site_id
 _symmetry_equiv_pos_as_xyz
  1  'x, y, z'
loop_
 _atom_site_type_symbol
 _atom_site_label
 _atom_site_symmetry_multiplicity
 _atom_site_fract_x
 _atom_site_fract_y
 _atom_site_fract_z
 _atom_site_occupancy
 _atom_site_hle17_ddec_charge
 _atom_site_hle17_ddec_spin_density
 _atom_site_hle17_ddec_sum_bond_order
 _atom_site_hle17_magmom
 _atom_site_hse06_10hf_ddec_charge
 _atom_site_hse06_10hf_ddec_spin_density
 _atom_site_hse06_10hf_ddec_sum_bond_order
 _atom_site_hse06_10hf_magmom
 _atom_site_hse06_ddec_charge
 _atom_site_hse06_ddec_spin_density
 _atom_site_hse06_ddec_sum_bond_order
 _atom_site_hse06_magmom
 _atom_site_pbe_cm5_charge
 _atom_site_pbe_ddec_charge
 _atom_site_pbe_ddec_spin_density
 _atom_site_pbe_ddec_sum_bond_order
 _atom_site_pbe_magmom
Ni  Ni0  1  0.99999833  0.49999880  0.00000470  1  0.709781  0.012244  2.124309  0.013  0.696037  0.015248  2.558187  0.019  0.809885  0.011588  2.46295  0.016  0.604317  0.623874  -0.01609  2.621233  -0.018
H  H1  1  0.31243478  0.55960629  0.14031222  1  0.423846  -2.3e-05  0.877124  0.0  0.394107  0.000173  0.942228  0.0  0.40592  0.000119  0.925701  0.0  0.299005  0.385946  -0.000177  0.95359  0.0
H  H2  1  0.68757141  0.44041083  0.85968880  1  0.424007  -2.2e-05  0.876894  0.0  0.394074  0.000173  0.942263  0.0  0.40588  0.000119  0.925754  0.0  0.299  0.385911  -0.000177  0.953627  0.0
H  H3  1  0.31253822  0.61391930  0.99900520  1  0.409379  -6e-06  0.890756  0.0  0.378636  0.000248  0.970179  0.0  0.391189  0.000182  0.952619  0.0  0.291994  0.369796  -0.000253  0.979212  0.0
H  H4  1  0.68746273  0.38605972  0.00098048  1  0.409434  -6e-06  0.890658  0.0  0.378721  0.000247  0.970021  0.0  0.391273  0.000181  0.952461  0.0  0.292068  0.369881  -0.000252  0.979047  0.0
H  H5  1  0.86678210  0.59760392  0.69419204  1  0.413079  2.6e-05  0.886373  0.0  0.381014  2.6e-05  0.96098  0.0  0.395181  3.2e-05  0.941217  0.0  0.298452  0.371144  -1.6e-05  0.974736  0.0
H  H6  1  0.13321306  0.40240742  0.30580309  1  0.413099  2.7e-05  0.886326  0.0  0.381104  2.6e-05  0.960815  0.0  0.395274  3.2e-05  0.941046  0.0  0.298497  0.371242  -1.6e-05  0.974557  0.0
H  H7  1  0.80106357  0.45913698  0.40309231  1  0.109788  4e-06  0.944493  0.0  0.116322  -1e-06  1.011313  0.0  0.120053  1e-06  1.008716  0.0  0.108585  0.11352  2e-06  1.013387  0.0
H  H8  1  0.19894036  0.54086297  0.59689166  1  0.10973  2e-06  0.944531  0.0  0.116296  -1e-06  1.011321  0.0  0.120013  1e-06  1.008742  0.0  0.108585  0.113492  2e-06  1.013394  0.0
H  H9  1  0.68423909  0.10045292  0.62629219  1  0.094181  -1e-06  0.96082  0.0  0.103619  -2e-06  1.025723  0.0  0.107089  -3e-06  1.02333  0.0  0.104166  0.101059  2e-06  1.027577  0.0
H  H10  1  0.31578368  0.89957773  0.37370872  1  0.094155  -5e-06  0.960876  0.0  0.103639  -2e-06  1.025725  0.0  0.107111  -3e-06  1.023329  0.0  0.10414  0.101079  2e-06  1.027582  0.0
H  H11  1  0.73263354  0.90153200  0.46437854  1  0.101568  -2.7e-05  0.942665  0.0  0.114005  -1.4e-05  0.999002  0.0  0.116943  -1.3e-05  0.998453  0.0  0.105898  0.111898  1.4e-05  0.9995  0.0
H  H12  1  0.26737927  0.09847494  0.53563448  1  0.101615  -2.4e-05  0.942688  0.0  0.114054  -1.4e-05  0.998992  0.0  0.11699  -1.3e-05  0.998445  0.0  0.105906  0.111947  1.4e-05  0.999491  0.0
H  H13  1  0.58607258  0.80148774  0.28277387  1  0.1136  -0.000128  0.977214  0.0  0.118656  -0.000119  1.045745  0.0  0.121964  -0.000102  1.044248  0.0  0.106814  0.116423  0.000119  1.046889  0.0
H  H14  1  0.41392533  0.19851010  0.71723487  1  0.113525  -0.000123  0.977224  0.0  0.118611  -0.00012  1.045749  0.0  0.121919  -0.000103  1.044252  0.0  0.10676  0.116375  0.000119  1.046896  0.0
H  H15  1  0.67695421  0.58744879  0.14278469  1  0.093968  -0.000302  0.94917  -0.001  0.103998  -0.000297  1.007836  -0.001  0.105532  -0.000274  1.00639  -0.001  0.125637  0.102765  0.000278  1.009132  0.001
H  H16  1  0.32306142  0.41255555  0.85722490  1  0.093973  -0.000299  0.949094  -0.001  0.104017  -0.000297  1.007751  -0.001  0.10555  -0.000275  1.006312  -0.001  0.125656  0.102784  0.000278  1.009046  0.001
H  H17  1  0.12723109  0.81931272  0.03693915  1  0.084039  -0.000467  0.973356  -0.001  0.091172  -0.000563  1.03703  -0.001  0.092918  -0.000519  1.035048  -0.001  0.120244  0.089763  0.00053  1.038886  0.0
H  H18  1  0.87274639  0.18069055  0.96307124  1  0.084074  -0.000472  0.973399  -0.001  0.09117  -0.000563  1.03709  -0.001  0.092917  -0.000518  1.035106  -0.001  0.120218  0.08976  0.000531  1.038944  0.0
H  H19  1  0.05947664  0.04293838  0.17483404  1  0.113261  -0.000139  0.946927  0.0  0.124946  -0.00014  1.001607  0.0  0.127279  -0.000115  1.001703  0.0  0.112798  0.12338  0.000144  1.001571  0.0
H  H20  1  0.94050210  0.95705991  0.82517106  1  0.113232  -0.000141  0.947017  0.0  0.124914  -0.00014  1.001716  0.0  0.127247  -0.000115  1.001814  0.0  0.112778  0.123342  0.000144  1.001687  0.0
C  C21  1  0.83310198  0.28481058  0.20159108  1  0.645761  -9.7e-05  3.906692  0.0  0.592708  -0.000209  4.217925  0.0  0.626081  -0.000129  4.210147  0.0  0.211901  0.570471  0.000272  4.222427  0.0
C  C22  1  0.16687791  0.71514658  0.79838916  1  0.646134  -9.5e-05  3.906102  0.0  0.593014  -0.000208  4.217446  0.0  0.62639  -0.000127  4.209672  0.0  0.212064  0.570777  0.000271  4.221938  0.0
C  C23  1  0.79978367  0.22758740  0.32040166  1  -0.079956  0.000133  3.691599  0.0  -0.062274  -5.5e-05  3.927234  0.0  -0.068237  3.3e-05  3.945809  0.0  -0.00617  -0.059002  0.000114  3.915215  0.0
C  C24  1  0.20019610  0.77242001  0.67959899  1  -0.07993  0.00014  3.691117  0.0  -0.062324  -5.5e-05  3.9269  0.0  -0.068284  3.3e-05  3.945465  0.0  -0.006124  -0.059055  0.000114  3.914884  0.0
C  C25  1  0.78089809  0.33728858  0.41444816  1  -0.058912  -0.00031  3.691395  0.0  -0.095968  -0.000139  3.942861  0.0  -0.093455  -0.000159  3.959904  0.0  -0.076034  -0.097416  0.000113  3.93178  0.0
C  C26  1  0.21910067  0.66271791  0.58554628  1  -0.058937  -0.000312  3.691249  0.0  -0.095948  -0.000139  3.942815  0.0  -0.093428  -0.000159  3.959862  0.0  -0.076099  -0.097389  0.000113  3.931729  0.0
C  C27  1  0.73661191  0.29317040  0.52423441  1  -0.074109  0.000333  3.766662  0.0  -0.052319  4.6e-05  4.007882  0.0  -0.060826  0.000118  4.030466  0.0  -0.018383  -0.047119  1.7e-05  3.993001  0.0
C  C28  1  0.26339088  0.70684232  0.47577004  1  -0.074134  0.000341  3.766581  0.0  -0.052502  4.6e-05  4.008088  0.0  -0.061  0.000117  4.030674  0.0  -0.018453  -0.047314  1.7e-05  3.993202  0.0
C  C29  1  0.71296816  0.13594075  0.53980153  1  -0.063134  -0.000344  3.748912  0.0  -0.093552  -0.000188  4.007357  0.0  -0.09187  -0.000183  4.0264  0.0  -0.083314  -0.094592  0.000209  3.994674  0.0
C  C30  1  0.28703525  0.86406760  0.46018597  1  -0.063097  -0.000351  3.748312  0.0  -0.093483  -0.000188  4.00677  0.0  -0.0918  -0.000184  4.025807  0.0  -0.083199  -0.09452  0.000208  3.994089  0.0
C  C31  1  0.73801377  0.02515706  0.44799769  1  -0.103214  0.000417  3.730429  0.0  -0.122328  9.9e-05  3.984414  0.0  -0.126638  0.000164  4.00575  0.0  -0.082999  -0.119541  -4.2e-05  3.970155  0.0
C  C32  1  0.26200807  0.97485074  0.55201488  1  -0.103291  0.000422  3.730094  0.0  -0.122403  9.9e-05  3.984073  0.0  -0.126711  0.000165  4.005405  0.0  -0.083018  -0.119616  -4.2e-05  3.969818  0.0
C  C33  1  0.78110186  0.06807171  0.33685126  1  0.04428  -0.00049  3.725595  0.0  0.049862  -0.000218  3.956498  0.0  0.051529  -0.000223  3.97763  0.0  0.003897  0.048758  0.000238  3.942586  0.0
C  C34  1  0.21889040  0.93192925  0.66314555  1  0.044294  -0.000496  3.725655  0.0  0.04992  -0.000218  3.956525  0.0  0.051591  -0.000223  3.977656  0.0  0.003892  0.048792  0.000238  3.942593  0.0
C  C35  1  0.81758183  0.94393939  0.24509670  1  0.113025  0.00211  3.755799  0.002  0.12263  0.000561  3.989614  0.001  0.128935  0.000863  4.010338  0.001  0.016009  0.117884  -0.000293  3.976003  0.0
C  C36  1  0.18240354  0.05606890  0.75490154  1  0.112835  0.002111  3.755625  0.002  0.122464  0.000562  3.989412  0.001  0.128754  0.000863  4.010165  0.001  0.015971  0.117805  -0.000294  3.975684  0.0
C  C37  1  0.70985612  0.81219570  0.23226133  1  -0.15778  -0.002818  3.681102  -0.002  -0.173829  -0.001499  3.92445  -0.001  -0.182571  -0.001611  3.943373  -0.002  -0.080616  -0.168071  0.001272  3.912314  0.001
C  C38  1  0.29014317  0.18780570  0.76774925  1  -0.157632  -0.002823  3.68082  -0.003  -0.173741  -0.0015  3.924142  -0.001  -0.182477  -0.001612  3.943072  -0.002  -0.080466  -0.168008  0.001272  3.911975  0.001
C  C39  1  0.75903502  0.69005278  0.15313900  1  0.147975  0.00189  3.640459  0.002  0.117845  0.000147  3.891778  0.0  0.129768  0.000659  3.910121  0.001  0.052983  0.109144  0.000211  3.88055  0.0
C  C40  1  0.24096548  0.30995580  0.84687520  1  0.148026  0.001887  3.64002  0.002  0.117923  0.000148  3.891319  0.0  0.129838  0.000661  3.909662  0.001  0.052998  0.109226  0.00021  3.880095  0.0
C  C41  1  0.00882575  0.81964977  0.09348545  1  0.125765  0.001473  3.675197  0.002  0.096768  -0.000249  3.930357  0.0  0.108391  0.000155  3.94912  0.0  0.048284  0.088363  0.000428  3.9186  0.0
C  C42  1  0.99116204  0.18034859  0.90652726  1  0.125532  0.001477  3.675172  0.002  0.096614  -0.000248  3.930311  0.0  0.108229  0.000156  3.949082  0.0  0.048295  0.088216  0.000427  3.918546  0.0
C  C43  1  0.96742799  0.94593528  0.17075578  1  -0.149664  -0.002623  3.69309  -0.002  -0.170511  -0.001276  3.944485  -0.001  -0.179231  -0.001408  3.964441  -0.001  -0.077393  -0.164692  0.00107  3.931418  0.001
C  C44  1  0.03255918  0.05406050  0.82925154  1  -0.149376  -0.002617  3.692747  -0.002  -0.170256  -0.001276  3.944108  -0.001  -0.178971  -0.00141  3.964073  -0.001  -0.077346  -0.164464  0.00107  3.931005  0.001
C  C45  1  0.73069990  0.40767951  0.62759831  1  0.669794  5.7e-05  3.807618  0.0  0.615122  3.3e-05  4.110131  0.0  0.648767  2.8e-05  4.101964  0.0  0.236114  0.592328  -2.5e-05  4.115243  0.0
C  C46  1  0.26931817  0.59232901  0.37240244  1  0.669878  5.8e-05  3.807133  0.0  0.615213  3.3e-05  4.109776  0.0  0.648835  2.9e-05  4.101647  0.0  0.236179  0.592442  -2.5e-05  4.114856  0.0
N  N47  1  0.91014698  0.69053392  0.08622433  1  -0.249249  -0.021209  3.325292  -0.019  -0.204535  -0.016739  3.618051  -0.014  -0.243282  -0.016704  3.639934  -0.014  -0.33486  -0.179187  0.014641  3.603981  0.012
N  N48  1  0.08984006  0.30945816  0.91377942  1  -0.249241  -0.021216  3.325291  -0.019  -0.204599  -0.016741  3.618076  -0.014  -0.243348  -0.016706  3.639978  -0.014  -0.334919  -0.179255  0.014643  3.604004  0.012
O  O49  1  0.29083490  0.52658178  0.05251959  1  -0.744404  0.018699  2.052129  0.019  -0.721163  0.015004  2.299221  0.015  -0.766528  0.015346  2.26485  0.015  -0.550693  -0.68758  -0.013012  2.318803  -0.013
O  O50  1  0.70916609  0.47342039  0.94748391  1  -0.744503  0.018694  2.051966  0.019  -0.721155  0.015004  2.299347  0.015  -0.766513  0.015347  2.264973  0.015  -0.550719  -0.687577  -0.013014  2.318928  -0.013
O  O51  1  0.69119913  0.27118323  0.10995578  1  -0.589416  -0.000141  1.950396  0.0  -0.540674  -9.3e-05  2.168979  0.0  -0.562672  -7.6e-05  2.158649  0.0  -0.310521  -0.5257  9.4e-05  2.175239  0.0
O  O52  1  0.30882444  0.72876454  0.89002934  1  -0.589673  -0.000142  1.949785  0.0  -0.540844  -9.4e-05  2.168335  0.0  -0.562859  -7.7e-05  2.158027  0.0  -0.310582  -0.525867  9.5e-05  2.17459  0.0
O  O53  1  0.00199073  0.34441735  0.20015676  1  -0.632902  -0.002048  2.017597  -0.002  -0.585933  -0.002035  2.256794  -0.002  -0.614439  -0.001886  2.240191  -0.002  -0.310698  -0.567008  0.001947  2.268765  0.002
O  O54  1  0.99799620  0.65556088  0.79982734  1  -0.632922  -0.002046  2.01786  -0.002  -0.5859  -0.002034  2.257134  -0.002  -0.614397  -0.001886  2.240533  -0.002  -0.310788  -0.566976  0.001947  2.26911  0.002
O  O55  1  0.66690016  0.37382424  0.71975638  1  -0.587981  -5.6e-05  2.004439  0.0  -0.532959  -9.2e-05  2.2249  0.0  -0.554794  -7.5e-05  2.21637  0.0  -0.286758  -0.518496  9.4e-05  2.230917  0.0
O  O56  1  0.33313637  0.62617068  0.28024264  1  -0.587967  -5.6e-05  2.004185  0.0  -0.53308  -9.2e-05  2.224713  0.0  -0.554915  -7.5e-05  2.216188  0.0  -0.286869  -0.518622  9.4e-05  2.230723  0.0
O  O57  1  0.80277580  0.53977903  0.61268583  1  -0.567648  -3.4e-05  2.101837  0.0  -0.513506  -3.4e-05  2.319845  0.0  -0.538047  -1.2e-05  2.303307  0.0  -0.326571  -0.496301  5.5e-05  2.330669  0.0
O  O58  1  0.19720629  0.46025072  0.38729338  1  -0.567564  -3.5e-05  2.102038  0.0  -0.513409  -3.4e-05  2.319995  0.0  -0.537942  -1.2e-05  2.303466  0.0  -0.326517  -0.49622  5.6e-05  2.330815  0.0
