# generated using pymatgen
data_ZnH10C24S3N4O19
_symmetry_space_group_name_H-M   'P 1'
_cell_length_a   11.82313957
_cell_length_b   13.03066869
_cell_length_c   23.55639469
_cell_angle_alpha   88.47224799
_cell_angle_beta   85.46569575
_cell_angle_gamma   86.37622694
_symmetry_Int_Tables_number   1
_chemical_formula_structural   ZnH10C24S3N4O19
_chemical_formula_sum   'Zn2 H20 C48 S6 N8 O38'
_cell_volume   3609.73025853
_cell_formula_units_Z   2
loop_
 _symmetry_equiv_pos_site_id
 _symmetry_equiv_pos_as_xyz
  1  'x, y, z'
loop_
 _atom_site_type_symbol
 _atom_site_label
 _atom_site_symmetry_multiplicity
 _atom_site_fract_x
 _atom_site_fract_y
 _atom_site_fract_z
 _atom_site_occupancy
 _atom_site_pbe_bader_charge
 _atom_site_pbe_bader_spin_density
 _atom_site_pbe_cm5_charge
 _atom_site_pbe_ddec_charge
 _atom_site_pbe_ddec_spin_density
 _atom_site_pbe_ddec_sum_bond_order
 _atom_site_pbe_magmom
Zn  Zn0  1  0.61648653  0.50486620  0.49353086  1  1.297905  0  0.692905  0.83142  0  2.420645  0
Zn  Zn1  1  0.37069809  0.49327866  0.50648075  1  1.292541  0  0.68895  0.83705  0  2.338939  0
H  H2  1  0.51917755  0.76737363  0.94568164  1  0.167436  0  0.125293  0.139632  0  0.996883  0
H  H3  1  0.60379997  0.24895884  0.04942612  1  0.17078  0  0.123569  0.139567  0  0.997816  0
H  H4  1  0.69271164  0.41467614  0.21899485  1  0.142503  0  0.137897  0.164407  0  0.94022  0
H  H5  1  0.67113180  0.61490987  0.76557304  1  0.136113  0  0.137884  0.164718  0  0.941839  0
H  H6  1  0.35368041  0.18147843  0.50123822  1  0.116958  0  0.118242  0.126792  0  0.981223  0
H  H7  1  0.62773810  0.81730312  0.49972681  1  0.112056  0  0.120361  0.127858  0  0.988417  0
H  H8  1  0.25396082  0.01727164  0.49785884  1  0.116146  0  0.127056  0.14177  0  0.96002  0
H  H9  1  0.72664466  0.98028984  0.50407258  1  0.112884  0  0.128346  0.14148  0  0.963172  0
H  H10  1  0.80670428  0.39057142  0.54089900  1  0.174572  0  0.129009  0.108435  0  1.012501  0
H  H11  1  0.17686604  0.61175052  0.46212172  1  0.142968  0  0.125571  0.100005  0  1.019629  0
H  H12  1  0.77409982  0.64693309  0.43335711  1  0.129267  0  0.131596  0.109925  0  0.962742  0
H  H13  1  0.21184917  0.34889955  0.56473586  1  0.124458  0  0.123231  0.100995  0  1.00619  0
H  H14  1  0.00303814  0.32361282  0.57031917  1  0.13555  0  0.129103  0.139527  0  0.963835  0
H  H15  1  0.98389099  0.67431670  0.42924283  1  0.139799  0  0.129432  0.142145  0  0.965565  0
H  H16  1  0.56456600  0.93836313  0.00250286  1  0.64485  0  0.346723  0.406131  0  0.847101  0
H  H17  1  0.73926177  0.11769295  0.99008056  1  0.652954  0  0.358645  0.41429  0  0.820681  0
H  H18  1  0.36703251  0.66171608  0.41224150  1  0.660586  0  0.312001  0.375937  0  0.960352  0
H  H19  1  0.42559221  0.32649579  0.59573624  1  0.654173  0  0.310748  0.373906  0  0.966393  0
H  H20  1  0.27874498  0.70497592  0.21530005  1  0.655252  0  0.333755  0.412133  0  0.885419  0
H  H21  1  0.35322543  0.27335377  0.79819751  1  0.684086  0  0.332375  0.41205  0  0.889497  0
C  C22  1  0.46193348  0.69642341  0.49519432  1  1.611276  0  0.232877  0.616559  0  4.120984  0
C  C23  1  0.52319738  0.30148894  0.50661621  1  1.555212  0  0.232319  0.61067  0  4.127449  0
C  C24  1  0.49487949  0.49244932  0.39147722  1  1.637073  0  0.211616  0.580905  0  4.235858  0
C  C25  1  0.50109857  0.50751295  0.60797454  1  1.625551  0  0.211679  0.577574  0  4.241047  0
C  C26  1  0.58417331  0.42168752  0.87325235  1  1.387374  0  0.252333  0.442986  0  4.073116  0
C  C27  1  0.55333380  0.59489963  0.12141662  1  1.380665  0  0.251948  0.43809  0  4.070193  0
C  C28  1  0.53829111  0.61257611  0.87664263  1  1.370514  0  0.254934  0.45643  0  4.083114  0
C  C29  1  0.56475353  0.40167296  0.11876154  1  1.396057  0  0.253927  0.450433  0  4.086576  0
C  C30  1  0.54788374  0.60535915  0.93891478  1  0.007495  0  0.01006  -0.031137  0  3.941949  0
C  C31  1  0.57693057  0.41099601  0.05590105  1  -0.039162  0  0.009548  -0.028127  0  3.945942  0
C  C32  1  0.56658302  0.50914325  0.96706506  1  -0.031485  0  0.019398  0.048836  0  3.949672  0
C  C33  1  0.56525106  0.50786209  0.02764812  1  0.09585  0  0.019463  0.045002  0  3.951635  0
C  C34  1  0.58638123  0.41664238  0.93604372  1  -0.048826  0  0.016882  -0.041547  0  3.898175  0
C  C35  1  0.55219488  0.60097226  0.05850628  1  0.044935  0  0.018131  -0.039741  0  3.894958  0
C  C36  1  0.53435329  0.69553820  0.96922666  1  -0.002955  0  -0.052149  -0.076759  0  3.895335  0
C  C37  1  0.59633820  0.32125069  0.02546335  1  -0.03818  0  -0.056495  -0.089829  0  3.914783  0
C  C38  1  0.53854559  0.69511101  0.02878755  1  -0.130891  0  0.01965  -0.053548  0  3.818108  0
C  C39  1  0.60474733  0.32298582  0.96559491  1  -0.016594  0  0.018076  -0.054531  0  3.834919  0
C  C40  1  0.61320995  0.44671320  0.23964370  1  0.052443  0  -0.051938  -0.164957  0  3.893129  0
C  C41  1  0.60339780  0.57201393  0.75093065  1  0.036978  0  -0.05225  -0.164371  0  3.891876  0
C  C42  1  0.59342195  0.44123934  0.29816363  1  0.224418  0  0.09777  0.091238  0  3.896201  0
C  C43  1  0.58417994  0.57232050  0.69377692  1  0.21039  0  0.097314  0.087346  0  3.89276  0
C  C44  1  0.49745815  0.48981313  0.32722744  1  0.107591  0  0.011661  -0.049864  0  3.880592  0
C  C45  1  0.50506629  0.51123583  0.67197631  1  0.100232  0  0.014764  -0.041595  0  3.87076  0
C  C46  1  0.41506279  0.53886660  0.29442401  1  -0.144062  0  0.008412  -0.072299  0  3.825575  0
C  C47  1  0.43821786  0.45298170  0.71111735  1  -0.058994  0  0.009495  -0.072812  0  3.818883  0
C  C48  1  0.42471563  0.53081498  0.23443778  1  -0.016217  0  0.005191  -0.155925  0  3.840608  0
C  C49  1  0.44406118  0.46388154  0.77037503  1  -0.004969  0  0.006628  -0.151853  0  3.835402  0
C  C50  1  0.52807539  0.49123954  0.20771884  1  0.40007  0  0.114404  0.214611  0  3.988846  0
C  C51  1  0.53249238  0.51816271  0.78936138  1  0.360572  0  0.114229  0.218408  0  3.984819  0
C  C52  1  0.53212279  0.18693910  0.50713787  1  0.069839  0  0.00128  -0.058615  0  3.93761  0
C  C53  1  0.44889153  0.81062853  0.49794757  1  -0.05006  0  -0.002991  -0.072871  0  3.938886  0
C  C54  1  0.33629731  0.97458160  0.49791062  1  0.066683  0  -0.064844  -0.167438  0  3.910566  0
C  C55  1  0.64461091  0.02323606  0.50328004  1  0.041581  0  -0.057148  -0.149478  0  3.901669  0
C  C56  1  0.34336677  0.86889795  0.49778762  1  0.149747  0  0.093012  0.076457  0  3.923058  0
C  C57  1  0.63756041  0.12823783  0.50753810  1  0.217848  0  0.094506  0.073972  0  3.911944  0
C  C58  1  0.54713294  0.86254592  0.49909158  1  0.082747  0  -0.051895  -0.085812  0  3.879879  0
C  C59  1  0.43412223  0.13616538  0.50279145  1  0.040607  0  -0.058831  -0.105954  0  3.883714  0
C  C60  1  0.54410791  0.97059285  0.50033045  1  0.007005  0  0.010101  0.089912  0  3.993388  0
C  C61  1  0.43668003  0.02785685  0.49989636  1  -0.014402  0  0.013321  0.101433  0  3.988974  0
C  C62  1  0.03881036  0.38752661  0.54575619  1  -0.031917  0  -0.055554  -0.134707  0  3.914604  0
C  C63  1  0.94730923  0.61134498  0.45430390  1  0.021203  0  -0.051955  -0.128752  0  3.909559  0
C  C64  1  0.15344358  0.40055665  0.54263812  1  0.474945  0  0.051535  0.094114  0  3.904832  0
C  C65  1  0.83291829  0.59711170  0.45650417  1  0.417948  0  0.052277  0.080826  0  3.91668  0
C  C66  1  0.13601131  0.54903733  0.48524184  1  0.570152  0  0.08651  0.100783  0  3.824076  0
C  C67  1  0.84910953  0.45185110  0.51677969  1  0.551409  0  0.086163  0.089052  0  3.821776  0
C  C68  1  0.01742926  0.54144626  0.48489187  1  -0.002195  0  0.023074  0.066714  0  3.966972  0
C  C69  1  0.96793661  0.45863390  0.51642115  1  -0.00395  0  0.021838  0.062035  0  3.987847  0
S  S70  1  0.52343859  0.81916370  0.06375775  1  3.084726  0  0.548191  1.147076  0  5.972996  0
S  S71  1  0.64002825  0.20134379  0.92998740  1  3.050287  0  0.547927  1.141118  0  5.955333  0
S  S72  1  0.30695663  0.62823165  0.32885840  1  3.12564  0  0.557737  1.18274  0  5.946506  0
S  S73  1  0.35806477  0.35100061  0.68450656  1  3.134091  0  0.555739  1.177236  0  5.964502  0
S  S74  1  0.29953566  0.55003548  0.19379078  1  3.159735  0  0.540605  1.144873  0  6.063164  0
S  S75  1  0.32703617  0.42742293  0.82068421  1  3.169172  0  0.540156  1.144321  0  6.062324  0
N  N76  1  0.55378143  0.51850393  0.84829231  1  -1.142053  0  -0.233236  -0.23053  0  3.618219  0
N  N77  1  0.54952300  0.49532199  0.14718373  1  -1.160901  0  -0.233624  -0.214023  0  3.601885  0
N  N78  1  0.78542269  0.51872150  0.48786636  1  -1.251275  0  -0.320298  -0.195991  0  3.556386  0
N  N79  1  0.20080381  0.48073062  0.51267323  1  -1.253689  0  -0.316785  -0.194988  0  3.523446  0
N  N80  1  0.67887523  0.38080789  0.32988400  1  0.415287  0  0.060891  0.51362  0  4.221148  0
N  N81  1  0.65186853  0.64093542  0.65552478  1  0.381327  0  0.06159  0.516002  0  4.217268  0
N  N82  1  0.74319964  0.17657316  0.51809810  1  0.379015  0  0.062243  0.520562  0  4.219001  0
N  N83  1  0.23504143  0.81702158  0.50089959  1  0.399186  0  0.059325  0.512839  0  4.238338  0
O  O84  1  0.55681156  0.65475873  0.50592304  1  -1.152419  0  -0.287299  -0.509671  0  2.396716  0
O  O85  1  0.42792582  0.34367861  0.52832314  1  -1.18383  0  -0.313391  -0.576921  0  2.398045  0
O  O86  1  0.37675722  0.64816301  0.48072016  1  -1.180107  0  -0.312532  -0.573579  0  2.395478  0
O  O87  1  0.60533892  0.34894829  0.48469025  1  -1.139325  0  -0.282591  -0.494389  0  2.377924  0
O  O88  1  0.58335673  0.52556769  0.41000314  1  -1.153502  0  -0.310067  -0.532369  0  2.338965  0
O  O89  1  0.40580597  0.52846911  0.58791619  1  -1.140876  0  -0.302955  -0.520084  0  2.32757  0
O  O90  1  0.40829444  0.46173600  0.42054699  1  -1.153205  0  -0.307138  -0.529545  0  2.317425  0
O  O91  1  0.59527461  0.48365135  0.58057940  1  -1.15421  0  -0.306641  -0.528329  0  2.340097  0
O  O92  1  0.60500057  0.34673282  0.84312239  1  -1.066517  0  -0.233884  -0.382702  0  2.161968  0
O  O93  1  0.55632682  0.66988779  0.15120047  1  -1.062712  0  -0.233103  -0.379772  0  2.156751  0
O  O94  1  0.51721044  0.69351211  0.85074272  1  -1.083113  0  -0.259747  -0.412133  0  2.052841  0
O  O95  1  0.56704409  0.31902575  0.14496273  1  -1.090899  0  -0.261468  -0.415203  0  2.056793  0
O  O96  1  0.41963817  0.82398923  0.09926127  1  -1.253215  0  -0.286757  -0.471188  0  2.132393  0
O  O97  1  0.63182482  0.84270561  0.08225963  1  -1.266226  0  -0.313333  -0.525305  0  2.096483  0
O  O98  1  0.50011850  0.89462355  0.00962810  1  -1.190418  0  -0.354588  -0.530642  0  2.147408  0
O  O99  1  0.54155179  0.16695901  0.90661920  1  -1.245145  0  -0.284085  -0.464711  0  2.111526  0
O  O100  1  0.75044721  0.20553165  0.90010916  1  -1.264636  0  -0.303959  -0.512433  0  2.104591  0
O  O101  1  0.65762218  0.12368165  0.98493026  1  -1.192402  0  -0.363246  -0.5557  0  2.128341  0
O  O102  1  0.64208101  0.31391187  0.36342743  1  -0.430246  0  -0.120462  -0.305141  0  1.905672  0
O  O103  1  0.77958731  0.39921125  0.31906398  1  -0.43516  0  -0.121896  -0.31156  0  1.850792  0
O  O104  1  0.59858781  0.69837684  0.62297370  1  -0.432252  0  -0.118984  -0.307931  0  1.918053  0
O  O105  1  0.75544455  0.63796146  0.66020215  1  -0.41553  0  -0.127477  -0.320393  0  1.849331  0
O  O106  1  0.28063942  0.70781422  0.28723869  1  -1.29573  0  -0.297827  -0.530455  0  2.193115  0
O  O107  1  0.21757435  0.57636727  0.36012396  1  -1.280359  0  -0.29538  -0.511377  0  2.168097  0
O  O108  1  0.38150471  0.68203397  0.37053271  1  -1.245993  0  -0.354813  -0.52686  0  2.252919  0
O  O109  1  0.35584987  0.26951608  0.72739050  1  -1.292413  0  -0.300282  -0.533508  0  2.201887  0
O  O110  1  0.25502906  0.39028939  0.66134729  1  -1.277724  0  -0.295201  -0.507984  0  2.160755  0
O  O111  1  0.44574422  0.30724084  0.63614876  1  -1.252054  0  -0.351986  -0.524048  0  2.263176  0
O  O112  1  0.32244474  0.49887109  0.14058807  1  -1.29426  0  -0.304989  -0.507965  0  2.14563  0
O  O113  1  0.20726549  0.52148760  0.23320710  1  -1.274568  0  -0.302672  -0.512061  0  2.138969  0
O  O114  1  0.29064452  0.66822987  0.17826681  1  -1.203116  0  -0.338219  -0.496189  0  2.208903  0
O  O115  1  0.33389297  0.48010519  0.87288025  1  -1.292763  0  -0.304633  -0.508609  0  2.147974  0
O  O116  1  0.22827872  0.44320517  0.78898212  1  -1.276218  0  -0.301248  -0.509548  0  2.137862  0
O  O117  1  0.35376901  0.31031878  0.83505650  1  -1.244408  0  -0.340224  -0.49963  0  2.197907  0
O  O118  1  0.73894436  0.23264718  0.56005350  1  -0.448442  0  -0.122528  -0.321502  0  1.915931  0
O  O119  1  0.82897209  0.15442191  0.48627735  1  -0.425357  0  -0.1273  -0.323942  0  1.853726  0
O  O120  1  0.18243964  0.81981541  0.45738649  1  -0.435426  0  -0.127305  -0.326161  0  1.874927  0
O  O121  1  0.20425338  0.77732142  0.54723241  1  -0.411158  0  -0.113219  -0.297353  0  1.868454  0
