# generated using pymatgen
data_TbPH12C13NO11
_symmetry_space_group_name_H-M   'P 1'
_cell_length_a   7.28464807
_cell_length_b   9.56420023
_cell_length_c   12.31495019
_cell_angle_alpha   68.70155664
_cell_angle_beta   91.78650554
_cell_angle_gamma   89.09289899
_symmetry_Int_Tables_number   1
_chemical_formula_structural   TbPH12C13NO11
_chemical_formula_sum   'Tb2 P2 H24 C26 N2 O22'
_cell_volume   798.67600301
_cell_formula_units_Z   2
loop_
 _symmetry_equiv_pos_site_id
 _symmetry_equiv_pos_as_xyz
  1  'x, y, z'
loop_
 _atom_site_type_symbol
 _atom_site_label
 _atom_site_symmetry_multiplicity
 _atom_site_fract_x
 _atom_site_fract_y
 _atom_site_fract_z
 _atom_site_occupancy
 _atom_site_hle17_bader_spin_density
 _atom_site_hle17_ddec_charge
 _atom_site_hle17_ddec_spin_density
 _atom_site_hle17_ddec_sum_bond_order
 _atom_site_hle17_magmom
 _atom_site_hse06_10hf_bader_spin_density
 _atom_site_hse06_10hf_ddec_charge
 _atom_site_hse06_10hf_ddec_spin_density
 _atom_site_hse06_10hf_ddec_sum_bond_order
 _atom_site_hse06_10hf_magmom
 _atom_site_hse06_bader_spin_density
 _atom_site_hse06_ddec_charge
 _atom_site_hse06_ddec_spin_density
 _atom_site_hse06_ddec_sum_bond_order
 _atom_site_hse06_magmom
 _atom_site_pbe_bader_spin_density
 _atom_site_pbe_cm5_charge
 _atom_site_pbe_ddec_charge
 _atom_site_pbe_ddec_spin_density
 _atom_site_pbe_ddec_sum_bond_order
 _atom_site_pbe_magmom
Tb  Tb0  1  0.74562291  0.70016175  0.59172232  1  0  2.163689  0  1.744614  0  0  2.084626  0  2.07054  0  0  2.208615  0  1.886859  0  0  1.486703  2.048631  0  2.102168  0
Tb  Tb1  1  0.25437975  0.29982689  0.40827645  1  0  2.163649  0  1.744605  0  0  2.084605  0  2.070491  0  0  2.208592  0  1.886818  0  0  1.486746  2.048629  0  2.102098  0
P  P2  1  0.71421886  0.48148996  0.89356232  1  0  1.559698  0  4.70072  0  0  1.403218  0  5.21345  0  0  1.452057  0  5.177663  0  0  0.37078  1.368877  0  5.241116  0
P  P3  1  0.28579175  0.51851388  0.10643947  1  0  1.559427  0  4.700925  0  0  1.403001  0  5.213625  0  0  1.451802  0  5.177855  0  0  0.370734  1.368659  0  5.24129  0
H  H4  1  0.12042216  0.72915788  0.65805889  1  0  0.456841  0  0.792191  0  0  0.435782  0  0.850211  0  0  0.445197  0  0.836586  0  0  0.333015  0.429088  0  0.858724  0
H  H5  1  0.87955925  0.27083628  0.34194139  1  0  0.456751  0  0.792249  0  0  0.435701  0  0.850308  0  0  0.445119  0  0.836678  0  0  0.332966  0.429009  0  0.858772  0
H  H6  1  0.10240490  0.90140896  0.58645411  1  0  0.453093  0  0.834358  0  0  0.424913  0  0.891091  0  0  0.436907  0  0.873569  0  0  0.306902  0.417014  0  0.902578  0
H  H7  1  0.89758317  0.09858556  0.41354043  1  0  0.453058  0  0.834419  0  0  0.424888  0  0.891133  0  0  0.436884  0  0.873606  0  0  0.30685  0.416988  0  0.902623  0
H  H8  1  0.64097534  0.53046978  0.05090209  1  0  0.433241  0  0.87671  0  0  0.397304  0  0.948109  0  0  0.40915  0  0.930991  0  0  0.305183  0.389253  0  0.959691  0
H  H9  1  0.35902813  0.46953471  0.94909377  1  0  0.433239  0  0.8767  0  0  0.397283  0  0.948123  0  0  0.409134  0  0.931001  0  0  0.305157  0.389229  0  0.959709  0
H  H10  1  0.77401084  0.72682010  0.29156107  1  0  0.395902  0  0.886677  0  0  0.370427  0  0.956104  0  0  0.382009  0  0.943455  0  0  0.307935  0.362442  0  0.964567  0
H  H11  1  0.22597608  0.27317323  0.70843624  1  0  0.396078  0  0.886306  0  0  0.370516  0  0.955873  0  0  0.382096  0  0.943228  0  0  0.307985  0.362531  0  0.964337  0
H  H12  1  0.58323148  0.74314998  0.04223009  1  0  0.330704  0  0.901482  0  0  0.301817  0  0.974445  0  0  0.311652  0  0.966282  0  0  0.317538  0.294844  0  0.980285  0
H  H13  1  0.41677478  0.25686483  0.95776121  1  0  0.330704  0  0.901383  0  0  0.301807  0  0.974376  0  0  0.311584  0  0.966318  0  0  0.317536  0.294849  0  0.98019  0
H  H14  1  0.51274351  0.79192173  0.84700384  1  0  0.108824  0  0.918573  0  0  0.117276  0  0.979286  0  0  0.12077  0  0.974868  0  0  0.137933  0.114747  0  0.982476  0
H  H15  1  0.48725318  0.20809250  0.15298755  1  0  0.108741  0  0.918773  0  0  0.117235  0  0.97942  0  0  0.12073  0  0.975  0  0  0.137907  0.11471  0  0.982607  0
H  H16  1  0.58502189  0.04558783  0.69620990  1  0  0.115616  0  0.965709  0  0  0.122952  0  1.02721  0  0  0.126337  0  1.025952  0  0  0.112947  0.120728  0  1.027863  0
H  H17  1  0.41497398  0.95443429  0.30378491  1  0  0.115541  0  0.965972  0  0  0.122911  0  1.027414  0  0  0.1263  0  1.02615  0  0  0.112939  0.120685  0  1.028065  0
H  H18  1  0.73228404  0.23276577  0.75869868  1  0  0.122971  0  0.954342  0  0  0.131828  0  1.013433  0  0  0.135955  0  1.009003  0  0  0.11688  0.12903  0  1.016223  0
H  H19  1  0.26772596  0.76724253  0.24130020  1  0  0.122818  0  0.954494  0  0  0.131771  0  1.013503  0  0  0.135899  0  1.00907  0  0  0.116864  0.128968  0  1.016298  0
H  H20  1  0.96669791  0.21852934  0.13741949  1  0  0.115219  0  0.934857  0  0  0.12596  0  0.993768  0  0  0.129221  0  0.992069  0  0  0.109243  0.12348  0  0.995615  0
H  H21  1  0.03330377  0.78145933  0.86259227  1  0  0.115226  0  0.934733  0  0  0.125979  0  0.993631  0  0  0.129233  0  0.991935  0  0  0.109221  0.123503  0  0.995478  0
H  H22  1  0.89241799  0.96588128  0.27403953  1  0  0.119341  0  0.949958  0  0  0.129679  0  1.009749  0  0  0.133442  0  1.007556  0  0  0.10957  0.127027  0  1.011222  0
H  H23  1  0.10757186  0.03411112  0.72595969  1  0  0.11935  0  0.950089  0  0  0.12971  0  1.009844  0  0  0.133473  0  1.007651  0  0  0.109597  0.12706  0  1.011318  0
H  H24  1  0.91678968  0.34940871  0.81392057  1  0  0.151661  0  0.966581  0  0  0.157637  0  1.033454  0  0  0.16114  0  1.031436  0  0  0.111287  0.155022  0  1.035156  0
H  H25  1  0.08323599  0.65059720  0.18608643  1  0  0.151619  0  0.966505  0  0  0.157642  0  1.033338  0  0  0.161146  0  1.031319  0  0  0.111297  0.155024  0  1.035037  0
H  H26  1  0.01745304  0.38598916  0.93236834  1  0  0.172634  0  0.945967  0  0  0.184358  0  0.998876  0  0  0.188101  0  0.996844  0  0  0.116723  0.182146  0  0.999556  0
H  H27  1  0.98254722  0.61400290  0.06765461  1  0  0.172829  0  0.945752  0  0  0.184441  0  0.998804  0  0  0.188186  0  0.996768  0  0  0.116796  0.182231  0  0.999486  0
C  C28  1  0.58506503  0.87689440  0.86945375  1  0  0.175458  0  3.608597  0  0  0.127984  0  3.872371  0  0  0.141616  0  3.883472  0  0  0.082238  0.119484  0  3.865189  0
C  C29  1  0.41494940  0.12312090  0.13053667  1  0  0.175447  0  3.608727  0  0  0.127968  0  3.872533  0  0  0.1416  0  3.883615  0  0  0.082197  0.119463  0  3.865356  0
C  C30  1  0.62684624  0.01645152  0.78722338  1  0  -0.123739  0  3.711229  0  0  -0.137636  0  3.97501  0  0  -0.146256  0  3.99277  0  0  -0.077848  -0.131612  0  3.962321  0
C  C31  1  0.37315998  0.98356443  0.21277084  1  0  -0.123617  0  3.711454  0  0  -0.137462  0  3.97521  0  0  -0.146084  0  3.992974  0  0  -0.077735  -0.131429  0  3.962499  0
C  C32  1  0.71115903  0.12131530  0.82313030  1  0  0.012999  0  3.605748  0  0  -0.019351  0  3.862113  0  0  -0.010985  0  3.872532  0  0  -0.044764  -0.024136  0  3.853586  0
C  C33  1  0.28884919  0.87869628  0.17686763  1  0  0.013125  0  3.605782  0  0  -0.019363  0  3.862339  0  0  -0.010993  0  3.872755  0  0  -0.044767  -0.024145  0  3.853801  0
C  C34  1  0.76310885  0.08684724  0.94196721  1  0  -0.033709  0  3.771357  0  0  -0.020851  0  4.005966  0  0  -0.025111  0  4.030838  0  0  -0.00115  -0.016987  0  3.98794  0
C  C35  1  0.23689206  0.91315714  0.05803434  1  0  -0.03359  0  3.771247  0  0  -0.020912  0  4.006127  0  0  -0.025168  0  4.030991  0  0  -0.001134  -0.017051  0  3.988102  0
C  C36  1  0.85310541  0.18912215  0.98458949  1  0  0.09859  0  3.765489  0  0  0.101616  0  4.017663  0  0  0.102283  0  4.043628  0  0  -0.013164  0.101901  0  3.999795  0
C  C37  1  0.14691207  0.81087082  0.01541548  1  0  0.098573  0  3.765761  0  0  0.101729  0  4.017855  0  0  0.102395  0  4.043822  0  0  -0.013214  0.102014  0  3.999986  0
C  C38  1  0.89665928  0.14222526  0.10323773  1  0  -0.093629  0  3.728273  0  0  -0.120103  0  3.995824  0  0  -0.122168  0  4.017243  0  0  -0.088341  -0.120746  0  3.983394  0
C  C39  1  0.10336041  0.85776108  0.89676915  1  0  -0.093638  0  3.728164  0  0  -0.120126  0  3.995699  0  0  -0.122184  0  4.017115  0  0  -0.088247  -0.120773  0  3.983273  0
C  C40  1  0.85539355  0.99829496  0.18164101  1  0  -0.193612  0  3.758259  0  0  -0.219665  0  4.025374  0  0  -0.225255  0  4.046242  0  0  -0.105106  -0.21543  0  4.011849  0
C  C41  1  0.14458714  0.00170479  0.81835684  1  0  -0.193647  0  3.758221  0  0  -0.21973  0  4.025354  0  0  -0.225322  0  4.046222  0  0  -0.105176  -0.215496  0  4.01184  0
C  C42  1  0.76751457  0.89613144  0.14286525  1  0  0.25438  0  3.855957  0  0  0.239774  0  4.126795  0  0  0.248705  0  4.14459  0  0  0.087451  0.232872  0  4.115567  0
C  C43  1  0.23246605  0.10386945  0.85713471  1  0  0.254509  0  3.856215  0  0  0.239915  0  4.127003  0  0  0.248847  0  4.144801  0  0  0.087479  0.233006  0  4.115779  0
C  C44  1  0.72057349  0.94169969  0.02179994  1  0  0.105784  0  3.714545  0  0  0.093392  0  3.95195  0  0  0.096746  0  3.974704  0  0  0.112226  0.090661  0  3.937078  0
C  C45  1  0.27942468  0.05830336  0.97819711  1  0  0.105674  0  3.714682  0  0  0.093404  0  3.952098  0  0  0.096753  0  3.974843  0  0  0.112268  0.090682  0  3.937213  0
C  C46  1  0.89360933  0.34369979  0.90279494  1  0  -0.513319  0  3.698069  0  0  -0.531365  0  3.937269  0  0  -0.541484  0  3.943578  0  0  -0.170909  -0.523955  0  3.93232  0
C  C47  1  0.10639989  0.65630396  0.09720605  1  0  -0.513464  0  3.698055  0  0  -0.531479  0  3.937259  0  0  -0.541601  0  3.943572  0  0  -0.170984  -0.524068  0  3.932312  0
C  C48  1  0.54345526  0.42904601  0.54804065  1  0  0.567839  0  3.917338  0  0  0.523584  0  4.222061  0  0  0.553976  0  4.219183  0  0  0.214852  0.502658  0  4.228293  0
C  C49  1  0.45655616  0.57094646  0.45194410  1  0  0.568085  0  3.917094  0  0  0.52376  0  4.221893  0  0  0.554153  0  4.219013  0  0  0.215016  0.502833  0  4.228126  0
C  C50  1  0.95926006  0.54026168  0.43748629  1  0  0.570138  0  3.905926  0  0  0.520679  0  4.214884  0  0  0.550335  0  4.212586  0  0  0.221779  0.50026  0  4.220687  0
C  C51  1  0.04075696  0.45973464  0.56251608  1  0  0.569907  0  3.906493  0  0  0.52046  0  4.215415  0  0  0.550109  0  4.213125  0  0  0.221686  0.500045  0  4.221214  0
C  C52  1  0.57468129  0.03989236  0.45658988  1  0  0.564537  0  3.912791  0  0  0.516988  0  4.223592  0  0  0.546941  0  4.220592  0  0  0.221801  0.496445  0  4.229789  0
C  C53  1  0.42530448  0.96010993  0.54340404  1  0  0.564226  0  3.912904  0  0  0.516708  0  4.223681  0  0  0.546636  0  4.220717  0  0  0.221773  0.496203  0  4.229822  0
N  N54  1  0.63023409  0.84446587  0.98182014  1  0  -0.249935  0  3.457602  0  0  -0.180559  0  3.684192  0  0  -0.196694  0  3.700036  0  0  -0.339353  -0.170526  0  3.674272  0
N  N55  1  0.36977573  0.15554123  0.01816853  1  0  -0.249869  0  3.45747  0  0  -0.180585  0  3.68413  0  0  -0.1967  0  3.700094  0  0  -0.339413  -0.170568  0  3.674199  0
O  O56  1  0.74615677  0.62119289  0.78503673  1  0  -0.954916  0  1.960152  0  0  -0.893783  0  2.241264  0  0  -0.933431  0  2.216489  0  0  -0.499868  -0.874376  0  2.255329  0
O  O57  1  0.25385019  0.37880735  0.21496687  1  0  -0.95484  0  1.960028  0  0  -0.893717  0  2.24114  0  0  -0.933372  0  2.21638  0  0  -0.499921  -0.874313  0  2.255207  0
O  O58  1  0.02907484  0.81001744  0.62208772  1  0  -0.89622  0  1.823614  0  0  -0.85748  0  2.008892  0  0  -0.886083  0  1.968941  0  0  -0.6297  -0.844817  0  2.030565  0
O  O59  1  0.97091479  0.18997606  0.37790875  1  0  -0.896113  0  1.823669  0  0  -0.857396  0  2.008976  0  0  -0.886001  0  1.969025  0  0  -0.629615  -0.844737  0  2.030595  0
O  O60  1  0.75548263  0.51706811  0.00813624  1  0  -0.760565  0  2.003621  0  0  -0.684807  0  2.22648  0  0  -0.70598  0  2.202062  0  0  -0.387774  -0.669272  0  2.243097  0
O  O61  1  0.24452318  0.48294108  0.99186397  1  0  -0.760481  0  2.003708  0  0  -0.684722  0  2.226558  0  0  -0.705871  0  2.202124  0  0  -0.387727  -0.669204  0  2.243216  0
O  O62  1  0.52147794  0.42039949  0.89635545  1  0  -0.854704  0  1.976449  0  0  -0.776646  0  2.221805  0  0  -0.801228  0  2.202019  0  0  -0.365808  -0.759303  0  2.23534  0
O  O63  1  0.47853117  0.57959641  0.10365672  1  0  -0.854537  0  1.9765  0  0  -0.776572  0  2.221887  0  0  -0.801119  0  2.202063  0  0  -0.365789  -0.759221  0  2.235413  0
O  O64  1  0.72106796  0.75711818  0.20925741  1  0  -0.480568  0  2.147024  0  0  -0.429834  0  2.361493  0  0  -0.449489  0  2.353527  0  0  -0.339531  -0.416179  0  2.366098  0
O  O65  1  0.27892504  0.24287102  0.79074275  1  0  -0.480775  0  2.147007  0  0  -0.430017  0  2.361593  0  0  -0.449647  0  2.353592  0  0  -0.339571  -0.416352  0  2.366194  0
O  O66  1  0.65221408  0.45237574  0.62171273  1  0  -0.657109  0  2.085455  0  0  -0.615232  0  2.324877  0  0  -0.649204  0  2.314155  0  0  -0.368836  -0.597711  0  2.329921  0
O  O67  1  0.34776410  0.54762506  0.37829699  1  0  -0.657082  0  2.085457  0  0  -0.615237  0  2.324985  0  0  -0.649208  0  2.314268  0  0  -0.368939  -0.597719  0  2.330027  0
O  O68  1  0.50025540  0.30324735  0.54451767  1  0  -0.648175  0  2.051247  0  0  -0.610463  0  2.29136  0  0  -0.643013  0  2.281732  0  0  -0.364748  -0.593386  0  2.295691  0
O  O69  1  0.49973900  0.69674426  0.45549237  1  0  -0.648338  0  2.051121  0  0  -0.610604  0  2.291262  0  0  -0.643157  0  2.281631  0  0  -0.364827  -0.593523  0  2.295591  0
O  O70  1  0.86902674  0.66278543  0.42110279  1  0  -0.675066  0  2.10457  0  0  -0.627625  0  2.339287  0  0  -0.662344  0  2.328791  0  0  -0.353334  -0.60997  0  2.344528  0
O  O71  1  0.13094743  0.33721052  0.57889285  1  0  -0.674956  0  2.104848  0  0  -0.627471  0  2.339535  0  0  -0.662186  0  2.329042  0  0  -0.353286  -0.609823  0  2.34478  0
O  O72  1  0.98604458  0.48093882  0.36348386  1  0  -0.614098  0  2.046962  0  0  -0.572564  0  2.280567  0  0  -0.60254  0  2.269903  0  0  -0.335097  -0.557125  0  2.286263  0
O  O73  1  0.01395149  0.51904832  0.63651855  1  0  -0.613991  0  2.047127  0  0  -0.572479  0  2.280739  0  0  -0.602452  0  2.270079  0  0  -0.335041  -0.55704  0  2.286436  0
O  O74  1  0.72760731  0.96671766  0.46895319  1  0  -0.675084  0  2.03773  0  0  -0.625963  0  2.269332  0  0  -0.660654  0  2.256595  0  0  -0.356722  -0.608422  0  2.275973  0
O  O75  1  0.27238327  0.03326915  0.53104845  1  0  -0.674967  0  2.03819  0  0  -0.625851  0  2.269779  0  0  -0.660533  0  2.257054  0  0  -0.356646  -0.608324  0  2.276403  0
O  O76  1  0.53475118  0.16782520  0.38205301  1  0  -0.624739  0  2.016576  0  0  -0.587835  0  2.251123  0  0  -0.619207  0  2.239837  0  0  -0.340935  -0.572641  0  2.257725  0
O  O77  1  0.46524653  0.83216992  0.61794387  1  0  -0.624643  0  2.016186  0  0  -0.58774  0  2.250703  0  0  -0.619104  0  2.23943  0  0  -0.340978  -0.57255  0  2.257278  0
