# generated using pymatgen
data_ZnH23C33N7O6
_symmetry_space_group_name_H-M   'P 1'
_cell_length_a   9.18397754
_cell_length_b   13.32040167
_cell_length_c   28.19317703
_cell_angle_alpha   89.99988854
_cell_angle_beta   92.93255050
_cell_angle_gamma   89.99964420
_symmetry_Int_Tables_number   1
_chemical_formula_structural   ZnH23C33N7O6
_chemical_formula_sum   'Zn4 H92 C132 N28 O24'
_cell_volume   3444.47510732
_cell_formula_units_Z   4
loop_
 _symmetry_equiv_pos_site_id
 _symmetry_equiv_pos_as_xyz
  1  'x, y, z'
loop_
 _atom_site_type_symbol
 _atom_site_label
 _atom_site_symmetry_multiplicity
 _atom_site_fract_x
 _atom_site_fract_y
 _atom_site_fract_z
 _atom_site_occupancy
 _atom_site_pbe_bader_charge
 _atom_site_pbe_bader_spin_density
 _atom_site_pbe_cm5_charge
 _atom_site_pbe_ddec_charge
 _atom_site_pbe_ddec_spin_density
 _atom_site_pbe_ddec_sum_bond_order
 _atom_site_pbe_magmom
Zn  Zn0  1  0.99266447  0.57167925  0.16391095  1  1.286324  0  0.686311  0.850853  0  2.284289  0
Zn  Zn1  1  0.50733136  0.07167774  0.33609095  1  1.286739  0  0.686283  0.850813  0  2.284294  0
Zn  Zn2  1  0.00733917  0.42832469  0.83608872  1  1.286698  0  0.686353  0.850944  0  2.284237  0
Zn  Zn3  1  0.49267019  0.92832094  0.66391224  1  1.286748  0  0.68632  0.850915  0  2.284109  0
H  H4  1  0.25447320  0.90816071  0.99585541  1  0.480261  0  0.339274  0.299652  0  0.899245  0
H  H5  1  0.24552215  0.40816706  0.50414466  1  0.480229  0  0.339289  0.29974  0  0.899068  0
H  H6  1  0.74552602  0.09184172  0.00414208  1  0.480065  0  0.33929  0.299722  0  0.899135  0
H  H7  1  0.75446953  0.59183838  0.49585626  1  0.480148  0  0.339307  0.299665  0  0.899253  0
H  H8  1  0.21861976  0.69344083  0.12452124  1  0.096513  0  0.126924  0.100682  0  0.962143  0
H  H9  1  0.28138133  0.19344700  0.37547645  1  0.096443  0  0.126905  0.100622  0  0.962194  0
H  H10  1  0.78137508  0.30656160  0.87547547  1  0.096396  0  0.126953  0.10071  0  0.962096  0
H  H11  1  0.71862342  0.80655393  0.62452395  1  0.096417  0  0.126905  0.100635  0  0.962136  0
H  H12  1  0.24952391  0.81005075  0.05762223  1  0.093209  0  0.109371  0.108631  0  0.999376  0
H  H13  1  0.25047175  0.31005827  0.44237528  1  0.09276  0  0.109399  0.108635  0  0.999485  0
H  H14  1  0.75047097  0.18995094  0.94237590  1  0.093197  0  0.109336  0.108565  0  0.999309  0
H  H15  1  0.74951772  0.68994341  0.55762420  1  0.092451  0  0.109391  0.108606  0  0.999323  0
H  H16  1  0.81140194  0.73477414  0.00623961  1  0.099106  0  0.112998  0.122394  0  1.005773  0
H  H17  1  0.68859240  0.23477496  0.49376248  1  0.099121  0  0.112969  0.122425  0  1.005759  0
H  H18  1  0.18859839  0.26522604  0.99375860  1  0.099138  0  0.11304  0.122433  0  1.005776  0
H  H19  1  0.31140258  0.76523422  0.50623955  1  0.099163  0  0.113049  0.122473  0  1.005708  0
H  H20  1  0.79810545  0.62065059  0.07783347  1  0.161206  0  0.120228  0.102236  0  1.050824  0
H  H21  1  0.70189427  0.12065165  0.42216774  1  0.161262  0  0.120248  0.102275  0  1.050754  0
H  H22  1  0.20189486  0.37935034  0.92216368  1  0.161187  0  0.120198  0.102214  0  1.050869  0
H  H23  1  0.29811054  0.87935679  0.57783550  1  0.161189  0  0.120215  0.102169  0  1.050884  0
H  H24  1  0.79532865  0.96721808  0.87314835  1  0.032018  0  0.096793  0.102925  0  1.028096  0
H  H25  1  0.70466405  0.46721584  0.62685190  1  0.032088  0  0.096778  0.102954  0  1.028036  0
H  H26  1  0.20466288  0.03277984  0.12684654  1  0.03213  0  0.096793  0.102979  0  1.027962  0
H  H27  1  0.29532223  0.53278434  0.37315073  1  0.031902  0  0.096809  0.102944  0  1.028059  0
H  H28  1  0.93493362  0.09473368  0.82887233  1  0.061592  0  0.095625  0.095734  0  1.008717  0
H  H29  1  0.56505921  0.59473248  0.67112792  1  0.061617  0  0.095617  0.095757  0  1.008701  0
H  H30  1  0.06505682  0.90526725  0.17112255  1  0.061797  0  0.095569  0.095691  0  1.008824  0
H  H31  1  0.43493248  0.40526995  0.32887336  1  0.061669  0  0.095563  0.095672  0  1.008771  0
H  H32  1  0.18626509  0.13979468  0.85386894  1  0.120839  0  0.101635  0.116713  0  1.023552  0
H  H33  1  0.31373271  0.63980153  0.64613106  1  0.120978  0  0.101745  0.116822  0  1.023687  0
H  H34  1  0.81372863  0.86021001  0.14612669  1  0.120959  0  0.101616  0.116691  0  1.023642  0
H  H35  1  0.68626116  0.36020616  0.35387025  1  0.120819  0  0.101602  0.116665  0  1.023579  0
H  H36  1  0.31367101  0.05798517  0.92451613  1  0.072891  0  0.104163  0.114684  0  0.987682  0
H  H37  1  0.18632646  0.55799285  0.57548394  1  0.072737  0  0.104129  0.114651  0  0.987668  0
H  H38  1  0.68632706  0.94201877  0.07547885  1  0.072825  0  0.104199  0.114719  0  0.987695  0
H  H39  1  0.81366308  0.44201634  0.42451837  1  0.072964  0  0.104149  0.114664  0  0.987694  0
H  H40  1  0.78058193  0.87004289  0.25492161  1  0.137409  0  0.125146  0.135073  0  0.979613  0
H  H41  1  0.71942635  0.37003785  0.24507735  1  0.137434  0  0.125106  0.135029  0  0.979631  0
H  H42  1  0.21943268  0.12996630  0.74508070  1  0.137345  0  0.125114  0.135046  0  0.979553  0
H  H43  1  0.28057399  0.62995633  0.75492121  1  0.137363  0  0.125132  0.135069  0  0.97958  0
H  H44  1  0.04753562  0.94431223  0.38153992  1  0.245141  0  0.133452  0.109075  0  1.051839  0
H  H45  1  0.45246644  0.44431347  0.11845790  1  0.245089  0  0.133478  0.109086  0  1.051833  0
H  H46  1  0.95247337  0.05568570  0.61845628  1  0.245028  0  0.133494  0.109111  0  1.051808  0
H  H47  1  0.54753285  0.55568671  0.88154206  1  0.245111  0  0.133461  0.109058  0  1.0519  0
H  H48  1  0.19133402  0.72574363  0.28908100  1  0.164518  0  0.138676  0.122222  0  0.973751  0
H  H49  1  0.30866684  0.22574360  0.21091950  1  0.16449  0  0.138675  0.12223  0  0.97373  0
H  H50  1  0.80865874  0.27426031  0.71091959  1  0.16477  0  0.138669  0.122219  0  0.973691  0
H  H51  1  0.69133239  0.77425283  0.78907834  1  0.164538  0  0.138699  0.122309  0  0.97364  0
H  H52  1  0.30274219  0.74784317  0.36072574  1  0.100457  0  0.126499  0.130722  0  0.965837  0
H  H53  1  0.19725954  0.24784542  0.13927404  1  0.100502  0  0.126516  0.130727  0  0.965797  0
H  H54  1  0.69726137  0.25215475  0.63927110  1  0.100543  0  0.126514  0.130725  0  0.96574  0
H  H55  1  0.80273433  0.75215551  0.86072727  1  0.100531  0  0.126528  0.130724  0  0.965774  0
H  H56  1  0.21267525  0.81225425  0.40553326  1  0.152638  0  0.129702  0.143506  0  0.974955  0
H  H57  1  0.28732482  0.31225629  0.09446714  1  0.152636  0  0.129702  0.143506  0  0.974957  0
H  H58  1  0.78732840  0.18773768  0.59446676  1  0.152616  0  0.129712  0.143506  0  0.974986  0
H  H59  1  0.71266901  0.68774314  0.90553240  1  0.152616  0  0.129668  0.143497  0  0.975043  0
H  H60  1  0.87728388  0.32577187  0.10195515  1  0.566594  0  0.309331  0.299767  0  0.998115  0
H  H61  1  0.62272699  0.82576874  0.39804425  1  0.566746  0  0.309308  0.299807  0  0.99814  0
H  H62  1  0.12272197  0.67422681  0.89804597  1  0.566678  0  0.309342  0.299815  0  0.9981  0
H  H63  1  0.37728098  0.17422468  0.60195442  1  0.566603  0  0.309348  0.299802  0  0.998103  0
H  H64  1  0.46251081  0.41173994  0.92584714  1  0.140279  0  0.108179  0.091602  0  1.043498  0
H  H65  1  0.03749000  0.91174001  0.57415442  1  0.140244  0  0.108187  0.091642  0  1.043446  0
H  H66  1  0.53749396  0.58824898  0.07415432  1  0.14025  0  0.108144  0.091539  0  1.043629  0
H  H67  1  0.96251259  0.08825416  0.42584666  1  0.140285  0  0.108161  0.091574  0  1.043605  0
H  H68  1  0.46168570  0.29786786  0.99711148  1  0.069638  0  0.102566  0.11014  0  1.018882  0
H  H69  1  0.03831503  0.79786897  0.50288913  1  0.069829  0  0.102572  0.110135  0  1.018899  0
H  H70  1  0.53832559  0.70212106  0.00288901  1  0.069886  0  0.102552  0.11013  0  1.018878  0
H  H71  1  0.96168313  0.20212671  0.49710976  1  0.069888  0  0.102541  0.110074  0  1.018912  0
H  H72  1  0.86885040  0.43517712  0.04547656  1  0.120039  0  0.107929  0.124967  0  1.043413  0
H  H73  1  0.63115622  0.93517822  0.45452339  1  0.120157  0  0.107925  0.124963  0  1.043461  0
H  H74  1  0.13115217  0.56482081  0.95452381  1  0.120128  0  0.107903  0.124953  0  1.043322  0
H  H75  1  0.36885066  0.06482346  0.54547527  1  0.120069  0  0.107899  0.124942  0  1.043383  0
H  H76  1  0.85392181  0.53958125  0.97246016  1  0.08639  0  0.105007  0.075625  0  1.018235  0
H  H77  1  0.64607910  0.03958267  0.52753813  1  0.086343  0  0.104999  0.075631  0  1.018213  0
H  H78  1  0.14608179  0.46041067  0.02753809  1  0.08684  0  0.104982  0.075637  0  1.018202  0
H  H79  1  0.35392344  0.96041375  0.47246118  1  0.086289  0  0.104994  0.075624  0  1.018203  0
H  H80  1  0.92615307  0.20789226  0.18811669  1  0.075897  0  0.104598  0.116299  0  0.98626  0
H  H81  1  0.57386326  0.70788744  0.31188324  1  0.075692  0  0.104561  0.116227  0  0.98611  0
H  H82  1  0.07385498  0.79210867  0.81188481  1  0.076015  0  0.104587  0.116254  0  0.986349  0
H  H83  1  0.42614258  0.29210072  0.68811717  1  0.07573  0  0.104611  0.116257  0  0.986373  0
H  H84  1  0.80004686  0.07821466  0.23512741  1  0.075669  0  0.099938  0.103671  0  1.006572  0
H  H85  1  0.69997399  0.57821025  0.26487484  1  0.075888  0  0.099959  0.103683  0  1.006437  0
H  H86  1  0.19996341  0.92178401  0.76487590  1  0.075981  0  0.09995  0.103714  0  1.006519  0
H  H87  1  0.30003956  0.42178017  0.73512887  1  0.07577  0  0.099946  0.103712  0  1.006476  0
H  H88  1  0.55918132  0.01301450  0.20899199  1  0.082651  0  0.101852  0.109215  0  0.991224  0
H  H89  1  0.94083686  0.51300819  0.29101099  1  0.082499  0  0.101815  0.1092  0  0.991229  0
H  H90  1  0.44082566  0.98698643  0.79101057  1  0.082657  0  0.101836  0.109229  0  0.991193  0
H  H91  1  0.05917880  0.48698298  0.70899027  1  0.082765  0  0.101843  0.109211  0  0.991225  0
H  H92  1  0.43069453  0.07466547  0.13374231  1  0.058263  0  0.096336  0.101996  0  1.025746  0
H  H93  1  0.06931543  0.57466345  0.36626165  1  0.058035  0  0.096344  0.101998  0  1.025753  0
H  H94  1  0.56930918  0.92533171  0.86626020  1  0.058182  0  0.096326  0.10197  0  1.025799  0
H  H95  1  0.93069482  0.42533448  0.63374095  1  0.058254  0  0.09633  0.101981  0  1.025825  0
C  C96  1  0.13078692  0.70489268  0.09756273  1  0.462574  0  0.054209  0.099275  0  3.945436  0
C  C97  1  0.36920865  0.20490061  0.40243665  1  0.462986  0  0.054233  0.09938  0  3.945281  0
C  C98  1  0.86921014  0.29511050  0.90243543  1  0.462506  0  0.054196  0.099322  0  3.945131  0
C  C99  1  0.63078415  0.79510332  0.59756535  1  0.462613  0  0.054212  0.099382  0  3.945365  0
C  C100  1  0.14671775  0.76999962  0.05979263  1  -0.005476  0  -0.079944  -0.164654  0  3.968293  0
C  C101  1  0.35328051  0.27000446  0.44020744  1  -0.005532  0  -0.079986  -0.164753  0  3.968609  0
C  C102  1  0.85328146  0.23000282  0.94020450  1  -0.005236  0  -0.079959  -0.164716  0  3.968036  0
C  C103  1  0.64671657  0.73000473  0.55979179  1  -0.004399  0  -0.079976  -0.164748  0  3.968329  0
C  C104  1  0.03065558  0.78275781  0.02594138  1  -0.019694  0  0.01821  0.063041  0  4.00719  0
C  C105  1  0.46934361  0.28276727  0.47405691  1  -0.019809  0  0.018315  0.063293  0  4.006958  0
C  C106  1  0.96934251  0.21723937  0.97405467  1  -0.019901  0  0.018277  0.06328  0  4.006843  0
C  C107  1  0.53065135  0.71724042  0.52594441  1  -0.01976  0  0.018287  0.063316  0  4.006785  0
C  C108  1  0.90320462  0.72694305  0.03195380  1  0.051479  0  -0.073304  -0.147876  0  3.9266  0
C  C109  1  0.59678975  0.22694662  0.46804653  1  0.051227  0  -0.073285  -0.147968  0  3.926497  0
C  C110  1  0.09679137  0.27305488  0.96804506  1  0.051275  0  -0.073338  -0.147958  0  3.926592  0
C  C111  1  0.40320199  0.77305581  0.53195653  1  0.051404  0  -0.07333  -0.148059  0  3.92665  0
C  C112  1  0.89503510  0.66409653  0.07080006  1  0.436063  0  0.050087  0.091722  0  3.924561  0
C  C113  1  0.60495987  0.16409648  0.42920140  1  0.436408  0  0.050077  0.091712  0  3.924512  0
C  C114  1  0.10496528  0.33590365  0.92919992  1  0.436352  0  0.050101  0.091723  0  3.924726  0
C  C115  1  0.39504266  0.83591271  0.57079791  1  0.43595  0  0.050093  0.091875  0  3.924733  0
C  C116  1  0.03630934  0.85166290  0.98613018  1  0.999353  0  0.216702  0.28686  0  4.049911  0
C  C117  1  0.46368542  0.35167053  0.51386922  1  0.999921  0  0.216599  0.286592  0  4.050053  0
C  C118  1  0.96368116  0.14833653  0.01386718  1  0.999773  0  0.21668  0.286749  0  4.049763  0
C  C119  1  0.53630409  0.64833716  0.48613203  1  0.999712  0  0.216676  0.28676  0  4.049757  0
C  C120  1  0.97665617  0.94039708  0.92406542  1  0.491954  0  0.079389  0.137312  0  4.087966  0
C  C121  1  0.52333246  0.44039658  0.57593657  1  0.492062  0  0.079402  0.137296  0  4.087759  0
C  C122  1  0.02333546  0.05960610  0.07593337  1  0.492  0  0.079483  0.137589  0  4.087995  0
C  C123  1  0.47665597  0.55960811  0.42406502  1  0.491878  0  0.079454  0.137518  0  4.088079  0
C  C124  1  0.90733223  0.98650553  0.88421545  1  -0.015323  0  -0.102442  -0.175178  0  4.018096  0
C  C125  1  0.59266035  0.48650231  0.61578691  1  -0.015392  0  -0.102421  -0.175224  0  4.017991  0
C  C126  1  0.09265938  0.01349690  0.11578264  1  -0.01539  0  -0.102567  -0.175496  0  4.018244  0
C  C127  1  0.40732811  0.51350237  0.38421575  1  -0.015456  0  -0.102479  -0.175267  0  4.01804  0
C  C128  1  0.98589561  0.05737952  0.85988104  1  -0.076367  0  -0.10188  -0.093856  0  4.043632  0
C  C129  1  0.51409862  0.55738393  0.64011785  1  -0.076456  0  -0.101902  -0.093854  0  4.043609  0
C  C130  1  0.01409811  0.94262066  0.14011459  1  -0.076486  0  -0.101745  -0.093712  0  4.043733  0
C  C131  1  0.48589094  0.44261926  0.35988518  1  -0.076266  0  -0.101887  -0.093967  0  4.043642  0
C  C132  1  0.13070104  0.08317859  0.87423132  1  -0.034043  0  -0.092169  -0.073911  0  3.995736  0
C  C133  1  0.36929407  0.58318154  0.62577083  1  -0.034237  0  -0.092272  -0.074134  0  3.995973  0
C  C134  1  0.86929382  0.91682234  0.12576611  1  -0.033959  0  -0.092214  -0.073937  0  3.995974  0
C  C135  1  0.63069872  0.41682615  0.37423082  1  -0.033956  0  -0.092105  -0.073727  0  3.995707  0
C  C136  1  0.20170609  0.03852956  0.91355350  1  0.015232  0  -0.095794  -0.170621  0  4.011352  0
C  C137  1  0.29828613  0.53853522  0.58644758  1  0.015403  0  -0.095759  -0.170499  0  4.01111  0
C  C138  1  0.79828883  0.96147513  0.08644605  1  0.014956  0  -0.095808  -0.170719  0  4.011452  0
C  C139  1  0.70170013  0.46147247  0.41355433  1  0.015343  0  -0.09571  -0.17055  0  4.011421  0
C  C140  1  0.12292293  0.96733350  0.93794480  1  0.287974  0  0.095817  0.155429  0  4.029895  0
C  C141  1  0.37706863  0.46733980  0.56205623  1  0.287824  0  0.09586  0.155534  0  4.029733  0
C  C142  1  0.87707196  0.03267043  0.06205404  1  0.288169  0  0.095876  0.155639  0  4.029837  0
C  C143  1  0.62291982  0.53266789  0.43794643  1  0.287935  0  0.095783  0.15535  0  4.030129  0
C  C144  1  0.96300366  0.72655440  0.22264866  1  1.619687  0  0.197108  0.552223  0  4.273385  0
C  C145  1  0.53699942  0.22655301  0.27735143  1  1.619247  0  0.197143  0.552423  0  4.273228  0
C  C146  1  0.03699560  0.27345104  0.77735060  1  1.620104  0  0.197135  0.552264  0  4.27316  0
C  C147  1  0.46299224  0.77344342  0.72264879  1  1.619292  0  0.197222  0.55238  0  4.27328  0
C  C148  1  0.98563688  0.79325871  0.26558828  1  0.064272  0  0.001722  -0.052417  0  3.964667  0
C  C149  1  0.51436665  0.29325534  0.23441034  1  0.063955  0  0.001707  -0.052577  0  3.964692  0
C  C150  1  0.01436779  0.20674748  0.73440928  1  0.063356  0  0.001683  -0.05256  0  3.964869  0
C  C151  1  0.48562935  0.70673733  0.76558888  1  0.063943  0  0.001647  -0.052669  0  3.965018  0
C  C152  1  0.87936687  0.86220203  0.27766027  1  -0.004044  0  -0.03268  -0.037059  0  3.86045  0
C  C153  1  0.62063709  0.36219750  0.22233758  1  -0.003652  0  -0.032631  -0.036896  0  3.860449  0
C  C154  1  0.12063347  0.13780416  0.72233829  1  -0.003615  0  -0.032558  -0.036799  0  3.860321  0
C  C155  1  0.37936434  0.63779442  0.77766100  1  -0.003683  0  -0.032613  -0.036934  0  3.860507  0
C  C156  1  0.89839750  0.91837138  0.31938944  1  0.114781  0  0.000482  -0.059916  0  3.943175  0
C  C157  1  0.60160385  0.41836786  0.18061151  1  0.11471  0  0.000495  -0.059948  0  3.943106  0
C  C158  1  0.10160181  0.08163331  0.68061124  1  0.114957  0  0.000494  -0.060082  0  3.943135  0
C  C159  1  0.39839653  0.58162782  0.81938882  1  0.11471  0  0.000488  -0.059869  0  3.943016  0
C  C160  1  0.02347864  0.90384285  0.34835585  1  0.343899  0  0.082602  0.055477  0  3.75664  0
C  C161  1  0.47651947  0.40384310  0.15164337  1  0.343941  0  0.082554  0.055437  0  3.756549  0
C  C162  1  0.97652388  0.09615808  0.65164274  1  0.343959  0  0.082478  0.05548  0  3.756568  0
C  C163  1  0.52347982  0.59615483  0.84835659  1  0.343868  0  0.082554  0.055392  0  3.756517  0
C  C164  1  0.10735347  0.78046136  0.29619693  1  0.384606  0  0.079305  0.034482  0  3.808246  0
C  C165  1  0.39264796  0.28045875  0.20380282  1  0.384595  0  0.079313  0.034567  0  3.808074  0
C  C166  1  0.89264474  0.21954182  0.70380374  1  0.384449  0  0.079308  0.034554  0  3.807989  0
C  C167  1  0.60735130  0.71953918  0.79619609  1  0.384674  0  0.079271  0.03442  0  3.808069  0
C  C168  1  0.78183678  0.98772160  0.33609948  1  1.6196  0  0.205939  0.566967  0  4.254753  0
C  C169  1  0.71816278  0.48772141  0.16389925  1  1.619665  0  0.205843  0.566808  0  4.254994  0
C  C170  1  0.21816689  0.01228083  0.66390161  1  1.619461  0  0.205937  0.566947  0  4.254717  0
C  C171  1  0.28183104  0.51227652  0.83610029  1  1.619677  0  0.205988  0.567004  0  4.25467  0
C  C172  1  0.25075013  0.81915869  0.36946225  1  0.219956  0  -0.046784  -0.237766  0  3.833032  0
C  C173  1  0.24925095  0.31915999  0.13053780  1  0.219941  0  -0.046803  -0.237757  0  3.833012  0
C  C174  1  0.74925132  0.18083774  0.63053703  1  0.219879  0  -0.046858  -0.237824  0  3.833111  0
C  C175  1  0.75074179  0.68084019  0.86946207  1  0.219991  0  -0.046831  -0.237836  0  3.833168  0
C  C176  1  0.36283373  0.90408607  0.36749349  1  1.626437  0  0.211268  0.608991  0  4.212079  0
C  C177  1  0.13716770  0.40408785  0.13250755  1  1.626446  0  0.211298  0.609016  0  4.21192  0
C  C178  1  0.63716778  0.09591336  0.63250828  1  1.626371  0  0.211293  0.608959  0  4.211928  0
C  C179  1  0.86283163  0.59591684  0.86749419  1  1.626689  0  0.211382  0.609132  0  4.211839  0
C  C180  1  0.55108238  0.41362027  0.95318130  1  0.452289  0  0.031005  0.071352  0  3.989787  0
C  C181  1  0.94891843  0.91362019  0.54681876  1  0.452298  0  0.03096  0.071202  0  3.989815  0
C  C182  1  0.44891907  0.58637165  0.04681799  1  0.450501  0  0.03091  0.071224  0  3.990038  0
C  C183  1  0.05108521  0.08637698  0.45318091  1  0.451985  0  0.030995  0.071351  0  3.989822  0
C  C184  1  0.55025904  0.35089461  0.99259993  1  0.008422  0  -0.089184  -0.166134  0  3.962209  0
C  C185  1  0.94974344  0.85089619  0.50740021  1  0.008245  0  -0.089173  -0.166025  0  3.962196  0
C  C186  1  0.44974246  0.64910257  0.00740113  1  0.009211  0  -0.089125  -0.165996  0  3.96238  0
C  C187  1  0.05025911  0.14910099  0.49259945  1  0.008764  0  -0.089156  -0.16599  0  3.962359  0
C  C188  1  0.66546453  0.35628808  0.02719175  1  -0.059944  0  0.005885  0.051191  0  4.013864  0
C  C189  1  0.83453410  0.85629199  0.47280851  1  -0.059956  0  0.005861  0.051117  0  4.013871  0
C  C190  1  0.33454019  0.64370685  0.97280759  1  -0.060271  0  0.005899  0.051144  0  4.014143  0
C  C191  1  0.16546193  0.14370969  0.52719176  1  -0.060195  0  0.005846  0.051092  0  4.01394  0
C  C192  1  0.77674194  0.42623019  0.01994682  1  -0.0751  0  -0.088639  -0.170179  0  3.926166  0
C  C193  1  0.72325931  0.92623455  0.48005306  1  -0.074847  0  -0.088608  -0.170113  0  3.926367  0
C  C194  1  0.22326494  0.57376399  0.98005183  1  -0.074728  0  -0.088554  -0.170021  0  3.926095  0
C  C195  1  0.27673888  0.07376788  0.51994654  1  -0.074733  0  -0.088564  -0.170048  0  3.926172  0
C  C196  1  0.76783093  0.48547119  0.97916116  1  0.526191  0  0.033807  0.083148  0  3.99927  0
C  C197  1  0.73217358  0.98547590  0.52083853  1  0.525883  0  0.033814  0.083132  0  3.99931  0
C  C198  1  0.23217488  0.51452073  0.02083819  1  0.525372  0  0.033776  0.083054  0  3.999275  0
C  C199  1  0.26782682  0.01452278  0.47916216  1  0.525903  0  0.033781  0.083076  0  3.999298  0
C  C200  1  0.66687479  0.28947168  0.06827813  1  1.024353  0  0.2125  0.28487  0  4.05078  0
C  C201  1  0.83313098  0.78947202  0.43172194  1  1.02451  0  0.2125  0.284894  0  4.050736  0
C  C202  1  0.33313104  0.71052624  0.93172193  1  1.025037  0  0.212395  0.284689  0  4.05104  0
C  C203  1  0.16687265  0.21052816  0.56827774  1  1.024508  0  0.212443  0.2848  0  4.050895  0
C  C204  1  0.74673753  0.21326797  0.13454717  1  0.306222  0  0.092153  0.144513  0  4.032623  0
C  C205  1  0.75327547  0.71326592  0.36545272  1  0.305851  0  0.092151  0.144606  0  4.032524  0
C  C206  1  0.25326832  0.78672846  0.86545396  1  0.306367  0  0.092036  0.144428  0  4.03278  0
C  C207  1  0.24673035  0.28672751  0.63454698  1  0.306275  0  0.092053  0.144438  0  4.032729  0
C  C208  1  0.81967299  0.17863664  0.17612311  1  0.010669  0  -0.094559  -0.165647  0  3.995615  0
C  C209  1  0.68034683  0.67863582  0.32387513  1  0.011363  0  -0.094546  -0.16559  0  3.995516  0
C  C210  1  0.18033610  0.82136204  0.82387700  1  0.010569  0  -0.094488  -0.165564  0  3.995738  0
C  C211  1  0.31966873  0.32136286  0.67612187  1  0.010896  0  -0.094508  -0.165522  0  3.995718  0
C  C212  1  0.74897930  0.10593998  0.20196628  1  -0.017038  0  -0.093123  -0.073048  0  4.017501  0
C  C213  1  0.75103802  0.60593371  0.29803589  1  -0.017245  0  -0.09303  -0.072867  0  4.017123  0
C  C214  1  0.25102441  0.89406095  0.79803623  1  -0.017349  0  -0.093126  -0.073063  0  4.017372  0
C  C215  1  0.24897443  0.39405371  0.70196745  1  -0.017143  0  -0.093107  -0.073053  0  4.017484  0
C  C216  1  0.61034459  0.06871846  0.18693947  1  -0.062467  0  -0.100208  -0.09927  0  4.03896  0
C  C217  1  0.88967306  0.56871529  0.31306239  1  -0.061128  0  -0.100209  -0.099344  0  4.038905  0
C  C218  1  0.38966127  0.93128022  0.81306201  1  -0.062366  0  -0.100211  -0.099295  0  4.038892  0
C  C219  1  0.11034157  0.43127664  0.68694063  1  -0.062533  0  -0.100207  -0.099271  0  4.038942  0
C  C220  1  0.53783879  0.10314409  0.14550005  1  -0.019718  0  -0.102311  -0.171743  0  4.017851  0
C  C221  1  0.96217636  0.60314419  0.35450139  1  -0.02077  0  -0.102245  -0.171687  0  4.017889  0
C  C222  1  0.46216815  0.89685309  0.85450074  1  -0.019409  0  -0.102279  -0.171735  0  4.017984  0
C  C223  1  0.03783820  0.39685749  0.64549914  1  -0.019746  0  -0.102317  -0.171805  0  4.017946  0
C  C224  1  0.60655556  0.17659974  0.11877164  1  0.383989  0  0.073852  0.129468  0  4.108954  0
C  C225  1  0.89345455  0.67660002  0.38122966  1  0.383793  0  0.073818  0.129346  0  4.108966  0
C  C226  1  0.39345028  0.82339669  0.88122878  1  0.383481  0  0.073887  0.129548  0  4.108912  0
C  C227  1  0.10655131  0.32339866  0.61877181  1  0.383913  0  0.073891  0.129595  0  4.108988  0
N  N228  1  0.00685046  0.65328263  0.10339861  1  -1.240912  0  -0.326896  -0.236543  0  3.58569  0
N  N229  1  0.49314888  0.15328780  0.39660158  1  -1.240766  0  -0.32685  -0.236514  0  3.585466  0
N  N230  1  0.99315644  0.34671906  0.89660075  1  -1.240857  0  -0.326884  -0.236571  0  3.585641  0
N  N231  1  0.50685045  0.84671388  0.60340017  1  -1.241055  0  -0.326892  -0.236628  0  3.585623  0
N  N232  1  0.15699113  0.90940641  0.97740559  1  -1.254054  0  -0.379449  -0.314809  0  3.597099  0
N  N233  1  0.34300096  0.40940927  0.52259514  1  -1.254099  0  -0.37942  -0.314847  0  3.59694  0
N  N234  1  0.84300265  0.09059677  0.02259217  1  -1.254133  0  -0.379597  -0.315104  0  3.597143  0
N  N235  1  0.65699181  0.59059842  0.47740580  1  -1.253964  0  -0.379505  -0.314821  0  3.597198  0
N  N236  1  0.92623989  0.86866881  0.95458887  1  -1.176343  0  -0.341291  -0.408822  0  3.176578  0
N  N237  1  0.57375156  0.36867047  0.54541288  1  -1.176798  0  -0.341357  -0.408821  0  3.176312  0
N  N238  1  0.07374956  0.13133438  0.04541025  1  -1.176676  0  -0.341253  -0.408812  0  3.176395  0
N  N239  1  0.42623796  0.63133797  0.45458908  1  -1.176857  0  -0.341337  -0.408904  0  3.176535  0
N  N240  1  0.12338730  0.83464655  0.33662618  1  -1.230457  0  -0.204708  0.127883  0  3.771945  0
N  N241  1  0.37661470  0.33464492  0.16337246  1  -1.230457  0  -0.204665  0.127873  0  3.771809  0
N  N242  1  0.87661087  0.16535438  0.66337271  1  -1.230391  0  -0.204641  0.127876  0  3.771831  0
N  N243  1  0.62338999  0.66535150  0.83662581  1  -1.230464  0  -0.20464  0.128044  0  3.77171  0
N  N244  1  0.65780429  0.48051969  0.94593886  1  -1.226794  0  -0.324832  -0.274756  0  3.345437  0
N  N245  1  0.84219480  0.98052154  0.55406076  1  -1.226831  0  -0.324807  -0.274712  0  3.345476  0
N  N246  1  0.34219607  0.51947223  0.05406077  1  -1.225857  0  -0.324721  -0.274633  0  3.345409  0
N  N247  1  0.15780557  0.01947488  0.44593923  1  -1.226919  0  -0.324793  -0.274721  0  3.345331  0
N  N248  1  0.78136288  0.28449780  0.10165235  1  -1.296831  0  -0.378394  -0.315644  0  3.574418  0
N  N249  1  0.71864727  0.78449801  0.39834636  1  -1.29671  0  -0.378458  -0.315796  0  3.574308  0
N  N250  1  0.21864296  0.71549788  0.89834806  1  -1.296825  0  -0.378302  -0.315568  0  3.574542  0
N  N251  1  0.28135850  0.21549992  0.60165156  1  -1.296812  0  -0.378334  -0.315656  0  3.574546  0
N  N252  1  0.55975930  0.22524185  0.07741809  1  -1.187654  0  -0.356958  -0.446504  0  3.207096  0
N  N253  1  0.94024929  0.72524327  0.42258385  1  -1.187839  0  -0.356971  -0.446528  0  3.20705  0
N  N254  1  0.44024656  0.77475458  0.92258303  1  -1.188322  0  -0.356984  -0.446518  0  3.207066  0
N  N255  1  0.05975546  0.27475766  0.57741690  1  -1.187836  0  -0.356984  -0.446552  0  3.207038  0
O  O256  1  0.06834852  0.66441481  0.21578622  1  -1.171476  0  -0.341139  -0.566918  0  2.247011  0
O  O257  1  0.43165402  0.16441696  0.28421542  1  -1.171579  0  -0.341141  -0.566982  0  2.247006  0
O  O258  1  0.93165078  0.33558912  0.78421445  1  -1.17175  0  -0.341123  -0.566967  0  2.247031  0
O  O259  1  0.56834195  0.83557872  0.71578273  1  -1.171339  0  -0.341188  -0.566952  0  2.247033  0
O  O260  1  0.84697677  0.73340509  0.19790291  1  -1.164119  0  -0.311197  -0.529771  0  2.129343  0
O  O261  1  0.65303274  0.23340385  0.30209549  1  -1.163872  0  -0.311259  -0.529901  0  2.129319  0
O  O262  1  0.15301928  0.26660034  0.80209843  1  -1.164143  0  -0.311277  -0.529818  0  2.129248  0
O  O263  1  0.34696216  0.76659482  0.69790335  1  -1.163981  0  -0.311262  -0.529856  0  2.129281  0
O  O264  1  0.66256797  0.98862429  0.30980281  1  -1.161773  0  -0.322963  -0.542742  0  2.307354  0
O  O265  1  0.83743059  0.48862197  0.19019909  1  -1.161835  0  -0.322972  -0.542753  0  2.307273  0
O  O266  1  0.33742918  0.01137965  0.69019854  1  -1.161883  0  -0.322976  -0.542806  0  2.307418  0
O  O267  1  0.16256655  0.51137596  0.80980191  1  -1.161913  0  -0.323025  -0.542829  0  2.307409  0
O  O268  1  0.80565611  0.03528698  0.37375570  1  -1.176352  0  -0.304131  -0.532284  0  2.207073  0
O  O269  1  0.69435199  0.53528316  0.12624428  1  -1.176363  0  -0.304022  -0.532089  0  2.207469  0
O  O270  1  0.19434974  0.96471845  0.62624506  1  -1.176259  0  -0.304104  -0.532201  0  2.207071  0
O  O271  1  0.30564622  0.46471627  0.87375638  1  -1.176386  0  -0.304107  -0.532236  0  2.20724  0
O  O272  1  0.33868658  0.97247151  0.33649631  1  -1.15909  0  -0.321394  -0.536993  0  2.264655  0
O  O273  1  0.16131426  0.47247306  0.16350644  1  -1.159091  0  -0.32142  -0.537048  0  2.264474  0
O  O274  1  0.66131720  0.02753092  0.66350869  1  -1.159079  0  -0.32143  -0.537028  0  2.264393  0
O  O275  1  0.83868180  0.52753238  0.83649561  1  -1.159141  0  -0.321446  -0.537091  0  2.264392  0
O  O276  1  0.47060467  0.89829016  0.39662401  1  -1.194579  0  -0.318219  -0.567567  0  2.232949  0
O  O277  1  0.02939574  0.39829702  0.10337773  1  -1.194438  0  -0.318204  -0.56752  0  2.232978  0
O  O278  1  0.52939683  0.10170327  0.60337705  1  -1.194408  0  -0.318179  -0.567464  0  2.232895  0
O  O279  1  0.97060252  0.60170841  0.89662470  1  -1.194821  0  -0.318263  -0.567626  0  2.232942  0
