# generated using pymatgen
data_AgH2C4(NO)3
_symmetry_space_group_name_H-M   'P 1'
_cell_length_a   5.51307623
_cell_length_b   8.28403706
_cell_length_c   13.66171165
_cell_angle_alpha   89.99601581
_cell_angle_beta   91.77417686
_cell_angle_gamma   90.00786412
_symmetry_Int_Tables_number   1
_chemical_formula_structural   AgH2C4(NO)3
_chemical_formula_sum   'Ag4 H8 C16 N12 O12'
_cell_volume   623.63846825
_cell_formula_units_Z   4
loop_
 _symmetry_equiv_pos_site_id
 _symmetry_equiv_pos_as_xyz
  1  'x, y, z'
loop_
 _atom_site_type_symbol
 _atom_site_label
 _atom_site_symmetry_multiplicity
 _atom_site_fract_x
 _atom_site_fract_y
 _atom_site_fract_z
 _atom_site_occupancy
 _atom_site_hle17_bader_spin_density
 _atom_site_hle17_ddec_charge
 _atom_site_hle17_ddec_spin_density
 _atom_site_hle17_ddec_sum_bond_order
 _atom_site_hle17_magmom
 _atom_site_hse06_10hf_bader_charge
 _atom_site_hse06_10hf_bader_spin_density
 _atom_site_hse06_10hf_ddec_charge
 _atom_site_hse06_10hf_ddec_spin_density
 _atom_site_hse06_10hf_ddec_sum_bond_order
 _atom_site_hse06_10hf_magmom
 _atom_site_hse06_bader_spin_density
 _atom_site_hse06_ddec_charge
 _atom_site_hse06_ddec_spin_density
 _atom_site_hse06_ddec_sum_bond_order
 _atom_site_hse06_magmom
 _atom_site_pbe_bader_spin_density
 _atom_site_pbe_cm5_charge
 _atom_site_pbe_ddec_charge
 _atom_site_pbe_ddec_spin_density
 _atom_site_pbe_ddec_sum_bond_order
 _atom_site_pbe_magmom
Ag  Ag0  1  0.23606110  0.99164174  0.26964151  1  0  0.519288  0  1.463398  0  0.595637  0  0.37344  0  1.901373  0  0  0.397604  0  1.862511  0  0  0.481024  0.358218  0  1.927463  0
Ag  Ag1  1  0.76393397  0.49163869  0.73037553  1  0  0.51909  0  1.463989  0  0.595602  0  0.373218  0  1.902063  0  0  0.39739  0  1.86317  0  0  0.481099  0.358021  0  1.928157  0
Ag  Ag2  1  0.92296500  0.20775966  0.88753953  1  0  0.583803  0  1.425819  0  0.654821  0  0.452724  0  1.858324  0  0  0.473814  0  1.814258  0  0  0.496598  0.440654  0  1.887574  0
Ag  Ag3  1  0.07697568  0.70776377  0.11245840  1  0  0.583756  0  1.425908  0  0.654956  0  0.452609  0  1.85842  0  0  0.473708  0  1.814355  0  0  0.496591  0.440543  0  1.887676  0
H  H4  1  0.77128359  0.22348066  0.31679514  1  0  0.096493  0  0.949097  0  0.138721  0  0.096914  0  1.027462  0  0  0.100082  0  1.021269  0  0  0.121155  0.094639  0  1.03176  0
H  H5  1  0.22873147  0.72347793  0.68320360  1  0  0.09653  0  0.949128  0  0.138719  0  0.096988  0  1.027413  0  0  0.100154  0  1.021225  0  0  0.121181  0.094708  0  1.031722  0
H  H6  1  0.50384120  0.34945394  0.02405064  1  0  0.123442  0  0.903306  0  0.205525  0  0.13268  0  0.96156  0  0  0.135638  0  0.956918  0  0  0.138586  0.130446  0  0.964956  0
H  H7  1  0.49621203  0.84947359  0.97594236  1  0  0.123554  0  0.903473  0  0.205439  0  0.132824  0  0.961671  0  0  0.135785  0  0.957029  0  0  0.138667  0.130592  0  0.965067  0
H  H8  1  0.12892864  0.59905705  0.34118726  1  0  0.106912  0  0.951203  0  0.2104  0  0.104238  0  1.031345  0  0  0.10871  0  1.024099  0  0  0.122642  0.100987  0  1.036476  0
H  H9  1  0.87104163  0.09902892  0.65881551  1  0  0.10682  0  0.951327  0  0.210358  0  0.104059  0  1.031576  0  0  0.108515  0  1.024326  0  0  0.12256  0.100807  0  1.03671  0
H  H10  1  0.52480671  0.84883652  0.46900542  1  0  0.108553  0  0.902659  0  0.163692  0  0.117853  0  0.962172  0  0  0.120442  0  0.957784  0  0  0.133524  0.115921  0  0.965294  0
H  H11  1  0.47524425  0.34883195  0.53099123  1  0  0.1085  0  0.902659  0  0.16375  0  0.117885  0  0.962139  0  0  0.120457  0  0.957771  0  0  0.133552  0.116007  0  0.965202  0
C  C12  1  0.61302039  0.30129523  0.17647498  1  0  -0.074794  0  3.719792  0  0.292912  0  -0.082567  0  3.994838  0  0  -0.099645  0  4.016227  0  0  0.063913  -0.072319  0  3.981756  0
C  C13  1  0.38698522  0.80130727  0.82352119  1  0  -0.074686  0  3.719857  0  0.29314  0  -0.082417  0  3.994868  0  0  -0.099468  0  4.016204  0  0  0.063998  -0.07217  0  3.981789  0
C  C14  1  0.78029299  0.21862525  0.23712444  1  0  0.170417  0  3.700951  0  0.611606  0  0.118212  0  3.968387  0  0  0.136853  0  3.981038  0  0  0.071446  0.106302  0  3.959315  0
C  C15  1  0.21970426  0.71862792  0.76287125  1  0  0.170397  0  3.700496  0  0.611844  0  0.118196  0  3.967951  0  0  0.136832  0  3.980611  0  0  0.071549  0.106293  0  3.958897  0
C  C16  1  0.62967396  0.28746574  0.07439312  1  0  0.214261  0  3.621062  0  0.671851  0  0.167229  0  3.871306  0  0  0.187609  0  3.88092  0  0  0.095984  0.153838  0  3.864709  0
C  C17  1  0.37035402  0.78747875  0.92560511  1  0  0.214076  0  3.621098  0  0.673108  0  0.166966  0  3.871368  0  0  0.187342  0  3.880986  0  0  0.095835  0.153575  0  3.864787  0
C  C18  1  0.97403649  0.12205021  0.09726042  1  0  0.661086  0  3.863355  0  1.766555  0  0.608462  0  4.141846  0  0  0.641318  0  4.143229  0  0  0.306248  0.586412  0  4.140481  0
C  C19  1  0.02593393  0.62206646  0.90274979  1  0  0.660484  0  3.863287  0  1.766655  0  0.608155  0  4.141421  0  0  0.641015  0  4.142791  0  0  0.306097  0.586125  0  4.140056  0
C  C20  1  0.83249112  0.71323259  0.41811101  1  0  -0.062486  0  3.722709  0  0.346996  0  -0.074121  0  3.990771  0  0  -0.09236  0  4.016041  0  0  0.05976  -0.062989  0  3.975523  0
C  C21  1  0.16752946  0.21321426  0.58188846  1  0  -0.062638  0  3.722652  0  0.347345  0  -0.074337  0  3.99106  0  0  -0.092568  0  4.016315  0  0  0.059728  -0.063193  0  3.975812  0
C  C22  1  0.95958561  0.66762224  0.33518360  1  0  0.163602  0  3.698914  0  0.580235  0  0.11254  0  3.971707  0  0  0.131973  0  3.980236  0  0  0.068147  0.099884  0  3.965598  0
C  C23  1  0.04039210  0.16760700  0.66481534  1  0  0.163843  0  3.69897  0  0.579659  0  0.112898  0  3.97182  0  0  0.132365  0  3.98031  0  0  0.068241  0.100229  0  3.965715  0
C  C24  1  0.62008355  0.80514913  0.40551216  1  0  0.198625  0  3.670654  0  0.57715  0  0.14431  0  3.936289  0  0  0.16375  0  3.947897  0  0  0.083976  0.131883  0  3.927693  0
C  C25  1  0.37995943  0.30514769  0.59448832  1  0  0.198804  0  3.670372  0  0.577405  0  0.144315  0  3.936186  0  0  0.163764  0  3.947786  0  0  0.083909  0.13184  0  3.927589  0
C  C26  1  0.65638172  0.78842435  0.23425936  1  0  0.654323  0  3.867459  0  1.749309  0  0.599611  0  4.153023  0  0  0.631399  0  4.154877  0  0  0.300608  0.578323  0  4.151449  0
C  C27  1  0.34360601  0.28843104  0.76574813  1  0  0.65465  0  3.867325  0  1.751937  0  0.599715  0  4.153135  0  0  0.631496  0  4.154999  0  0  0.300597  0.578429  0  4.151561  0
N  N28  1  0.43055171  0.39921072  0.21768410  1  0  0.511041  0  3.925068  0  0.277679  0  0.536007  0  4.222509  0  0  0.560057  0  4.233008  0  0  0.036479  0.519862  0  4.215444  0
N  N29  1  0.56946620  0.89921540  0.78230444  1  0  0.511107  0  3.925302  0  0.277712  0  0.536085  0  4.222676  0  0  0.560132  0  4.23319  0  0  0.036544  0.519934  0  4.215619  0
N  N30  1  0.95009858  0.12739944  0.19905147  1  0  -0.438319  0  3.257768  0  -1.196787  0  -0.347041  0  3.538615  0  0  -0.378082  0  3.553364  0  0  -0.363661  -0.326362  0  3.527937  0
N  N31  1  0.04986996  0.62738955  0.80095986  1  0  -0.437904  0  3.257354  0  -1.196922  0  -0.346825  0  3.538264  0  0  -0.377863  0  3.553014  0  0  -0.363794  -0.326195  0  3.527639  0
N  N32  1  0.80639036  0.20281049  0.03651157  1  0  -0.407561  0  3.191051  0  -1.197145  0  -0.318401  0  3.462794  0  0  -0.347201  0  3.472794  0  0  -0.345699  -0.299421  0  3.455689  0
N  N33  1  0.19361152  0.70281921  0.96349686  1  0  -0.407297  0  3.190885  0  -1.198437  0  -0.318153  0  3.462483  0  0  -0.346954  0  3.47248  0  0  -0.345646  -0.299191  0  3.455394  0
N  N34  1  0.92609914  0.67801168  0.51398365  1  0  0.474825  0  3.984631  0  0.288793  0  0.520459  0  4.253494  0  0  0.541385  0  4.267426  0  0  0.035217  0.505394  0  4.244163  0
N  N35  1  0.07391859  0.17799850  0.48601342  1  0  0.474864  0  3.984607  0  0.289637  0  0.520271  0  4.253935  0  0  0.541149  0  4.267882  0  0  0.035256  0.5052  0  4.2446  0
N  N36  1  0.87680009  0.70668415  0.24627250  1  0  -0.453416  0  3.279546  0  -1.179729  0  -0.370895  0  3.571623  0  0  -0.397685  0  3.580403  0  0  -0.361962  -0.35342  0  3.565411  0
N  N37  1  0.12315086  0.20669057  0.75372940  1  0  -0.453561  0  3.279248  0  -1.179087  0  -0.371016  0  3.571416  0  0  -0.397811  0  3.580186  0  0  -0.361957  -0.353539  0  3.56521  0
N  N38  1  0.53483583  0.84288434  0.31690723  1  0  -0.439204  0  3.238821  0  -1.188908  0  -0.350032  0  3.529651  0  0  -0.379474  0  3.541745  0  0  -0.358352  -0.330491  0  3.520763  0
N  N39  1  0.46518542  0.34288776  0.68309567  1  0  -0.439491  0  3.239093  0  -1.192165  0  -0.350018  0  3.52989  0  0  -0.37947  0  3.542012  0  0  -0.358372  -0.330482  0  3.521021  0
O  O40  1  0.14472866  0.04619315  0.06201395  1  0  -0.582858  0  1.961102  0  -1.167518  0  -0.5446  0  2.214891  0  0  -0.567562  0  2.203948  0  0  -0.298086  -0.528837  0  2.221802  0
O  O41  1  0.85518959  0.54622573  0.93800681  1  0  -0.582631  0  1.960979  0  -1.167616  0  -0.544443  0  2.214572  0  0  -0.567421  0  2.203654  0  0  -0.297927  -0.528674  0  2.221457  0
O  O42  1  0.46415678  0.45169664  0.30312375  1  0  -0.394226  0  1.750819  0  -0.504478  0  -0.367689  0  1.962336  0  0  -0.383231  0  1.959933  0  0  -0.148832  -0.357046  0  1.963962  0
O  O43  1  0.53586519  0.95168193  0.69685596  1  0  -0.394337  0  1.750875  0  -0.504622  0  -0.367806  0  1.962435  0  0  -0.383342  0  1.960031  0  0  -0.148913  -0.357133  0  1.964031  0
O  O44  1  0.24392784  0.42915095  0.16605039  1  0  -0.400777  0  1.837449  0  -0.507367  0  -0.370101  0  2.082517  0  0  -0.382035  0  2.074466  0  0  -0.147019  -0.362551  0  2.088234  0
O  O45  1  0.75609864  0.92917229  0.83393660  1  0  -0.400879  0  1.837578  0  -0.507563  0  -0.370257  0  2.0827  0  0  -0.382198  0  2.074653  0  0  -0.147132  -0.36271  0  2.088426  0
O  O46  1  0.57050937  0.81606281  0.15104411  1  0  -0.556051  0  1.952725  0  -1.160186  0  -0.516538  0  2.203817  0  0  -0.537104  0  2.192474  0  0  -0.288759  -0.502906  0  2.211497  0
O  O47  1  0.42946460  0.31607602  0.84895779  1  0  -0.556088  0  1.952893  0  -1.160197  0  -0.516499  0  2.204076  0  0  -0.537062  0  2.192737  0  0  -0.288718  -0.502869  0  2.211755  0
O  O48  1  0.13431922  0.61774114  0.52363594  1  0  -0.389894  0  1.738175  0  -0.525017  0  -0.373127  0  1.940648  0  0  -0.385384  0  1.936722  0  0  -0.152138  -0.364611  0  1.943488  0
O  O49  1  0.86566855  0.11774084  0.47636395  1  0  -0.389733  0  1.738385  0  -0.524906  0  -0.372831  0  1.940953  0  0  -0.385091  0  1.937061  0  0  -0.151991  -0.364312  0  1.943792  0
O  O50  1  0.79604233  0.71018216  0.58516009  1  0  -0.387096  0  1.820847  0  -0.504802  0  -0.36956  0  2.055089  0  0  -0.380865  0  2.047613  0  0  -0.150824  -0.361809  0  2.060332  0
O  O51  1  0.20401366  0.21016742  0.41483744  1  0  -0.387222  0  1.820757  0  -0.505696  0  -0.369589  0  2.055129  0  0  -0.380863  0  2.047637  0  0  -0.150929  -0.361836  0  2.060385  0
