# generated using pymatgen
data_NiH28C34N4(ClO2)2
_symmetry_space_group_name_H-M   'P 1'
_cell_length_a   11.94490296
_cell_length_b   11.94891797
_cell_length_c   13.12583772
_cell_angle_alpha   68.80090361
_cell_angle_beta   68.80389723
_cell_angle_gamma   62.65031593
_symmetry_Int_Tables_number   1
_chemical_formula_structural   NiH28C34N4(ClO2)2
_chemical_formula_sum   'Ni2 H56 C68 N8 Cl4 O8'
_cell_volume   1507.59360980
_cell_formula_units_Z   2
loop_
 _symmetry_equiv_pos_site_id
 _symmetry_equiv_pos_as_xyz
  1  'x, y, z'
loop_
 _atom_site_type_symbol
 _atom_site_label
 _atom_site_symmetry_multiplicity
 _atom_site_fract_x
 _atom_site_fract_y
 _atom_site_fract_z
 _atom_site_occupancy
 _atom_site_hle17_ddec_charge
 _atom_site_hle17_ddec_spin_density
 _atom_site_hle17_ddec_sum_bond_order
 _atom_site_hle17_magmom
 _atom_site_hse06_10hf_ddec_charge
 _atom_site_hse06_10hf_ddec_spin_density
 _atom_site_hse06_10hf_ddec_sum_bond_order
 _atom_site_hse06_10hf_magmom
 _atom_site_hse06_ddec_charge
 _atom_site_hse06_ddec_spin_density
 _atom_site_hse06_ddec_sum_bond_order
 _atom_site_hse06_magmom
 _atom_site_pbe_cm5_charge
 _atom_site_pbe_ddec_charge
 _atom_site_pbe_ddec_spin_density
 _atom_site_pbe_ddec_sum_bond_order
 _atom_site_pbe_magmom
Ni  Ni0  1  0.95565984  0.04431714  0.25003104  1  0.744288  -0.091824  2.052618  0.0  0.754944  -0.097786  2.459822  0.0  0.86528  -0.106311  2.370139  0.0  0.618295  0.680553  -0.089875  2.521678  0.0
Ni  Ni1  1  0.04549202  0.95451977  0.75006361  1  0.796269  1.858586  2.021866  1.485  0.800718  1.922472  2.425839  1.611  0.90468  1.983097  2.340386  1.704  0.638137  0.725597  1.867026  2.487473  1.53
H  H2  1  0.03823324  0.85711743  0.46109708  1  0.112744  4.9e-05  0.923346  0.0  0.123243  0.000189  0.984052  0.001  0.126005  0.000163  0.980139  0.0  0.144639  0.121043  0.000216  0.987127  0.001
H  H3  1  0.14291510  0.96157409  0.03893926  1  0.112233  -0.000207  0.923075  0.0  0.122884  -0.000348  0.983629  -0.001  0.125643  -0.000308  0.979728  0.0  0.144518  0.120695  -0.000387  0.986691  -0.001
H  H4  1  0.96132684  0.14251852  0.53719695  1  0.110681  -3e-05  0.921471  0.001  0.121413  1.6e-05  0.981928  0.0  0.12428  0.0  0.977975  0.0  0.143561  0.119087  3.7e-05  0.985097  0.001
H  H5  1  0.85738951  0.03886219  0.96286589  1  0.110991  -8e-06  0.921457  0.001  0.121803  2.3e-05  0.98178  0.0  0.124619  1e-05  0.977895  0.0  0.143667  0.119559  3.9e-05  0.984853  0.001
H  H6  1  0.71292726  0.85915316  0.54488607  1  0.118788  6.2e-05  0.954649  0.0  0.126201  7.1e-05  1.019752  0.0  0.130562  4.2e-05  1.016233  0.0  0.110391  0.123003  0.000104  1.0224  0.0
H  H7  1  0.14094466  0.28709505  0.95483773  1  0.118905  -7e-05  0.954609  0.0  0.126391  -7.4e-05  1.019675  0.0  0.130751  -4.6e-05  1.016164  0.0  0.110484  0.1232  -0.000102  1.022317  0.0
H  H8  1  0.28670081  0.14039379  0.45524591  1  0.119137  0.000279  0.951104  0.0  0.126598  0.000263  1.016373  0.0  0.13094  0.000169  1.012957  0.0  0.110661  0.123434  0.000364  1.018888  0.0
H  H9  1  0.85986846  0.71310576  0.04468338  1  0.119324  0.000306  0.951544  0.0  0.126739  0.00029  1.016773  0.0  0.131077  0.000184  1.013362  0.0  0.110647  0.123578  0.000402  1.019274  0.0
H  H10  1  0.54320609  0.39041174  0.35347570  1  0.084866  -1.2e-05  0.985374  0.0  0.090458  -8e-06  1.058215  0.0  0.093519  -5e-06  1.056738  0.0  0.090558  0.088183  -1.2e-05  1.059437  0.0
H  H11  1  0.60958316  0.45686724  0.14656173  1  0.084984  -2e-06  0.985477  0.0  0.090567  2e-06  1.05835  0.0  0.093641  2e-06  1.056858  0.0  0.090587  0.08829  3e-06  1.059575  0.0
H  H12  1  0.45611403  0.61023373  0.64598129  1  0.084766  -2.2e-05  0.985151  0.0  0.090027  -1.8e-05  1.058206  0.0  0.093048  -1.4e-05  1.05676  0.0  0.090532  0.087837  -2.3e-05  1.059333  0.0
H  H13  1  0.38975945  0.54399314  0.85394587  1  0.084913  -6e-06  0.984986  0.0  0.090112  -1.2e-05  1.058145  0.0  0.093133  -9e-06  1.056699  0.0  0.090466  0.087909  -1.6e-05  1.059291  0.0
H  H14  1  0.50916153  0.79610878  0.36820575  1  0.109026  0.000213  0.95278  0.0  0.120945  0.000168  1.011307  0.0  0.123536  0.000115  1.011248  0.0  0.101138  0.119106  0.00022  1.011422  0.0
H  H15  1  0.20388977  0.49076311  0.13186166  1  0.108992  -0.000323  0.952883  0.0  0.120827  -0.000251  1.011522  0.0  0.123412  -0.000173  1.011445  0.0  0.101097  0.119024  -0.000324  1.011607  0.0
H  H16  1  0.48956909  0.20495115  0.63188545  1  0.108013  0.000246  0.953291  0.0  0.119864  0.000183  1.011999  0.0  0.122502  0.000121  1.011887  0.0  0.100133  0.117999  0.000247  1.012129  0.0
H  H17  1  0.79497389  0.51038894  0.86809343  1  0.108234  0.000248  0.952881  0.0  0.119915  0.000185  1.011765  0.0  0.122586  0.000123  1.011611  0.0  0.100159  0.118008  0.000249  1.011952  0.0
H  H18  1  0.35224116  0.59599978  0.37039126  1  0.095565  1e-06  0.938164  0.0  0.108843  1e-06  0.992527  0.0  0.111723  1e-06  0.991504  0.0  0.102934  0.106773  0.0  0.993342  0.0
H  H19  1  0.40397394  0.64782103  0.12953955  1  0.095612  1e-05  0.938043  0.0  0.108859  7e-06  0.992436  0.0  0.111735  6e-06  0.991423  0.0  0.102868  0.10679  9e-06  0.993251  0.0
H  H20  1  0.64709967  0.40465742  0.62905784  1  0.096196  1e-06  0.935062  0.0  0.109367  -2e-06  0.989623  0.0  0.112269  -1e-06  0.988588  0.0  0.103037  0.107297  -3e-06  0.990418  0.0
H  H21  1  0.59531932  0.35297140  0.87102513  1  0.09651  -8e-06  0.935531  0.0  0.109599  -6e-06  0.990049  0.0  0.1125  -5e-06  0.989022  0.0  0.103071  0.107528  -8e-06  0.990856  0.0
H  H22  1  0.21958587  0.13899101  0.11494898  1  0.103998  0.000161  0.98835  0.0  0.113827  0.00012  1.05484  0.0  0.116239  8.4e-05  1.054299  0.0  0.098317  0.112059  0.000154  1.055331  0.0
H  H23  1  0.86112014  0.78017488  0.38519223  1  0.104361  -0.000216  0.987698  0.0  0.114051  -0.000149  1.054267  0.0  0.116451  -0.0001  1.053737  0.0  0.098463  0.112291  -0.000194  1.054762  0.0
H  H24  1  0.78062092  0.86053714  0.88328604  1  0.104039  8e-06  0.988713  0.0  0.114026  -6e-06  1.054858  0.0  0.116571  -3.5e-05  1.054143  0.0  0.098136  0.11216  2.7e-05  1.055472  0.0
H  H25  1  0.13952488  0.21948828  0.61670020  1  0.104107  4e-06  0.988483  0.0  0.113994  -7e-06  1.054785  0.0  0.116541  -3.5e-05  1.054071  0.0  0.098123  0.112121  2.6e-05  1.055422  0.0
H  H26  1  0.18802785  0.71149099  0.57902426  1  0.100858  -4.2e-05  0.933784  0.0  0.115813  -2.4e-05  0.99697  0.0  0.117293  -4.8e-05  0.995392  0.0  0.118751  0.1146  1.2e-05  0.998251  0.0
H  H27  1  0.28841530  0.81198747  0.92097967  1  0.100944  -9e-06  0.933584  0.0  0.115876  -5.9e-05  0.996792  0.0  0.117341  -6.1e-05  0.995236  0.0  0.118831  0.114659  -5.4e-05  0.998065  0.0
H  H28  1  0.81156316  0.28916557  0.42029118  1  0.09832  -2e-06  0.934304  0.0  0.112916  1e-05  0.99813  0.0  0.114587  3.2e-05  0.996324  0.0  0.117851  0.111537  -1.6e-05  0.999581  0.0
H  H29  1  0.71077951  0.18855560  0.07975105  1  0.09812  -2e-05  0.934555  0.0  0.112775  1.8e-05  0.998432  0.0  0.114387  -1e-05  0.996677  0.0  0.117849  0.111438  5.4e-05  0.999847  0.0
H  H30  1  0.28597013  0.78453939  0.57740664  1  0.089748  -0.000389  0.945609  0.0  0.104302  -0.000251  1.008264  0.0  0.10473  -0.000222  1.008013  0.0  0.112541  0.103675  -0.000278  1.008931  0.0
H  H31  1  0.21535974  0.71407436  0.92254845  1  0.089582  -0.000191  0.946315  0.0  0.104052  -0.000156  1.009125  0.0  0.104532  -0.000136  1.008817  0.0  0.112423  0.103415  -0.000181  1.009781  0.0
H  H32  1  0.71336423  0.21664343  0.42144529  1  0.088774  -0.000199  0.946142  0.0  0.102936  -0.000131  1.008975  0.0  0.103473  -0.000107  1.008586  0.0  0.111686  0.102177  -0.000156  1.009767  0.0
H  H33  1  0.78345663  0.28661388  0.07858698  1  0.088736  -0.000128  0.945796  0.0  0.102859  -4.9e-05  1.008713  0.0  0.103386  -4.4e-05  1.00833  0.0  0.111622  0.102099  -5.3e-05  1.00951  0.0
H  H34  1  0.68834175  0.84543010  0.24448049  1  0.106056  -1.4e-05  0.951252  0.0  0.12615  -4e-06  1.013781  0.0  0.127581  -2e-06  1.014007  0.0  0.086148  0.125115  -4e-06  1.013612  0.0
H  H35  1  0.15439239  0.31168301  0.25550953  1  0.10631  9e-06  0.950997  0.0  0.126311  0.0  1.013574  0.0  0.127734  1e-06  1.013806  0.0  0.086004  0.125279  0.0  1.013411  0.0
H  H36  1  0.31080003  0.15480377  0.75572018  1  0.10557  -2e-06  0.952177  0.0  0.125727  -3e-06  1.014911  0.0  0.127145  -1e-06  1.015144  0.0  0.085668  0.124702  -3e-06  1.014728  0.0
H  H37  1  0.84516019  0.68906713  0.74433512  1  0.105638  -0.0  0.951868  0.0  0.125817  -4e-06  1.01456  0.0  0.127238  -2e-06  1.01479  0.0  0.085705  0.12479  -5e-06  1.01438  0.0
H  H38  1  0.64995462  0.01387659  0.18634163  1  0.108362  9.2e-05  0.981673  0.0  0.12486  0.000103  1.052236  0.0  0.126927  5.8e-05  1.051491  0.0  0.083686  0.123235  0.000156  1.052847  0.0
H  H39  1  0.98586899  0.35020747  0.31367409  1  0.108823  -0.000142  0.981856  0.0  0.125216  -0.000145  1.05245  0.0  0.127285  -7.8e-05  1.051712  0.0  0.08389  0.12361  -0.000219  1.053043  0.0
H  H40  1  0.34966326  0.98628802  0.81387121  1  0.109229  9e-05  0.980619  0.0  0.126342  6.2e-05  1.049983  0.0  0.1283  2.6e-05  1.049382  0.0  0.084129  0.124823  0.000109  1.050477  0.0
H  H41  1  0.01375628  0.65022676  0.68617182  1  0.10912  9.3e-05  0.980618  0.0  0.126398  6.8e-05  1.04979  0.0  0.128357  3e-05  1.049187  0.0  0.084189  0.124855  0.000119  1.050303  0.0
H  H42  1  0.68240783  0.91237951  0.10079765  1  0.101588  3.5e-05  0.948639  0.0  0.124701  1.9e-05  1.009475  0.0  0.125776  1.3e-05  1.009174  0.0  0.087465  0.12389  3e-05  1.009703  0.0
H  H43  1  0.08750077  0.31754131  0.39921685  1  0.101631  -3.3e-05  0.948809  0.0  0.12486  -6e-06  1.00943  0.0  0.12593  -1e-05  1.009129  0.0  0.087525  0.124051  -0.0  1.00966  0.0
H  H44  1  0.31712481  0.08796545  0.89926730  1  0.101696  5.5e-05  0.949037  0.0  0.124841  2.9e-05  1.009941  0.0  0.125888  2.4e-05  1.009666  0.0  0.087378  0.123984  3.8e-05  1.010214  0.0
H  H45  1  0.91199375  0.68282806  0.60076435  1  0.101599  3.5e-05  0.949121  0.0  0.124721  -5e-06  1.010099  0.0  0.125772  1e-06  1.00982  0.0  0.087387  0.123873  -8e-06  1.010359  0.0
H  H46  1  0.49009380  0.19951755  0.07546676  1  0.09558  -4.3e-05  0.981818  0.0  0.112868  -2.4e-05  1.051905  0.0  0.113656  -2e-05  1.053007  0.0  0.080742  0.112226  -2.7e-05  1.051205  0.0
H  H47  1  0.80026644  0.50998483  0.42470221  1  0.095659  3.3e-05  0.981751  0.0  0.113033  1.9e-05  1.051718  0.0  0.11383  1.5e-05  1.052813  0.0  0.080859  0.112378  2.4e-05  1.051042  0.0
H  H48  1  0.50976173  0.80048946  0.92446768  1  0.095261  -6.4e-05  0.981338  0.0  0.112325  -2.8e-05  1.051722  0.0  0.113093  -2.2e-05  1.052857  0.0  0.080496  0.111702  -3.5e-05  1.051002  0.0
H  H49  1  0.19961787  0.49021627  0.57550451  1  0.094961  -6.1e-05  0.981372  0.0  0.112107  -2.7e-05  1.051727  0.0  0.112864  -2.2e-05  1.052874  0.0  0.080431  0.111492  -3.5e-05  1.050998  0.0
H  H50  1  0.38783948  0.20961064  0.99989849  1  0.102314  4e-06  0.951752  0.0  0.12348  6e-06  1.01285  0.0  0.124927  3e-06  1.012554  0.0  0.085649  0.122419  1.1e-05  1.013071  0.0
H  H51  1  0.79033437  0.61221110  0.50013363  1  0.102135  -1e-06  0.952347  0.0  0.123323  -2e-06  1.01339  0.0  0.124765  -1e-06  1.0131  0.0  0.085612  0.12227  -3e-06  1.013604  0.0
H  H52  1  0.61217471  0.79090459  0.99958265  1  0.101096  3e-06  0.952166  0.0  0.122658  3e-06  1.012821  0.0  0.124109  4e-06  1.01252  0.0  0.085314  0.121577  1e-06  1.013065  0.0
H  H53  1  0.20914470  0.38787256  0.50039789  1  0.101008  -1e-06  0.951973  0.0  0.122531  4e-06  1.01271  0.0  0.12398  3e-06  1.012409  0.0  0.085334  0.121454  6e-06  1.012952  0.0
H  H54  1  0.54753955  0.09020250  0.98967619  1  0.102837  -3e-05  0.968835  0.0  0.123199  -1.2e-05  1.031964  0.0  0.123673  -1e-05  1.033694  0.0  0.086401  0.122795  -1.3e-05  1.030811  0.0
H  H55  1  0.90961187  0.45252623  0.51049140  1  0.102908  2e-05  0.968631  0.0  0.123263  6e-06  1.031808  0.0  0.123745  8e-06  1.033534  0.0  0.08643  0.122862  4e-06  1.03065  0.0
H  H56  1  0.45239513  0.91011849  0.00991083  1  0.10182  -4.8e-05  0.970141  0.0  0.12176  -2e-05  1.033935  0.0  0.12227  -1.7e-05  1.035636  0.0  0.085725  0.121327  -2.3e-05  1.032807  0.0
H  H57  1  0.08990915  0.54758633  0.49009470  1  0.101744  -4.4e-05  0.970427  0.0  0.12174  -1.2e-05  1.03413  0.0  0.122248  -1.2e-05  1.035832  0.0  0.085695  0.121301  -1.4e-05  1.033007  0.0
C  C58  1  0.61306534  0.02298117  0.42928700  1  -0.079456  -0.005575  3.714601  -0.005  -0.065695  -0.002265  3.951326  -0.003  -0.070345  -0.001685  3.968898  -0.002  -0.011682  -0.063449  -0.002877  3.940936  -0.003
C  C59  1  0.97706897  0.38693216  0.07049724  1  -0.079597  0.002068  3.71426  0.004  -0.065726  0.001134  3.951234  0.003  -0.070383  0.000765  3.968834  0.002  -0.011861  -0.063474  0.001311  3.940837  0.003
C  C60  1  0.38680739  0.97584572  0.57069674  1  -0.082053  0.003556  3.71565  0.004  -0.067954  0.001847  3.953169  0.002  -0.072827  0.001251  3.970994  0.001  -0.01186  -0.065559  0.002516  3.942625  0.002
C  C61  1  0.02440924  0.61305653  0.92917061  1  -0.082495  0.001934  3.715685  0.002  -0.069398  0.001095  3.954402  0.001  -0.074136  0.000733  3.972037  0.001  -0.012085  -0.067043  0.001384  3.943921  0.001
C  C62  1  0.74012852  0.03523019  0.36234633  1  0.605614  -0.002951  3.910944  -0.004  0.563382  -0.000517  4.214437  -0.002  0.600676  -0.000438  4.209719  -0.001  0.192428  0.536862  -0.000699  4.217518  -0.002
C  C63  1  0.96472763  0.25994998  0.13761942  1  0.606144  0.00059  3.910291  0.004  0.563807  -0.001143  4.213853  0.002  0.601106  -0.000895  4.209107  0.001  0.192623  0.537274  -0.001265  4.216964  0.002
C  C64  1  0.26126214  0.96250710  0.64087748  1  0.609152  -0.010645  3.905702  -0.012  0.566637  -0.002659  4.208417  -0.005  0.603636  -0.002232  4.203461  -0.004  0.192163  0.540242  -0.003275  4.211383  -0.006
C  C65  1  0.03768954  0.73864604  0.85910588  1  0.608691  -0.010662  3.905405  -0.011  0.566587  -0.002717  4.208106  -0.005  0.603539  -0.002246  4.203158  -0.004  0.191718  0.540194  -0.00343  4.211076  -0.006
C  C66  1  0.31566903  0.88968944  0.33761998  1  0.100563  0.002525  3.793747  0.003  0.087957  0.001577  4.040583  0.002  0.091792  0.001263  4.061936  0.002  0.086461  0.085378  0.001845  4.026125  0.002
C  C67  1  0.11033458  0.68421032  0.16244453  1  0.100492  -0.003681  3.793373  -0.003  0.088026  -0.002215  4.039933  -0.002  0.091826  -0.001817  4.061333  -0.002  0.086623  0.085467  -0.002539  4.02544  -0.002
C  C68  1  0.68367611  0.11070548  0.66140562  1  0.101011  0.003335  3.793936  0.004  0.086905  0.001819  4.042583  0.002  0.090821  0.00141  4.063943  0.002  0.086025  0.084228  0.002217  4.02825  0.003
C  C69  1  0.88926125  0.31635892  0.83859778  1  0.100836  0.003287  3.794189  0.004  0.087015  0.001766  4.04264  0.002  0.090921  0.001381  4.064014  0.002  0.086138  0.084356  0.002139  4.028285  0.003
C  C70  1  0.49064408  0.10382400  0.40542418  1  0.124033  0.00156  3.755384  0.002  0.12663  0.000727  4.024397  0.001  0.130854  0.000559  4.044183  0.001  0.021731  0.123448  0.000968  4.011635  0.001
C  C71  1  0.89628212  0.50932747  0.09435477  1  0.124379  -0.000748  3.754818  0.0  0.126621  -0.00065  4.024229  0.0  0.130815  -0.000495  4.044057  0.0  0.021431  0.123449  -0.000746  4.011445  0.0
C  C72  1  0.50941565  0.89475552  0.59428888  1  0.126868  -0.001288  3.753975  -0.001  0.12864  0.000195  4.023451  0.0  0.132925  2.4e-05  4.043365  0.0  0.021403  0.125437  0.000258  4.010573  0.001
C  C73  1  0.10541845  0.49049497  0.90554561  1  0.127559  -0.000361  3.754121  0.0  0.129639  0.00011  4.023778  0.0  0.133887  0.000103  4.04367  0.0  0.02192  0.126448  -3e-06  4.010901  0.0
C  C74  1  0.11851425  0.88508114  0.40515844  1  0.201752  -0.002729  3.62681  -0.002  0.136868  0.000352  3.909679  0.001  0.156616  -0.000442  3.919816  0.0  0.161115  0.123456  0.001105  3.903238  0.001
C  C75  1  0.11494709  0.88132597  0.09493423  1  0.201413  0.000838  3.626644  0.002  0.13648  -0.001643  3.909533  -0.001  0.156196  -0.000718  3.91969  0.0  0.160922  0.123085  -0.002517  3.903076  -0.001
C  C76  1  0.88117649  0.11439834  0.59331649  1  0.202566  -0.008333  3.632471  -0.006  0.138267  -0.001568  3.915698  -0.001  0.157747  -0.002057  3.925552  -0.002  0.160353  0.124987  -0.001227  3.909278  -0.001
C  C77  1  0.88555221  0.11894373  0.90671670  1  0.202222  -0.008297  3.632218  -0.006  0.13794  -0.001536  3.915497  -0.001  0.157436  -0.002025  3.925379  -0.002  0.160622  0.124617  -0.001196  3.909047  -0.001
C  C78  1  0.61891550  0.91975396  0.52474608  1  -0.123641  0.001815  3.732943  0.002  -0.158584  0.000779  3.990161  0.001  -0.159772  0.000589  4.00796  0.001  -0.084103  -0.1579  0.001035  3.978839  0.001
C  C79  1  0.08033713  0.38104008  0.97504176  1  -0.123916  -0.001272  3.733025  -0.001  -0.158952  -0.001154  3.990261  -0.001  -0.160147  -0.000806  4.008079  -0.001  -0.084024  -0.158269  -0.001469  3.978945  -0.001
C  C80  1  0.38080905  0.07911113  0.47512845  1  -0.121563  -0.001315  3.725695  -0.001  -0.156781  0.000336  3.9833  0.0  -0.157672  0.000133  4.000925  0.0  -0.083931  -0.156304  0.00041  3.972152  0.0
C  C81  1  0.92110127  0.61908727  0.02471009  1  -0.121787  0.000554  3.725834  0.001  -0.156423  0.000884  3.983611  0.001  -0.157348  0.000632  4.001196  0.001  -0.083862  -0.155917  0.000996  3.972455  0.001
C  C82  1  0.23386893  0.98368975  0.26564242  1  0.150127  5.4e-05  3.819869  0.0  0.15143  0.000538  4.071691  0.0  0.156813  9.1e-05  4.095368  0.0  0.082945  0.147707  0.000858  4.055969  0.001
C  C83  1  0.01637488  0.76597554  0.23445923  1  0.149592  -0.00109  3.819689  0.0  0.151017  -0.001236  4.071216  -0.001  0.156401  -0.000711  4.094896  0.0  0.082684  0.14729  -0.0016  4.055484  -0.001
C  C84  1  0.76597436  0.01601278  0.73274472  1  0.152127  -0.000696  3.823836  -0.001  0.154261  0.000458  4.075164  0.0  0.159345  -1e-06  4.098694  0.0  0.082598  0.150617  0.000844  4.059467  0.001
C  C85  1  0.98398347  0.23408269  0.76725795  1  0.152858  -0.000704  3.823291  -0.001  0.154759  0.000485  4.074733  0.0  0.159849  2.3e-05  4.098262  0.0  0.08277  0.15111  0.000873  4.059041  0.001
C  C86  1  0.39134551  0.61613864  0.51002104  1  0.063068  0.000234  3.770046  0.0  0.079487  0.000161  4.014152  0.0  0.078657  0.000113  4.038114  0.0  -0.016641  0.080036  0.000218  3.997861  0.0
C  C87  1  0.38386128  0.60871135  0.98993412  1  0.063378  -0.000174  3.769959  0.0  0.079687  -0.000108  4.014182  0.0  0.078866  -6.1e-05  4.038149  0.0  -0.016657  0.080218  -0.000142  3.997879  0.0
C  C88  1  0.60813373  0.38467847  0.48924594  1  0.063186  0.000351  3.770652  0.0  0.079246  0.000191  4.014825  0.0  0.078436  0.000124  4.038873  0.0  -0.016758  0.079764  0.00028  3.998477  0.0
C  C89  1  0.61530319  0.39193567  0.01079462  1  0.062764  0.000139  3.770343  0.0  0.079161  8.4e-05  4.014051  0.0  0.078344  3.9e-05  4.038079  0.0  -0.016959  0.079672  0.000136  3.997721  0.0
C  C90  1  0.52432792  0.43949992  0.41715609  1  -0.124223  3e-06  3.774454  0.0  -0.141445  3.2e-05  4.02278  0.0  -0.144243  2.3e-05  4.044318  0.0  -0.098305  -0.13945  4.1e-05  4.008169  0.0
C  C91  1  0.56051953  0.47573462  0.08285289  1  -0.124016  0.000152  3.774242  0.0  -0.141322  9.5e-05  4.022397  0.0  -0.144129  7.3e-05  4.04394  0.0  -0.098137  -0.139328  0.000123  4.007795  0.0
C  C92  1  0.47512954  0.56131821  0.58213160  1  -0.122547  0.000106  3.774058  0.0  -0.139427  6.7e-05  4.022366  0.0  -0.142191  4.3e-05  4.043936  0.0  -0.097736  -0.137464  0.000101  4.007707  0.0
C  C93  1  0.43866543  0.52497342  0.91782399  1  -0.122681  -0.000192  3.773818  0.0  -0.1395  -0.000126  4.022063  0.0  -0.142267  -0.000106  4.043638  0.0  -0.097548  -0.137531  -0.000152  4.007409  0.0
C  C94  1  0.44601587  0.87095729  0.31369802  1  -0.204501  0.000173  3.755875  0.0  -0.231302  0.000273  4.00995  0.0  -0.235494  7.1e-05  4.031248  0.0  -0.101864  -0.228292  0.000473  3.995471  0.0
C  C95  1  0.12903326  0.55390778  0.18636046  1  -0.204549  -0.000475  3.755607  0.0  -0.231331  -0.000455  4.009697  0.0  -0.235484  -0.000189  4.031006  0.0  -0.101819  -0.228384  -0.000724  3.995199  0.0
C  C96  1  0.55313885  0.12973904  0.68590577  1  -0.205205  -0.000175  3.754516  0.0  -0.231088  0.000205  4.008929  0.0  -0.235248  -6e-06  4.030114  0.0  -0.102146  -0.228159  0.000392  3.99461  0.0
C  C97  1  0.87021776  0.44684744  0.81408548  1  -0.20569  -0.000172  3.754845  0.0  -0.231511  0.000213  4.009234  0.0  -0.235704  -0.0  4.030408  0.0  -0.102451  -0.228553  0.000399  3.994938  0.0
C  C98  1  0.41691740  0.55452426  0.42702489  1  -0.107506  7.1e-05  3.758102  0.0  -0.127468  3.2e-05  4.007116  0.0  -0.12954  1.8e-05  4.028104  0.0  -0.093415  -0.125941  5.4e-05  3.992741  0.0
C  C99  1  0.44548374  0.58311836  0.07295456  1  -0.107825  -0.000107  3.758233  0.0  -0.127784  -6.5e-05  4.007369  0.0  -0.129859  -6e-05  4.028359  0.0  -0.093488  -0.126258  -8.1e-05  3.992999  0.0
C  C100  1  0.58252485  0.44627067  0.57229253  1  -0.107414  3.1e-05  3.754719  0.0  -0.12736  4.6e-05  4.00403  0.0  -0.129486  2.7e-05  4.024999  0.0  -0.09277  -0.125786  6.6e-05  3.989657  0.0
C  C101  1  0.55369715  0.41756734  0.92773123  1  -0.107966  6.4e-05  3.755628  0.0  -0.127904  4.7e-05  4.004739  0.0  -0.130042  4.1e-05  4.025713  0.0  -0.093028  -0.126331  5.7e-05  3.990377  0.0
C  C102  1  0.49446836  0.95045248  0.21701439  1  0.088752  0.000529  3.732927  0.001  0.108925  7.5e-05  3.971226  0.0  0.108415  0.000142  3.997251  0.0  -0.016118  0.109195  3e-05  3.953507  0.0
C  C103  1  0.04950702  0.50546251  0.28304122  1  0.089551  -0.00075  3.731803  -0.001  0.10973  -0.000111  3.970094  0.0  0.109227  -0.000216  3.996103  0.0  -0.016109  0.109991  -5.9e-05  3.952396  0.0
C  C104  1  0.50495805  0.05003276  0.78265508  1  0.089022  0.001011  3.731754  0.001  0.108769  0.000156  3.97062  0.0  0.108317  0.000223  3.996582  0.0  -0.016159  0.108971  0.000142  3.953001  0.0
C  C105  1  0.94996138  0.49502391  0.71735198  1  0.089072  0.000977  3.731794  0.001  0.108918  0.000135  3.970604  0.0  0.108467  0.000213  3.996584  0.0  -0.015971  0.109127  0.000109  3.952962  0.0
C  C106  1  0.28190939  0.06531307  0.17035629  1  -0.203659  0.000747  3.737121  0.001  -0.230981  0.000375  3.985528  0.001  -0.235156  0.000383  4.005706  0.001  -0.100144  -0.22815  0.000376  3.972085  0.001
C  C107  1  0.93475846  0.71791314  0.32974657  1  -0.203834  -0.001103  3.736277  -0.001  -0.230946  -0.000559  3.984691  -0.001  -0.235112  -0.000571  4.004853  -0.001  -0.100229  -0.228139  -0.000555  3.971264  -0.001
C  C108  1  0.71802316  0.93450251  0.82823007  1  -0.205907  0.001233  3.7396  0.002  -0.232903  0.000317  3.987341  0.001  -0.236868  0.000281  4.007349  0.001  -0.101734  -0.230185  0.000415  3.974023  0.001
C  C109  1  0.06552382  0.28203804  0.67178473  1  -0.206186  0.001251  3.739943  0.002  -0.232983  0.000315  3.987654  0.001  -0.236946  0.000278  4.007663  0.001  -0.10178  -0.230273  0.000417  3.974346  0.001
C  C110  1  0.41090551  0.05055362  0.14709673  1  0.078862  -0.001025  3.744754  -0.001  0.099505  -0.000371  3.982776  0.0  0.099354  -0.000384  4.007998  0.0  -0.01792  0.099535  -0.00036  3.965674  0.0
C  C111  1  0.94942599  0.58899175  0.35297178  1  0.078416  0.000696  3.744185  0.001  0.099022  0.000255  3.982281  0.0  0.098863  0.000262  4.007505  0.0  -0.017948  0.099062  0.000244  3.965165  0.0
C  C112  1  0.58880331  0.94970539  0.85220182  1  0.077476  -0.001526  3.745372  -0.001  0.098557  -0.000467  3.983022  0.0  0.098309  -0.000455  4.008282  0.0  -0.018756  0.098618  -0.000519  3.965938  0.0
C  C113  1  0.05032615  0.41121125  0.64780533  1  0.07716  -0.001546  3.745596  -0.001  0.098125  -0.00045  3.983359  0.0  0.097868  -0.000441  4.008628  0.0  -0.018817  0.098193  -0.000503  3.966265  0.0
C  C114  1  0.27283957  0.73643026  0.52810644  1  -0.03727  0.000283  3.660268  0.0  -0.104199  0.000199  3.909589  0.0  -0.09893  0.000113  3.91899  0.0  -0.047554  -0.107589  0.000304  3.903437  0.0
C  C115  1  0.26351843  0.72716240  0.97185979  1  -0.037469  -0.00077  3.66081  -0.001  -0.10411  -0.000611  3.909658  0.0  -0.098893  -0.000513  3.91909  0.0  -0.047514  -0.10743  -0.000698  3.903394  0.0
C  C116  1  0.72658136  0.26436796  0.47103114  1  -0.035577  0.000333  3.662924  0.0  -0.101213  0.000258  3.910796  0.0  -0.096045  0.000207  3.920157  0.0  -0.046358  -0.104461  0.00031  3.904624  0.0
C  C117  1  0.73561230  0.27349733  0.02902005  1  -0.035437  0.000439  3.662043  0.001  -0.101183  0.000365  3.910091  0.0  -0.095939  0.000254  3.91936  0.0  -0.046284  -0.104429  0.000484  3.903871  0.001
C  C118  1  0.63562950  0.92940316  0.18604740  1  -0.329679  0.000135  3.727985  0.0  -0.407727  0.000137  3.964159  0.0  -0.410223  7.5e-05  3.974155  0.0  -0.24502  -0.405599  0.000205  3.957233  0.0
C  C119  1  0.07044977  0.36438054  0.31397651  1  -0.330764  -0.000236  3.728353  0.0  -0.408661  -0.000198  3.964414  0.0  -0.411135  -0.000117  3.974401  0.0  -0.245133  -0.406559  -0.00029  3.957473  0.0
C  C120  1  0.36380296  0.07092572  0.81402475  1  -0.329926  9.8e-05  3.7266  0.0  -0.408126  0.000126  3.962842  0.0  -0.410551  6.2e-05  3.972888  0.0  -0.245223  -0.406024  0.000199  3.955888  0.0
C  C121  1  0.92906644  0.63612909  0.68600188  1  -0.329771  7.6e-05  3.726469  0.0  -0.40805  0.000105  3.962512  0.0  -0.410481  4.9e-05  3.972559  0.0  -0.245324  -0.405937  0.000173  3.955554  0.0
C  C122  1  0.46158827  0.14176489  0.04781709  1  -0.328691  -7e-06  3.744687  0.0  -0.405191  -1.3e-05  3.977899  0.0  -0.407623  -1.4e-05  3.988772  0.0  -0.246136  -0.403175  -1.5e-05  3.970361  0.0
C  C123  1  0.85814499  0.53842829  0.45226646  1  -0.328685  -9e-06  3.745761  0.0  -0.405217  9e-06  3.978921  0.0  -0.407668  5e-06  3.989807  0.0  -0.246234  -0.403203  1.1e-05  3.971362  0.0
C  C124  1  0.53828056  0.85855064  0.95174141  1  -0.326445  2e-06  3.745287  0.0  -0.402749  -1.1e-05  3.978662  0.0  -0.405172  -1.1e-05  3.989554  0.0  -0.245185  -0.400761  -1.5e-05  3.971136  0.0
C  C125  1  0.14149930  0.46172338  0.54825423  1  -0.325804  4e-06  3.744857  0.0  -0.402202  -9e-06  3.978389  0.0  -0.404611  -8e-06  3.989293  0.0  -0.245127  -0.400223  -1.2e-05  3.970852  0.0
N  N126  1  0.11128964  0.97706633  0.31017249  1  -0.376352  0.043847  3.279805  0.059  -0.350424  0.031477  3.597767  0.042  -0.386021  0.026308  3.614653  0.036  -0.35556  -0.326975  0.034882  3.587256  0.045
N  N127  1  0.02300683  0.88852597  0.18995023  1  -0.376434  -0.066011  3.27824  -0.061  -0.350307  -0.046617  3.595909  -0.043  -0.385856  -0.039852  3.612811  -0.037  -0.355256  -0.326889  -0.050809  3.585387  -0.046
N  N128  1  0.88881602  0.02205377  0.68786165  1  -0.389277  0.054639  3.266341  0.079  -0.363721  0.036049  3.583038  0.052  -0.39697  0.028548  3.599259  0.043  -0.356722  -0.340798  0.041959  3.57246  0.058
N  N129  1  0.97793121  0.11127507  0.81218015  1  -0.389635  0.054606  3.26603  0.079  -0.363983  0.03603  3.582742  0.052  -0.397224  0.028534  3.598965  0.043  -0.356792  -0.341063  0.041931  3.572177  0.058
N  N130  1  0.23888292  0.82912954  0.42536689  1  -0.105618  0.001116  3.53316  0.002  -0.018238  0.001242  3.757633  0.002  -0.034009  0.000859  3.779621  0.001  -0.238447  -0.007753  0.001584  3.742592  0.002
N  N131  1  0.17083391  0.76102490  0.07464313  1  -0.104913  -0.002139  3.531759  -0.002  -0.017558  -0.001965  3.756144  -0.002  -0.03329  -0.001481  3.778115  -0.001  -0.238334  -0.007093  -0.002378  3.741069  -0.002
N  N132  1  0.76042577  0.17134185  0.57363150  1  -0.106295  0.001343  3.530966  0.002  -0.018863  0.001235  3.755369  0.002  -0.034652  0.000766  3.777492  0.001  -0.239544  -0.00845  0.001682  3.740339  0.003
N  N133  1  0.82861226  0.23965640  0.92639890  1  -0.105976  0.00129  3.529678  0.002  -0.018772  0.001181  3.754274  0.002  -0.034541  0.00074  3.77633  0.001  -0.239759  -0.008388  0.0016  3.739305  0.002
Cl  Cl134  1  0.46778650  0.23762667  0.29284153  1  -0.053695  0.000751  1.388449  0.001  -0.033325  0.000636  1.620522  0.0  -0.036507  0.000383  1.616953  0.0  0.038736  -0.031049  0.000951  1.623118  0.001
Cl  Cl135  1  0.76238883  0.53225522  0.20685846  1  -0.053947  -0.000974  1.388727  0.0  -0.033475  -0.000872  1.620961  0.0  -0.036648  -0.000533  1.617406  0.0  0.038786  -0.031199  -0.001251  1.623549  -0.001
Cl  Cl136  1  0.53386587  0.76056840  0.70636367  1  -0.052508  0.0006  1.393041  0.001  -0.032033  0.000635  1.625886  0.0  -0.035268  0.000354  1.622338  0.0  0.039262  -0.029713  0.000966  1.628463  0.001
Cl  Cl137  1  0.23965753  0.46614304  0.79349702  1  -0.052695  0.000781  1.393192  0.001  -0.032202  0.000718  1.62611  0.001  -0.035444  0.000424  1.622578  0.0  0.039181  -0.029869  0.00106  1.628675  0.001
O  O138  1  0.83221878  0.98418318  0.41244755  1  -0.575985  0.016739  1.954945  0.026  -0.551756  0.010239  2.210047  0.017  -0.589103  0.006704  2.202165  0.012  -0.307625  -0.52415  0.013824  2.214511  0.022
O  O139  1  0.01583391  0.16768416  0.08774159  1  -0.576979  -0.022088  1.954629  -0.022  -0.552422  -0.014699  2.20971  -0.015  -0.589775  -0.009904  2.201785  -0.011  -0.308211  -0.524831  -0.019421  2.214256  -0.02
O  O140  1  0.16447917  0.01577122  0.59526249  1  -0.579452  0.058946  1.968329  0.089  -0.555855  0.038279  2.229099  0.059  -0.595354  0.027947  2.221943  0.045  -0.310871  -0.525904  0.047847  2.232607  0.071
O  O141  1  0.98442011  0.83532680  0.90480782  1  -0.579303  0.058754  1.967877  0.089  -0.555932  0.038149  2.228754  0.059  -0.5954  0.027863  2.22157  0.045  -0.31091  -0.526041  0.04765  2.232399  0.071
O  O142  1  0.75802245  0.09112243  0.25791566  1  -0.566762  0.042402  2.023927  0.061  -0.544055  0.028094  2.288546  0.042  -0.585257  0.020764  2.28434  0.032  -0.299046  -0.513668  0.034889  2.290366  0.05
O  O143  1  0.90870769  0.24226538  0.24202099  1  -0.567576  -0.064811  2.023078  -0.064  -0.54451  -0.042129  2.287325  -0.042  -0.585668  -0.031909  2.283166  -0.032  -0.299044  -0.514144  -0.051442  2.289127  -0.051
O  O144  1  0.24854154  0.90290963  0.74388779  1  -0.578819  0.045603  2.025011  0.069  -0.553792  0.031089  2.286461  0.048  -0.591078  0.022357  2.281389  0.036  -0.301505  -0.52586  0.039734  2.289078  0.059
O  O145  1  0.09717925  0.75153933  0.75606604  1  -0.578316  0.045511  2.024519  0.069  -0.553354  0.031001  2.285901  0.048  -0.590656  0.022303  2.280863  0.036  -0.301138  -0.525401  0.039577  2.288488  0.059
