# generated using pymatgen
data_NiH16C24N2O5
_symmetry_space_group_name_H-M   'P 1'
_cell_length_a   11.20833332
_cell_length_b   11.20820197
_cell_length_c   20.34581480
_cell_angle_alpha   76.57815038
_cell_angle_beta   76.57691946
_cell_angle_gamma   66.18758514
_symmetry_Int_Tables_number   1
_chemical_formula_structural   NiH16C24N2O5
_chemical_formula_sum   'Ni4 H64 C96 N8 O20'
_cell_volume   2246.81347272
_cell_formula_units_Z   4
loop_
 _symmetry_equiv_pos_site_id
 _symmetry_equiv_pos_as_xyz
  1  'x, y, z'
loop_
 _atom_site_type_symbol
 _atom_site_label
 _atom_site_symmetry_multiplicity
 _atom_site_fract_x
 _atom_site_fract_y
 _atom_site_fract_z
 _atom_site_occupancy
 _atom_site_pbe_bader_charge
 _atom_site_pbe_bader_spin_density
 _atom_site_pbe_cm5_charge
 _atom_site_pbe_ddec_charge
 _atom_site_pbe_ddec_spin_density
 _atom_site_pbe_ddec_sum_bond_order
 _atom_site_pbe_magmom
Ni  Ni0  1  0.46688332  0.63359103  0.07092510  1  1.184515  -1.549448  0.653657  0.776564  -1.806996  2.502846  -1.535
Ni  Ni1  1  0.53312226  0.36640492  0.92907150  1  1.184467  1.549452  0.653621  0.776494  1.80699  2.502918  1.535
Ni  Ni2  1  0.36616129  0.53336253  0.42908468  1  1.184118  1.549523  0.653729  0.776746  1.806892  2.501863  1.535
Ni  Ni3  1  0.63384031  0.46663850  0.57091768  1  1.184266  -1.549514  0.653755  0.776826  -1.806888  2.501805  -1.535
H  H4  1  0.67758225  0.69470225  0.96986383  1  0.141424  -0.001741  0.117901  0.092713  -0.000629  1.049529  -0.001
H  H5  1  0.32242312  0.30528453  0.03013735  1  0.141298  0.00174  0.117875  0.092632  0.000629  1.049609  0.001
H  H6  1  0.90211478  0.69698682  0.96535946  1  0.071364  -0.001021  0.106623  0.111011  -0.000487  1.012917  0.0
H  H7  1  0.09788581  0.30301276  0.03464370  1  0.071264  0.001021  0.10661  0.11097  0.000487  1.012953  0.0
H  H8  1  0.85705544  0.56967747  0.18453965  1  0.095503  -0.000953  0.107884  0.11768  -0.000452  1.015037  0.0
H  H9  1  0.14293838  0.43033477  0.81546475  1  0.095768  0.000953  0.107808  0.11754  0.000452  1.01516  0.0
H  H10  1  0.63675701  0.57158509  0.17799512  1  0.107361  -0.001859  0.127589  0.107404  -0.000725  0.973022  -0.001
H  H11  1  0.36324164  0.42841708  0.82200697  1  0.107358  0.001859  0.127585  0.107468  0.000726  0.972996  0.001
H  H12  1  0.02027882  0.79504885  0.98943877  1  0.088805  -0.001108  0.111972  0.119867  -0.000529  0.99217  0.0
H  H13  1  0.97971494  0.20495706  0.01056248  1  0.08881  0.001108  0.111942  0.119817  0.000529  0.992224  0.0
H  H14  1  0.24300286  0.79007994  0.99167903  1  0.123289  -0.001831  0.120091  0.090674  -0.000678  1.018063  -0.001
H  H15  1  0.75699585  0.20991871  0.00831464  1  0.123474  0.00183  0.120121  0.090727  0.000678  1.018051  0.001
H  H16  1  0.29962264  0.48993573  0.15742339  1  0.115939  -0.001742  0.1282  0.104762  -0.000636  0.972289  -0.001
H  H17  1  0.70038797  0.51006290  0.84257079  1  0.116281  0.001741  0.128195  0.104841  0.000636  0.972168  0.001
H  H18  1  0.07941825  0.48140150  0.16319710  1  0.08195  -0.000953  0.107973  0.113697  -0.000452  1.028264  0.0
H  H19  1  0.92058542  0.51860243  0.83680318  1  0.081787  0.000954  0.107969  0.113695  0.000452  1.028254  0.0
H  H20  1  0.42760266  0.36376545  0.32196485  1  0.120798  0.001857  0.12792  0.107543  0.000725  0.972916  0.001
H  H21  1  0.57240694  0.63623891  0.67803710  1  0.120882  -0.001856  0.127933  0.107553  -0.000725  0.973042  -0.001
H  H22  1  0.42954903  0.14338600  0.31543471  1  0.094426  0.000954  0.107871  0.117694  0.000452  1.015473  0.0
H  H23  1  0.57045567  0.85662029  0.68456515  1  0.094348  -0.000955  0.107853  0.117732  -0.000452  1.015475  0.0
H  H24  1  0.30382728  0.09766526  0.53472932  1  0.067553  0.001022  0.106783  0.110927  0.000487  1.013157  0.0
H  H25  1  0.69615758  0.90233957  0.46526922  1  0.067559  -0.001022  0.106796  0.110963  -0.000487  1.013224  0.0
H  H26  1  0.30576906  0.32236621  0.53019478  1  0.140522  0.001743  0.117886  0.093078  0.00063  1.048964  0.001
H  H27  1  0.69421873  0.67763745  0.46980551  1  0.140156  -0.001744  0.117886  0.092994  -0.00063  1.049036  -0.001
H  H28  1  0.50969052  0.70059186  0.34255570  1  0.115283  0.001739  0.128467  0.105344  0.000636  0.971874  0.001
H  H29  1  0.49031034  0.29941874  0.65743968  1  0.115307  -0.001739  0.128476  0.105352  -0.000636  0.971813  -0.001
H  H30  1  0.51850720  0.92068224  0.33680981  1  0.081334  0.000951  0.107939  0.113717  0.000451  1.028082  0.0
H  H31  1  0.48148670  0.07932918  0.66318779  1  0.081465  -0.000951  0.107923  0.113699  -0.000451  1.028057  0.0
H  H32  1  0.20971073  0.75732048  0.50838762  1  0.12123  0.001829  0.119851  0.090224  0.000678  1.017467  0.001
H  H33  1  0.79028795  0.24267994  0.49161025  1  0.121146  -0.001828  0.119838  0.090207  -0.000678  1.017557  -0.001
H  H34  1  0.20506824  0.97995214  0.51065534  1  0.089005  0.001109  0.112062  0.120549  0.000528  0.991779  0.0
H  H35  1  0.79492459  0.02005331  0.48934117  1  0.08907  -0.001108  0.112073  0.120589  -0.000528  0.991761  0.0
H  H36  1  0.27697814  0.83457850  0.26532608  1  0.105526  -0.000458  0.106692  0.116719  -0.000346  1.022982  0.0
H  H37  1  0.72302257  0.16541942  0.73466595  1  0.10535  0.000458  0.106657  0.116678  0.000346  1.02304  0.0
H  H38  1  0.18159227  0.03424136  0.32460847  1  0.061664  -0.000117  0.10412  0.118719  -6.6e-05  1.004854  0.0
H  H39  1  0.81840542  0.96575496  0.67538462  1  0.061458  0.000117  0.1041  0.118625  6.6e-05  1.004852  0.0
H  H40  1  0.24335016  0.27761240  0.13301925  1  0.086425  -4.2e-05  0.10221  0.111264  -4e-06  1.042804  0.0
H  H41  1  0.75664758  0.72238844  0.86697574  1  0.086438  4.2e-05  0.102221  0.111352  4e-06  1.042762  0.0
H  H42  1  0.32828249  0.07855232  0.07270386  1  0.08523  -0.000673  0.105036  0.107682  -0.000472  1.013329  0.0
H  H43  1  0.67172214  0.92144494  0.92729072  1  0.085343  0.000673  0.105033  0.107656  0.000472  1.013327  0.0
H  H44  1  0.95225171  0.26595615  0.23233714  1  0.070272  -2.9e-05  0.10284  0.118187  -0.0  1.006364  0.0
H  H45  1  0.04773930  0.73405827  0.76765751  1  0.070415  2.9e-05  0.102803  0.118134  0.0  1.006395  0.0
H  H46  1  0.72454036  0.35536505  0.29866056  1  0.090678  0.000246  0.103707  0.109363  0.00017  1.004288  0.0
H  H47  1  0.27545466  0.64465329  0.70133557  1  0.090217  -0.000246  0.103765  0.10945  -0.00017  1.004329  0.0
H  H48  1  0.88105357  0.44990579  0.44476098  1  0.131084  7.2e-05  0.108224  0.122084  7.8e-05  1.018938  0.0
H  H49  1  0.11895673  0.55008000  0.55524070  1  0.131001  -7.2e-05  0.108244  0.122034  -7.8e-05  1.018935  0.0
H  H50  1  0.10789742  0.36789651  0.37692714  1  0.069285  0.000131  0.105732  0.125994  3.6e-05  1.001378  0.0
H  H51  1  0.89210800  0.63209122  0.62307195  1  0.069285  -0.000131  0.105753  0.126028  -3.6e-05  1.001335  0.0
H  H52  1  0.55036687  0.11873457  0.05506492  1  0.130262  -7.1e-05  0.108289  0.122059  -7.7e-05  1.019452  0.0
H  H53  1  0.44963555  0.88125427  0.94493638  1  0.130432  7.1e-05  0.10833  0.122044  7.7e-05  1.019511  0.0
H  H54  1  0.63218230  0.89192818  0.12294841  1  0.067142  -0.000131  0.105669  0.125792  -3.6e-05  1.000313  0.0
H  H55  1  0.36782404  0.10806268  0.87705953  1  0.066502  0.000131  0.105661  0.125772  3.6e-05  1.000362  0.0
H  H56  1  0.73362254  0.04767671  0.26769688  1  0.068211  2.9e-05  0.102922  0.118453  0.0  1.006042  0.0
H  H57  1  0.26637120  0.95233006  0.73230770  1  0.068316  -2.9e-05  0.102915  0.118421  -0.0  1.006129  0.0
H  H58  1  0.64410043  0.27541761  0.20139636  1  0.092353  -0.000244  0.103574  0.109038  -0.00017  1.003819  0.0
H  H59  1  0.35589331  0.72458558  0.79860374  1  0.092401  0.000244  0.103534  0.108987  0.00017  1.003773  0.0
H  H60  1  0.96543480  0.81854934  0.17546425  1  0.06338  0.000117  0.104157  0.118635  6.6e-05  1.004745  0.0
H  H61  1  0.03456054  0.18143481  0.82454242  1  0.063226  -0.000117  0.104132  0.118625  -6.6e-05  1.004766  0.0
H  H62  1  0.16503330  0.72321232  0.23475627  1  0.108864  0.000457  0.106567  0.116568  0.000347  1.02307  0.0
H  H63  1  0.83496292  0.27676598  0.76525150  1  0.108617  -0.000457  0.106522  0.116527  -0.000347  1.023031  0.0
H  H64  1  0.92106534  0.67150741  0.42733530  1  0.085067  0.000671  0.104993  0.107287  0.000472  1.013318  0.0
H  H65  1  0.07892724  0.32849241  0.57267273  1  0.085141  -0.000671  0.104995  0.107341  -0.000472  1.013178  0.0
H  H66  1  0.72213098  0.75621224  0.36698156  1  0.081468  4.2e-05  0.101903  0.110562  4e-06  1.043421  0.0
H  H67  1  0.27786170  0.24379395  0.63302666  1  0.081719  -4.2e-05  0.101875  0.110437  -4e-06  1.043416  0.0
C  C68  1  0.72296716  0.66858330  0.01560585  1  0.439511  0.003883  0.047016  0.092233  0.00173  3.932479  0.003
C  C69  1  0.27703532  0.33141097  0.98439723  1  0.439454  -0.003883  0.047057  0.092322  -0.001729  3.932175  -0.003
C  C70  1  0.84699022  0.66945684  0.01410817  1  0.020723  -0.00341  -0.084713  -0.177496  -0.002046  3.956224  -0.003
C  C71  1  0.15300935  0.33054220  0.98589616  1  0.020564  0.003408  -0.084792  -0.177563  0.002045  3.956143  0.003
C  C72  1  0.90010950  0.63328276  0.07505116  1  -0.003648  0.006464  0.007389  0.094766  0.003743  3.995297  0.004
C  C73  1  0.09988718  0.36672106  0.92495244  1  -0.003757  -0.006465  0.007489  0.094892  -0.003743  3.995053  -0.004
C  C74  1  0.82325705  0.59634583  0.13518400  1  -0.030898  -0.003806  -0.081184  -0.173736  -0.002267  3.940585  -0.003
C  C75  1  0.17674066  0.40366036  0.86481870  1  -0.030975  0.003805  -0.08113  -0.17357  0.002266  3.940503  0.003
C  C76  1  0.69984499  0.59778189  0.13227261  1  0.48363  0.00457  0.055766  0.099821  0.002178  3.918765  0.003
C  C77  1  0.30015460  0.40221807  0.86773061  1  0.483696  -0.004571  0.055715  0.099603  -0.002178  3.918929  -0.003
C  C78  1  0.03072819  0.63532643  0.07515901  1  -0.060755  0.007391  0.008374  0.09668  0.004238  3.999367  0.004
C  C79  1  0.96927349  0.36467826  0.92484240  1  -0.060715  -0.007394  0.008399  0.096646  -0.00424  3.999431  -0.004
C  C80  1  0.07948751  0.72333857  0.02692839  1  0.020761  -0.004111  -0.081837  -0.173574  -0.002424  3.937502  -0.003
C  C81  1  0.92050916  0.27666257  0.97307259  1  0.020625  0.004111  -0.081822  -0.17348  0.002424  3.9375  0.003
C  C82  1  0.20379213  0.72151596  0.02785006  1  0.472493  0.004843  0.052578  0.105469  0.002231  3.92562  0.003
C  C83  1  0.79620950  0.27848241  0.97214770  1  0.471983  -0.004842  0.052519  0.105395  -0.002231  3.925557  -0.003
C  C84  1  0.23495124  0.55443758  0.12060534  1  0.48847  0.005145  0.05737  0.110438  0.002529  3.914428  0.004
C  C85  1  0.76505540  0.44556254  0.87939111  1  0.488082  -0.005145  0.057325  0.110339  -0.002529  3.91448  -0.004
C  C86  1  0.11141682  0.55081278  0.12347892  1  -0.021437  -0.003927  -0.081357  -0.176314  -0.002354  3.943338  -0.003
C  C87  1  0.88858385  0.44918958  0.87652093  1  -0.021407  0.003927  -0.081326  -0.176274  0.002354  3.94342  0.003
C  C88  1  0.40172573  0.30052337  0.36770687  1  0.468875  -0.004568  0.05481  0.098619  -0.002178  3.919144  -0.003
C  C89  1  0.59828579  0.69947749  0.63229577  1  0.468219  0.004568  0.054753  0.098522  0.002178  3.919175  0.003
C  C90  1  0.40323527  0.17707740  0.36479961  1  -0.031102  0.003806  -0.081066  -0.173106  0.002267  3.940001  0.003
C  C91  1  0.59677533  0.82292479  0.63519954  1  -0.030717  -0.003804  -0.081024  -0.173169  -0.002267  3.940005  -0.003
C  C92  1  0.36674498  0.10003394  0.42497640  1  0.002972  -0.006459  0.007417  0.094298  -0.003741  3.993334  -0.004
C  C93  1  0.63325669  0.89996894  0.57502327  1  0.00266  0.006458  0.007396  0.094366  0.003741  3.993264  0.004
C  C94  1  0.33093672  0.15299893  0.48595481  1  0.021515  0.003406  -0.084778  -0.17735  0.002045  3.955778  0.003
C  C95  1  0.66906007  0.84700680  0.51404314  1  0.021629  -0.003406  -0.08484  -0.177457  -0.002046  3.955795  -0.003
C  C96  1  0.33165480  0.27706624  0.48443770  1  0.442642  -0.003877  0.047011  0.092006  -0.001723  3.931632  -0.003
C  C97  1  0.66834285  0.72293541  0.51556408  1  0.44308  0.003876  0.047034  0.092048  0.001723  3.931759  0.003
C  C98  1  0.44529976  0.76526712  0.37940475  1  0.488238  -0.005141  0.057232  0.110134  -0.002531  3.914763  -0.004
C  C99  1  0.55469808  0.23474098  0.62059180  1  0.48827  0.005142  0.057269  0.110222  0.002532  3.914341  0.004
C  C100  1  0.44908029  0.88872171  0.37653805  1  -0.019916  0.003924  -0.081272  -0.176722  0.002352  3.943479  0.003
C  C101  1  0.55091551  0.11128351  0.62345861  1  -0.01991  -0.003924  -0.081298  -0.176703  -0.002352  3.943348  -0.003
C  C102  1  0.36467002  0.96941120  0.42488144  1  -0.063641  -0.007389  0.008324  0.097258  -0.004237  3.999026  -0.004
C  C103  1  0.63532381  0.03059658  0.57511662  1  -0.063289  0.007387  0.008319  0.097149  0.004236  3.999035  0.004
C  C104  1  0.27830875  0.79648924  0.47220103  1  0.474276  -0.004835  0.053019  0.106564  -0.002223  3.923876  -0.003
C  C105  1  0.72169009  0.20351940  0.52779484  1  0.474279  0.004832  0.053028  0.106637  0.002223  3.92378  0.003
C  C106  1  0.27664227  0.92071399  0.47313929  1  0.021702  0.004114  -0.081739  -0.174784  0.002427  3.938688  0.003
C  C107  1  0.72335349  0.07928850  0.52685672  1  0.021379  -0.004115  -0.081745  -0.174791  -0.002428  3.938343  -0.003
C  C108  1  0.36392850  0.82931498  0.12963147  1  1.508098  0.004694  0.188666  0.533636  0.001854  4.223522  0.007
C  C109  1  0.63607612  0.17068228  0.87036361  1  1.508202  -0.004695  0.188631  0.533573  -0.001854  4.223858  -0.007
C  C110  1  0.30609471  0.94629900  0.16546046  1  -0.029583  -0.005181  -0.025565  -0.044961  -0.003279  3.991577  -0.004
C  C111  1  0.69390401  0.05370055  0.83453408  1  -0.029708  0.005181  -0.025614  -0.045095  0.003279  3.991647  0.004
C  C112  1  0.26584825  0.93258823  0.23651435  1  0.012438  -0.000151  -0.079863  -0.068818  -0.000236  3.956039  0.0
C  C113  1  0.73414949  0.06741082  0.76347840  1  0.012437  0.000151  -0.079891  -0.068802  0.000236  3.95605  0.0
C  C114  1  0.21448964  0.04271839  0.26952649  1  -0.028384  -0.000682  -0.103027  -0.203326  -0.00032  4.00027  -0.001
C  C115  1  0.78551002  0.95727805  0.73046831  1  -0.027747  0.000682  -0.102989  -0.203171  0.00032  4.000253  0.001
C  C116  1  0.20786663  0.16561629  0.23126531  1  0.406473  0.001127  0.080641  0.255004  0.000671  4.056156  0.001
C  C117  1  0.79213403  0.83437979  0.76872843  1  0.405476  -0.001127  0.080719  0.255006  -0.000671  4.05624  -0.001
C  C118  1  0.24834505  0.18053540  0.16071797  1  -0.024257  -0.000764  -0.106989  -0.211234  -0.00035  4.012228  -0.001
C  C119  1  0.75165464  0.81946376  0.83927748  1  -0.024177  0.000764  -0.107079  -0.21142  0.00035  4.01241  0.001
C  C120  1  0.29587020  0.07073226  0.12780687  1  -0.055879  -0.000474  -0.08297  -0.073637  -0.000395  3.992156  0.0
C  C121  1  0.70413053  0.92926836  0.87218730  1  -0.055777  0.000474  -0.082909  -0.073506  0.000395  3.992338  0.0
C  C122  1  0.04169814  0.31385060  0.30106419  1  0.354074  -0.002999  0.082626  0.259326  -0.001755  4.059676  -0.002
C  C123  1  0.95830152  0.68614763  0.69893236  1  0.354134  0.002999  0.082583  0.259218  0.001755  4.059696  0.002
C  C124  1  0.93546181  0.30792621  0.27846047  1  0.0226  0.000195  -0.112953  -0.229502  3.2e-05  4.036737  0.0
C  C125  1  0.06453108  0.69208377  0.72153695  1  0.022619  -0.000195  -0.112934  -0.229285  -3.2e-05  4.036593  0.0
C  C126  1  0.80938925  0.35693615  0.31544356  1  -0.099255  -0.003137  -0.087934  -0.07113  -0.001718  3.997115  -0.002
C  C127  1  0.19061255  0.64307134  0.68455209  1  -0.098466  0.003138  -0.087964  -0.071352  0.001718  3.997298  0.002
C  C128  1  0.78862725  0.41031840  0.37493387  1  -0.018026  0.006135  -0.033776  -0.074704  0.003735  4.004613  0.005
C  C129  1  0.21137536  0.58968137  0.62506606  1  -0.018584  -0.006134  -0.033755  -0.074618  -0.003734  4.004711  -0.005
C  C130  1  0.89689920  0.41253672  0.39735613  1  -0.075767  -0.001949  -0.081668  -0.067007  -0.001111  3.969947  -0.001
C  C131  1  0.10310922  0.58745349  0.60264377  1  -0.075655  0.00195  -0.081789  -0.067105  0.001111  3.969899  0.001
C  C132  1  0.02329372  0.36523671  0.36048280  1  0.05821  0.001254  -0.102426  -0.195716  0.000683  3.979502  0.001
C  C133  1  0.97670778  0.63475526  0.63951675  1  0.05817  -0.001254  -0.102331  -0.195592  -0.000683  3.979456  -0.001
C  C134  1  0.65250600  0.46544813  0.41407119  1  1.550489  -0.01141  0.206519  0.566418  -0.00776  4.223902  -0.012
C  C135  1  0.34749558  0.53455198  0.58593177  1  1.550776  0.0114  0.206512  0.566389  0.007761  4.22367  0.012
C  C136  1  0.53451147  0.34735989  0.08588164  1  1.549295  0.011432  0.206158  0.565887  0.007775  4.224431  0.012
C  C137  1  0.46549708  0.65263941  0.91411910  1  1.549483  -0.011429  0.206192  0.565938  -0.007773  4.224402  -0.012
C  C138  1  0.58953191  0.21122766  0.12502234  1  -0.016419  -0.006128  -0.032733  -0.073505  -0.003728  4.004614  -0.005
C  C139  1  0.41047266  0.78876954  0.87497668  1  -0.01652  0.006128  -0.032677  -0.073399  0.003728  4.004426  0.005
C  C140  1  0.58747715  0.10294488  0.10254540  1  -0.078291  0.001964  -0.082113  -0.067554  0.001119  3.970591  0.001
C  C141  1  0.41253126  0.89704712  0.89745674  1  -0.077741  -0.001965  -0.082191  -0.067682  -0.00112  3.970409  -0.001
C  C142  1  0.63470640  0.97656356  0.13944180  1  0.05991  -0.001257  -0.10227  -0.194857  -0.000685  3.978237  -0.001
C  C143  1  0.36529918  0.02343776  0.86056102  1  0.059653  0.001258  -0.102203  -0.194698  0.000685  3.977874  0.001
C  C144  1  0.68591787  0.95819385  0.19891134  1  0.35379  0.003017  0.082632  0.259061  0.001765  4.059548  0.002
C  C145  1  0.31408371  0.04180626  0.80109212  1  0.353926  -0.003017  0.082601  0.258983  -0.001765  4.059457  -0.002
C  C146  1  0.69173888  0.06445377  0.22154365  1  -0.073442  -0.000191  -0.112589  -0.229205  -3.4e-05  4.036455  0.0
C  C147  1  0.30826072  0.93554710  0.77845996  1  -0.073292  0.000191  -0.112566  -0.229079  3.4e-05  4.036689  0.0
C  C148  1  0.64272256  0.19051548  0.18456634  1  0.000812  0.00314  -0.088619  -0.071846  0.001724  3.997303  0.002
C  C149  1  0.35727521  0.80949076  0.81543290  1  0.000831  -0.003139  -0.088632  -0.071867  -0.001724  3.997436  -0.002
C  C150  1  0.83406188  0.79205102  0.26876784  1  0.388997  -0.001123  0.081073  0.255975  -0.000668  4.055333  -0.001
C  C151  1  0.16593271  0.20794808  0.73123758  1  0.388714  0.001123  0.080987  0.255959  0.000669  4.055486  0.001
C  C152  1  0.95694944  0.78557460  0.23053736  1  -0.03106  0.000682  -0.102792  -0.203175  0.000319  4.001175  0.001
C  C153  1  0.04304397  0.21441394  0.76946999  1  -0.031567  -0.000682  -0.102841  -0.203329  -0.00032  4.001302  -0.001
C  C154  1  0.06704623  0.73425844  0.26356475  1  0.013982  0.000157  -0.079938  -0.068565  0.000238  3.957209  0.0
C  C155  1  0.93295107  0.26572584  0.73644314  1  0.014532  -0.000157  -0.079815  -0.068382  -0.000238  3.957174  0.0
C  C156  1  0.05333344  0.69394298  0.33461636  1  -0.022166  0.005172  -0.02555  -0.045219  0.003282  3.991856  0.004
C  C157  1  0.94665907  0.30605051  0.66538951  1  -0.021698  -0.00517  -0.025495  -0.045154  -0.003282  3.991813  -0.004
C  C158  1  0.92892363  0.70400184  0.37223594  1  -0.05627  0.000478  -0.08294  -0.07281  0.000395  3.991402  0.0
C  C159  1  0.07107385  0.29599426  0.62777244  1  -0.05533  -0.000478  -0.083006  -0.073076  -0.000395  3.991452  0.0
C  C160  1  0.81914441  0.75143744  0.33930383  1  -0.00755  0.000763  -0.106819  -0.211007  0.00035  4.011616  0.001
C  C161  1  0.18084324  0.24856519  0.66070496  1  -0.008291  -0.000763  -0.106629  -0.210616  -0.00035  4.011676  -0.001
C  C162  1  0.17032171  0.63619050  0.37045627  1  1.503768  -0.004712  0.188214  0.5325  -0.001853  4.225227  -0.007
C  C163  1  0.82967976  0.36380412  0.62954885  1  1.50256  0.004714  0.188354  0.53267  0.001854  4.225004  0.007
N  N164  1  0.64989464  0.63372522  0.07345297  1  -1.197986  -0.06386  -0.318886  -0.201817  -0.039372  3.551853  -0.057
N  N165  1  0.35010788  0.36626999  0.92654852  1  -1.197774  0.063855  -0.318852  -0.2017  0.039369  3.551723  0.057
N  N166  1  0.28198163  0.63697500  0.07302793  1  -1.223023  -0.062591  -0.319562  -0.20972  -0.038736  3.57085  -0.057
N  N167  1  0.71802008  0.36302524  0.92696616  1  -1.222408  0.062593  -0.319534  -0.209756  0.038739  3.570804  0.057
N  N168  1  0.36607256  0.35033178  0.42655596  1  -1.201694  0.063871  -0.318586  -0.201261  0.03938  3.551433  0.058
N  N169  1  0.63393401  0.64966827  0.57344542  1  -1.201647  -0.063867  -0.318508  -0.201092  -0.039378  3.55148  -0.057
N  N170  1  0.36273501  0.71828961  0.42699234  1  -1.220644  0.062541  -0.319953  -0.21016  0.03871  3.569446  0.057
N  N171  1  0.63726574  0.28171460  0.57300433  1  -1.220594  -0.062545  -0.319961  -0.210279  -0.038713  3.56945  -0.057
O  O172  1  0.38652981  0.84564166  0.06417290  1  -1.131892  -0.084537  -0.31847  -0.545406  -0.049156  2.220476  -0.076
O  O173  1  0.61348278  0.15435531  0.93582026  1  -1.131704  0.08452  -0.318483  -0.545379  0.049149  2.220887  0.076
O  O174  1  0.39238297  0.71296872  0.16432611  1  -1.11481  -0.100086  -0.305972  -0.517615  -0.058118  2.195671  -0.09
O  O175  1  0.60761676  0.28703227  0.83566862  1  -1.114773  0.100095  -0.305865  -0.517467  0.058122  2.19559  0.09
O  O176  1  0.54042841  0.44055886  0.10957519  1  -1.139307  -0.06496  -0.311411  -0.54397  -0.038801  2.388892  -0.062
O  O177  1  0.45957612  0.55943651  0.89042455  1  -1.139494  0.064975  -0.311461  -0.544059  0.038809  2.388759  0.062
O  O178  1  0.48228345  0.36196976  0.03397090  1  -1.184281  0.032737  -0.323277  -0.585026  0.019996  2.457361  0.026
O  O179  1  0.51772519  0.63803143  0.96602517  1  -1.184381  -0.03274  -0.323225  -0.58496  -0.019995  2.457469  -0.026
O  O180  1  0.55921658  0.45981946  0.39032234  1  -1.139061  0.064978  -0.311597  -0.544418  0.038826  2.38722  0.062
O  O181  1  0.44078507  0.54018251  0.60967793  1  -1.138756  -0.06497  -0.311625  -0.54442  -0.038821  2.387152  -0.062
O  O182  1  0.63797652  0.51752106  0.46602021  1  -1.184229  -0.032639  -0.323399  -0.585259  -0.019947  2.458025  -0.026
O  O183  1  0.36202696  0.48247284  0.53398230  1  -1.184725  0.032648  -0.323393  -0.585255  0.019948  2.457778  0.026
O  O184  1  0.28665799  0.60776467  0.33575382  1  -1.114611  0.100137  -0.305522  -0.516902  0.058103  2.196652  0.09
O  O185  1  0.71333564  0.39223574  0.66425057  1  -1.113955  -0.100152  -0.305646  -0.517059  -0.058112  2.196552  -0.09
O  O186  1  0.15400772  0.61363631  0.43591842  1  -1.133395  0.084589  -0.318679  -0.545209  0.049184  2.220429  0.076
O  O187  1  0.84599281  0.38636143  0.56408644  1  -1.133143  -0.084587  -0.318772  -0.545319  -0.049184  2.220211  -0.076
O  O188  1  0.16754063  0.27533602  0.26354190  1  -1.109276  -0.000681  -0.163281  -0.233019  -0.000357  2.552463  -0.001
O  O189  1  0.83246001  0.72466182  0.73645557  1  -1.109036  0.000681  -0.163288  -0.23304  0.000357  2.552532  0.001
O  O190  1  0.72437640  0.83235961  0.23646271  1  -1.108135  0.000685  -0.1638  -0.234032  0.000359  2.552035  0.001
O  O191  1  0.27561920  0.16764273  0.76354465  1  -1.10827  -0.000685  -0.163776  -0.234087  -0.000359  2.552078  -0.001
