# generated using pymatgen
data_ZnH21C21SN5O6
_symmetry_space_group_name_H-M   'P 1'
_cell_length_a   8.04870270
_cell_length_b   15.42191215
_cell_length_c   21.93563309
_cell_angle_alpha   89.99989115
_cell_angle_beta   95.05268347
_cell_angle_gamma   90.00017986
_symmetry_Int_Tables_number   1
_chemical_formula_structural   ZnH21C21SN5O6
_chemical_formula_sum   'Zn4 H84 C84 S4 N20 O24'
_cell_volume   2712.21046666
_cell_formula_units_Z   4
loop_
 _symmetry_equiv_pos_site_id
 _symmetry_equiv_pos_as_xyz
  1  'x, y, z'
loop_
 _atom_site_type_symbol
 _atom_site_label
 _atom_site_symmetry_multiplicity
 _atom_site_fract_x
 _atom_site_fract_y
 _atom_site_fract_z
 _atom_site_occupancy
 _atom_site_pbe_bader_charge
 _atom_site_pbe_bader_spin_density
 _atom_site_pbe_cm5_charge
 _atom_site_pbe_ddec_charge
 _atom_site_pbe_ddec_spin_density
 _atom_site_pbe_ddec_sum_bond_order
 _atom_site_pbe_magmom
Zn  Zn0  1  0.15727880  0.97604285  0.23218157  1  1.246715  0  0.71126  0.81201  0  2.376138  0
Zn  Zn1  1  0.34272669  0.47604076  0.26781950  1  1.246647  0  0.711255  0.811952  0  2.376187  0
Zn  Zn2  1  0.84273173  0.02395971  0.76781818  1  1.246516  0  0.711284  0.811957  0  2.376145  0
Zn  Zn3  1  0.65727008  0.52395727  0.73218389  1  1.246554  0  0.711262  0.811998  0  2.376089  0
H  H4  1  0.16263567  0.30771040  0.44132688  1  0.084933  0  0.098611  0.112574  0  1.036746  0
H  H5  1  0.33737008  0.80771327  0.05867671  1  0.084908  0  0.098637  0.112602  0  1.036768  0
H  H6  1  0.83736114  0.69229216  0.55867196  1  0.084947  0  0.09862  0.112596  0  1.036785  0
H  H7  1  0.66263793  0.19228865  0.94132615  1  0.084931  0  0.098625  0.112603  0  1.03677  0
H  H8  1  0.43451001  0.38309427  0.44502634  1  0.091531  0  0.099539  0.100121  0  1.02871  0
H  H9  1  0.06548996  0.88309605  0.05497421  1  0.091521  0  0.099539  0.100124  0  1.028665  0
H  H10  1  0.56548304  0.61690765  0.55497510  1  0.091592  0  0.099565  0.100164  0  1.028643  0
H  H11  1  0.93451682  0.11690328  0.94502542  1  0.091508  0  0.09954  0.100141  0  1.028686  0
H  H12  1  0.60528834  0.19401167  0.31936928  1  0.095254  0  0.101459  0.107055  0  1.013135  0
H  H13  1  0.89469845  0.69400457  0.18062826  1  0.095156  0  0.10151  0.107201  0  1.013054  0
H  H14  1  0.39469971  0.80599219  0.68063291  1  0.095179  0  0.101495  0.107176  0  1.013026  0
H  H15  1  0.10529959  0.30599216  0.81937290  1  0.095198  0  0.101439  0.107055  0  1.013106  0
H  H16  1  0.48518889  0.02197021  0.17005088  1  0.174557  0  0.140323  0.118239  0  1.005401  0
H  H17  1  0.01481652  0.52196791  0.32994715  1  0.174526  0  0.140337  0.118302  0  1.005346  0
H  H18  1  0.51481669  0.97802458  0.82994370  1  0.17455  0  0.140348  0.118281  0  1.005375  0
H  H19  1  0.98518276  0.47802493  0.67005542  1  0.174549  0  0.140354  0.118296  0  1.005378  0
H  H20  1  0.18375818  0.09312413  0.00994507  1  0.176575  0  0.122851  0.132685  0  1.054968  0
H  H21  1  0.31624013  0.59312773  0.49005490  1  0.176639  0  0.122834  0.13264  0  1.05513  0
H  H22  1  0.81624236  0.90687649  0.99005480  1  0.176589  0  0.12283  0.132635  0  1.054917  0
H  H23  1  0.68375167  0.40687030  0.50994651  1  0.17659  0  0.122838  0.13261  0  1.054898  0
H  H24  1  0.98124491  0.03338693  0.09846290  1  0.124052  0  0.119203  0.128226  0  1.040069  0
H  H25  1  0.51875592  0.53339029  0.40153624  1  0.124022  0  0.119201  0.128215  0  1.040069  0
H  H26  1  0.01875814  0.96661174  0.90153524  1  0.124001  0  0.119204  0.128252  0  1.040027  0
H  H27  1  0.48123961  0.46661163  0.59846620  1  0.124029  0  0.119208  0.128227  0  1.039965  0
H  H28  1  0.48062265  0.10630757  0.00374600  1  0.120478  0  0.118212  0.112534  0  1.00211  0
H  H29  1  0.01937326  0.60630354  0.49625114  1  0.120561  0  0.118193  0.112499  0  1.002228  0
H  H30  1  0.51937543  0.89369824  0.99625015  1  0.120573  0  0.118218  0.11253  0  1.002214  0
H  H31  1  0.98061979  0.39369514  0.50374939  1  0.120567  0  0.118219  0.112501  0  1.002195  0
H  H32  1  0.61115087  0.03649915  0.05285004  1  0.11644  0  0.112944  0.1139  0  1.014366  0
H  H33  1  0.88884749  0.53649715  0.44714810  1  0.116489  0  0.112914  0.113885  0  1.014367  0
H  H34  1  0.38885220  0.96350342  0.94714581  1  0.116488  0  0.112894  0.113877  0  1.014409  0
H  H35  1  0.11113931  0.46350153  0.55285451  1  0.116625  0  0.112935  0.113916  0  1.014289  0
H  H36  1  0.74826208  0.09222503  0.15122807  1  0.08008  0  0.100583  0.107064  0  1.037289  0
H  H37  1  0.75173536  0.59222632  0.34876859  1  0.080078  0  0.100566  0.107037  0  1.037303  0
H  H38  1  0.25173474  0.90777559  0.84876940  1  0.080025  0  0.100596  0.107136  0  1.037248  0
H  H39  1  0.24826394  0.40777106  0.65123033  1  0.080124  0  0.100576  0.107071  0  1.037333  0
H  H40  1  0.82339973  0.36792564  0.16561186  1  0.096876  0  0.101243  0.102815  0  1.005619  0
H  H41  1  0.67659926  0.86792036  0.33438950  1  0.096935  0  0.101283  0.102825  0  1.005682  0
H  H42  1  0.17660080  0.63207563  0.83438938  1  0.0969  0  0.101259  0.102808  0  1.005666  0
H  H43  1  0.32341003  0.13207442  0.66560839  1  0.096848  0  0.101238  0.102776  0  1.005681  0
H  H44  1  0.62496566  0.38967583  0.07325512  1  0.093065  0  0.106281  0.104588  0  0.983941  0
H  H45  1  0.87503222  0.88967321  0.42674435  1  0.093099  0  0.106254  0.104542  0  0.984007  0
H  H46  1  0.37503862  0.61032479  0.92674534  1  0.093071  0  0.106267  0.104554  0  0.983957  0
H  H47  1  0.12496834  0.11032157  0.57325324  1  0.092949  0  0.106279  0.104543  0  0.983971  0
H  H48  1  0.48454189  0.26266689  0.02063590  1  0.104388  0  0.106317  0.120694  0  1.012549  0
H  H49  1  0.01546363  0.76266484  0.47936317  1  0.104348  0  0.106322  0.120734  0  1.012566  0
H  H50  1  0.51546366  0.73733762  0.97936140  1  0.104419  0  0.106332  0.120721  0  1.012529  0
H  H51  1  0.98453566  0.23733319  0.52063757  1  0.104352  0  0.106331  0.12073  0  1.012539  0
H  H52  1  0.85075483  0.23558915  0.26325861  1  0.116065  0  0.118443  0.116325  0  0.999138  0
H  H53  1  0.64924590  0.73558733  0.23674162  1  0.11607  0  0.118442  0.116315  0  0.999186  0
H  H54  1  0.14924447  0.76440822  0.73674077  1  0.11617  0  0.11843  0.116298  0  0.999137  0
H  H55  1  0.35075838  0.26441329  0.76325838  1  0.116113  0  0.118478  0.116381  0  0.999112  0
H  H56  1  0.93688663  0.14364672  0.22850024  1  0.074313  0  0.111574  0.099471  0  1.010618  0
H  H57  1  0.56310733  0.64364661  0.27150125  1  0.074315  0  0.111564  0.099422  0  1.010647  0
H  H58  1  0.06310768  0.85635066  0.77149943  1  0.074357  0  0.111556  0.099446  0  1.010596  0
H  H59  1  0.43688945  0.35635207  0.72850123  1  0.074374  0  0.111572  0.099429  0  1.010594  0
H  H60  1  0.02875833  0.35846426  0.28861135  1  0.184845  0  0.135771  0.112103  0  1.035979  0
H  H61  1  0.47124149  0.85846498  0.21138923  1  0.184828  0  0.135785  0.112119  0  1.035991  0
H  H62  1  0.97123348  0.64153312  0.71138823  1  0.184891  0  0.135731  0.112011  0  1.036117  0
H  H63  1  0.52877027  0.14153694  0.78861238  1  0.184917  0  0.135709  0.111954  0  1.036099  0
H  H64  1  0.43149595  0.31430095  0.18020277  1  0.145347  0  0.113098  0.104188  0  1.04527  0
H  H65  1  0.06850236  0.81430072  0.31979874  1  0.145325  0  0.113089  0.104123  0  1.045119  0
H  H66  1  0.56850584  0.68570097  0.81979624  1  0.145338  0  0.113108  0.10419  0  1.045266  0
H  H67  1  0.93150939  0.18570120  0.68020334  1  0.145274  0  0.113062  0.104111  0  1.045224  0
H  H68  1  0.18781700  0.18831576  0.15446000  1  0.142866  0  0.119525  0.116134  0  1.054427  0
H  H69  1  0.31218684  0.68831521  0.34554049  1  0.142819  0  0.11953  0.11612  0  1.054409  0
H  H70  1  0.81218229  0.81168616  0.84553984  1  0.142923  0  0.119527  0.116103  0  1.054448  0
H  H71  1  0.68781745  0.31168411  0.65445905  1  0.142913  0  0.119527  0.116089  0  1.054421  0
H  H72  1  0.98243730  0.20345623  0.39620675  1  0.498766  0  0.291932  0.310851  0  1.003394  0
H  H73  1  0.51755699  0.70345326  0.10379559  1  0.498851  0  0.291944  0.310814  0  1.003348  0
H  H74  1  0.01755076  0.79654504  0.60379408  1  0.498887  0  0.291913  0.310766  0  1.003397  0
H  H75  1  0.48244977  0.29654153  0.89620723  1  0.498817  0  0.291926  0.310771  0  1.00349  0
H  H76  1  0.05418547  0.12034587  0.34864329  1  0.484502  0  0.29105  0.299174  0  1.009403  0
H  H77  1  0.44580801  0.62034476  0.15135649  1  0.484581  0  0.291044  0.299092  0  1.009493  0
H  H78  1  0.94581133  0.87965605  0.65135737  1  0.48451  0  0.291038  0.299108  0  1.009477  0
H  H79  1  0.55419503  0.37965391  0.84864302  1  0.484626  0  0.291093  0.299213  0  1.009364  0
H  H80  1  0.82880979  0.92546021  0.21214163  1  0.658532  0  0.290175  0.389501  0  0.956089  0
H  H81  1  0.67119205  0.42546167  0.28785701  1  0.65758  0  0.290176  0.38949  0  0.956097  0
H  H82  1  0.17119575  0.07453912  0.78785750  1  0.657586  0  0.29019  0.389522  0  0.956079  0
H  H83  1  0.32880475  0.57453895  0.71214365  1  0.657619  0  0.290166  0.389522  0  0.956085  0
H  H84  1  0.85477875  0.98971483  0.27023893  1  0.628807  0  0.335819  0.41658  0  0.851563  0
H  H85  1  0.64522346  0.48971381  0.22975918  1  0.628776  0  0.335798  0.41652  0  0.851583  0
H  H86  1  0.14523303  0.01028644  0.72976086  1  0.628774  0  0.335806  0.416605  0  0.851583  0
H  H87  1  0.35477459  0.51028551  0.77024061  1  0.628757  0  0.335838  0.416631  0  0.851595  0
C  C88  1  0.35762441  0.17521934  0.34435875  1  -0.016891  0  -0.037108  -0.165933  0  3.916673  0
C  C89  1  0.14236439  0.67521838  0.15564126  1  -0.016899  0  -0.037057  -0.165939  0  3.916378  0
C  C90  1  0.64236989  0.82478193  0.65564183  1  -0.01687  0  -0.03708  -0.165857  0  3.916374  0
C  C91  1  0.85762990  0.32478159  0.84436023  1  -0.016796  0  -0.037076  -0.165862  0  3.916576  0
C  C92  1  0.22813201  0.20768793  0.37906115  1  0.444144  0  0.113943  0.315376  0  4.049617  0
C  C93  1  0.27186072  0.70768662  0.12093940  1  0.444159  0  0.113855  0.315213  0  4.049694  0
C  C94  1  0.77186228  0.79231205  0.62094079  1  0.444113  0  0.113896  0.315297  0  4.049709  0
C  C95  1  0.72813732  0.29231011  0.87906131  1  0.443986  0  0.113846  0.315191  0  4.049785  0
C  C96  1  0.26145028  0.28310592  0.41524808  1  0.03077  0  -0.111627  -0.208631  0  3.965587  0
C  C97  1  0.23854788  0.78310401  0.08475072  1  0.030509  0  -0.11165  -0.208639  0  3.965653  0
C  C98  1  0.73854652  0.71689665  0.58475121  1  0.030306  0  -0.11168  -0.208748  0  3.965595  0
C  C99  1  0.76145766  0.21689142  0.91524841  1  0.030445  0  -0.111654  -0.208619  0  3.965477  0
C  C100  1  0.41309888  0.32496272  0.41730438  1  -0.112831  0  -0.093694  -0.07181  0  4.065651  0
C  C101  1  0.08690200  0.82496316  0.08269628  1  -0.112489  0  -0.09369  -0.071784  0  4.065589  0
C  C102  1  0.58689417  0.67504114  0.58269570  1  -0.112734  0  -0.093629  -0.071705  0  4.065327  0
C  C103  1  0.91310852  0.17503746  0.91730438  1  -0.112776  0  -0.093607  -0.071815  0  4.065535  0
C  C104  1  0.53883131  0.29368335  0.38256027  1  -0.178642  0  -0.053905  -0.160116  0  4.070228  0
C  C105  1  0.96116851  0.79368431  0.11743940  1  -0.178337  0  -0.053919  -0.160142  0  4.070259  0
C  C106  1  0.46115802  0.70632181  0.61743786  1  -0.178095  0  -0.053986  -0.160179  0  4.070115  0
C  C107  1  0.03884323  0.20631826  0.88256359  1  -0.178171  0  -0.053947  -0.160035  0  4.070224  0
C  C108  1  0.51017612  0.21937676  0.34705016  1  0.000646  0  -0.083265  -0.074966  0  3.997254  0
C  C109  1  0.98981204  0.71937638  0.15295059  1  0.000344  0  -0.083276  -0.075052  0  3.997088  0
C  C110  1  0.48981070  0.78062645  0.65295017  1  0.000527  0  -0.083317  -0.075165  0  3.997089  0
C  C111  1  0.01018847  0.28062424  0.84705339  1  0.000614  0  -0.083236  -0.075022  0  3.997063  0
C  C112  1  0.33652577  0.09779578  0.30334963  1  1.522444  0  0.19325  0.582153  0  4.201256  0
C  C113  1  0.16346383  0.59779215  0.19665005  1  1.5225  0  0.193164  0.582049  0  4.201065  0
C  C114  1  0.66346853  0.90220873  0.69665049  1  1.522411  0  0.193128  0.581967  0  4.201216  0
C  C115  1  0.83653295  0.40220329  0.80335152  1  1.522327  0  0.19312  0.58196  0  4.201274  0
C  C116  1  0.37529988  0.03160126  0.13859912  1  0.967144  0  0.147388  0.096367  0  3.884173  0
C  C117  1  0.12470558  0.53160230  0.36139799  1  0.967007  0  0.147259  0.096036  0  3.884119  0
C  C118  1  0.62470944  0.96839547  0.86139512  1  0.966914  0  0.147268  0.096078  0  3.884153  0
C  C119  1  0.87529246  0.46839637  0.63860317  1  0.966971  0  0.147277  0.096042  0  3.884257  0
C  C120  1  0.21269470  0.07107559  0.05655806  1  0.310287  0  0.005327  -0.097632  0  3.887826  0
C  C121  1  0.28730720  0.57107797  0.44344525  1  0.310174  0  0.005345  -0.097491  0  3.887435  0
C  C122  1  0.78731085  0.92892892  0.94343970  1  0.31038  0  0.005393  -0.097473  0  3.887784  0
C  C123  1  0.71268579  0.42892459  0.55656257  1  0.31033  0  0.005481  -0.097368  0  3.887784  0
C  C124  1  0.11517466  0.04181578  0.10048959  1  0.359027  0  -0.006659  -0.047338  0  4.004644  0
C  C125  1  0.38482712  0.54181326  0.39950875  1  0.359247  0  -0.006643  -0.047387  0  4.004493  0
C  C126  1  0.88482839  0.95818743  0.89950946  1  0.359101  0  -0.006717  -0.047512  0  4.004709  0
C  C127  1  0.61517591  0.45818282  0.60049212  1  0.359133  0  -0.006758  -0.047492  0  4.004834  0
C  C128  1  0.52412684  0.09146567  0.05137300  1  0.243177  0  -0.049886  -0.128585  0  3.855222  0
C  C129  1  0.97587058  0.59146446  0.44862549  1  0.243075  0  -0.049824  -0.128504  0  3.855223  0
C  C130  1  0.47587123  0.90853754  0.94862360  1  0.243103  0  -0.049835  -0.128518  0  3.855236  0
C  C131  1  0.02411997  0.40853357  0.55137588  1  0.242931  0  -0.049881  -0.128536  0  3.85528  0
C  C132  1  0.60645057  0.16948780  0.08275787  1  -0.042956  0  -0.012793  0.100443  0  3.980425  0
C  C133  1  0.89354856  0.66948913  0.41724011  1  -0.042918  0  -0.012787  0.100495  0  3.980404  0
C  C134  1  0.39354625  0.83051282  0.91724005  1  -0.043035  0  -0.012791  0.100454  0  3.980471  0
C  C135  1  0.10644575  0.33051019  0.58275956  1  -0.042903  0  -0.012826  0.100378  0  3.980464  0
C  C136  1  0.71867776  0.15769162  0.13461639  1  -0.086494  0  -0.09212  -0.196642  0  3.946487  0
C  C137  1  0.78132380  0.65769161  0.36538169  1  -0.086402  0  -0.092127  -0.196678  0  3.946567  0
C  C138  1  0.28132405  0.84231095  0.86538125  1  -0.086581  0  -0.092141  -0.196769  0  3.946566  0
C  C139  1  0.21867425  0.34230771  0.63461855  1  -0.086552  0  -0.092128  -0.19664  0  3.946419  0
C  C140  1  0.79487576  0.22840207  0.16537497  1  -0.0553  0  -0.011751  0.103118  0  3.981048  0
C  C141  1  0.70512619  0.72840267  0.33462440  1  -0.055436  0  -0.011762  0.103162  0  3.981099  0
C  C142  1  0.20512603  0.77159920  0.83462494  1  -0.055405  0  -0.011747  0.103186  0  3.98104  0
C  C143  1  0.29488186  0.27159601  0.66537299  1  -0.055436  0  -0.011638  0.103264  0  3.980957  0
C  C144  1  0.76083271  0.31226002  0.14290171  1  -0.078215  0  -0.093614  -0.147064  0  3.985639  0
C  C145  1  0.73916972  0.81226062  0.35709757  1  -0.078249  0  -0.09367  -0.147142  0  3.985677  0
C  C146  1  0.23916908  0.68773930  0.85709775  1  -0.078198  0  -0.093674  -0.147159  0  3.985596  0
C  C147  1  0.26084208  0.18773676  0.64289904  1  -0.078468  0  -0.093671  -0.14714  0  3.985579  0
C  C148  1  0.65013942  0.32445369  0.09097270  1  -0.05834  0  -0.087751  -0.072024  0  4.037409  0
C  C149  1  0.84986307  0.82445303  0.40902838  1  -0.058341  0  -0.087683  -0.07189  0  4.037285  0
C  C150  1  0.34985862  0.67554628  0.90902891  1  -0.058332  0  -0.087706  -0.071892  0  4.037212  0
C  C151  1  0.15014748  0.17554305  0.59096864  1  -0.05794  0  -0.087719  -0.071879  0  4.037138  0
C  C152  1  0.57148094  0.25342486  0.06115630  1  -0.013741  0  -0.087185  -0.134512  0  3.954973  0
C  C153  1  0.92852612  0.75342360  0.43884502  1  -0.013765  0  -0.087192  -0.134578  0  3.95494  0
C  C154  1  0.42852085  0.74657706  0.93884270  1  -0.013797  0  -0.087165  -0.134536  0  3.954927  0
C  C155  1  0.07147316  0.24657443  0.56115618  1  -0.013751  0  -0.087192  -0.134576  0  3.954841  0
C  C156  1  0.90928278  0.21292929  0.22273128  1  0.292519  0  -0.046856  -0.11999  0  3.876985  0
C  C157  1  0.59071658  0.71292921  0.27726893  1  0.292533  0  -0.046828  -0.119925  0  3.87695  0
C  C158  1  0.09071901  0.78707068  0.77726863  1  0.292398  0  -0.046818  -0.119922  0  3.876866  0
C  C159  1  0.40928399  0.28706817  0.72272821  1  0.292675  0  -0.046909  -0.119991  0  3.877026  0
C  C160  1  0.10849481  0.33130626  0.25603134  1  0.965619  0  0.147776  0.098148  0  3.898541  0
C  C161  1  0.39150239  0.83130482  0.24396646  1  0.965544  0  0.147801  0.098199  0  3.898493  0
C  C162  1  0.89150075  0.66869631  0.74396837  1  0.965489  0  0.147895  0.098346  0  3.898584  0
C  C163  1  0.60850689  0.16869710  0.75603234  1  0.965164  0  0.147887  0.098341  0  3.89887  0
C  C164  1  0.31228750  0.30544719  0.19878271  1  0.367277  0  0.000214  -0.022271  0  3.986506  0
C  C165  1  0.18771576  0.80544591  0.30121851  1  0.367219  0  0.000263  -0.022073  0  3.986483  0
C  C166  1  0.68770805  0.69455667  0.80121700  1  0.367275  0  0.00017  -0.022324  0  3.986701  0
C  C167  1  0.81229600  0.19455860  0.69878311  1  0.367096  0  0.000222  -0.022287  0  3.986674  0
C  C168  1  0.19414059  0.24252236  0.18588126  1  0.312597  0  0.005145  -0.090284  0  3.897495  0
C  C169  1  0.30585359  0.74252643  0.31411838  1  0.312772  0  0.005036  -0.090423  0  3.897904  0
C  C170  1  0.80585496  0.75748280  0.81411936  1  0.312446  0  0.005082  -0.090304  0  3.897504  0
C  C171  1  0.69414823  0.25747484  0.68587789  1  0.312559  0  0.00503  -0.090322  0  3.897815  0
S  S172  1  0.73396549  0.34666007  0.38631882  1  3.130478  0  0.504374  1.164877  0  6.189161  0
S  S173  1  0.76603836  0.84665943  0.11368228  1  3.130565  0  0.504357  1.16489  0  6.18914  0
S  S174  1  0.26603004  0.65333925  0.61368317  1  3.130402  0  0.504523  1.165057  0  6.188924  0
S  S175  1  0.23396841  0.15333925  0.88631826  1  3.130163  0  0.504418  1.164918  0  6.188971  0
N  N176  1  0.21818903  0.01742453  0.15147419  1  -1.247542  0  -0.3678  -0.306494  0  3.642613  0
N  N177  1  0.28181759  0.51742327  0.34852479  1  -1.247642  0  -0.367646  -0.306132  0  3.642341  0
N  N178  1  0.78181903  0.98257544  0.84852274  1  -1.247567  0  -0.367666  -0.306144  0  3.642294  0
N  N179  1  0.71818294  0.48257411  0.65147599  1  -1.247689  0  -0.367657  -0.306163  0  3.642401  0
N  N180  1  0.37605756  0.06380162  0.08127773  1  -1.20366  0  -0.234251  0.059789  0  3.747128  0
N  N181  1  0.12393935  0.56380122  0.41871996  1  -1.203517  0  -0.234301  0.059664  0  3.747109  0
N  N182  1  0.62394549  0.93619770  0.91871949  1  -1.203226  0  -0.234312  0.05973  0  3.747209  0
N  N183  1  0.87605245  0.43619616  0.58128099  1  -1.203383  0  -0.234337  0.059758  0  3.747264  0
N  N184  1  0.06692418  0.25982681  0.22253291  1  -1.225156  0  -0.235491  0.058009  0  3.769709  0
N  N185  1  0.43307135  0.75982664  0.27746630  1  -1.225172  0  -0.235473  0.058035  0  3.769634  0
N  N186  1  0.93307138  0.74017252  0.77746634  1  -1.225076  0  -0.235482  0.058003  0  3.769639  0
N  N187  1  0.56693296  0.24017139  0.72253097  1  -1.225133  0  -0.235513  0.057922  0  3.769831  0
N  N188  1  0.25698145  0.36061924  0.24247933  1  -1.232869  0  -0.367203  -0.307517  0  3.656776  0
N  N189  1  0.24301590  0.86061881  0.25752071  1  -1.232839  0  -0.367218  -0.307611  0  3.656662  0
N  N190  1  0.74301284  0.63938203  0.75752261  1  -1.232771  0  -0.367221  -0.307557  0  3.656779  0
N  N191  1  0.75699585  0.13938635  0.74248136  1  -1.232382  0  -0.367109  -0.307361  0  3.656773  0
N  N192  1  0.07694128  0.16909466  0.37946321  1  -1.296671  0  -0.598628  -0.613802  0  3.352656  0
N  N193  1  0.42305246  0.66909361  0.12053833  1  -1.29673  0  -0.598615  -0.613623  0  3.352789  0
N  N194  1  0.92304928  0.83090725  0.62053724  1  -1.296683  0  -0.598578  -0.613586  0  3.352692  0
N  N195  1  0.57694931  0.33090377  0.87946386  1  -1.296706  0  -0.598623  -0.61368  0  3.352826  0
O  O196  1  0.18328369  0.06658682  0.29472693  1  -1.161731  0  -0.347813  -0.586663  0  2.34469  0
O  O197  1  0.31670572  0.56658277  0.20527461  1  -1.16158  0  -0.347861  -0.586722  0  2.344681  0
O  O198  1  0.81671062  0.93341834  0.70527228  1  -1.161591  0  -0.347792  -0.586667  0  2.344713  0
O  O199  1  0.68329105  0.43341396  0.79472879  1  -1.16161  0  -0.347787  -0.586661  0  2.34476  0
O  O200  1  0.45569433  0.06575060  0.27814807  1  -1.186809  0  -0.348132  -0.582513  0  2.094227  0
O  O201  1  0.04429634  0.56574735  0.22185123  1  -1.187063  0  -0.348012  -0.582339  0  2.094082  0
O  O202  1  0.54429750  0.93425456  0.72184923  1  -1.187013  0  -0.348009  -0.582341  0  2.094132  0
O  O203  1  0.95570667  0.43425197  0.77815146  1  -1.186932  0  -0.348081  -0.582409  0  2.093962  0
O  O204  1  0.77855729  0.35339347  0.32157048  1  -1.336277  0  -0.349619  -0.626165  0  2.231652  0
O  O205  1  0.72144786  0.85339193  0.17842974  1  -1.336436  0  -0.349648  -0.626193  0  2.231726  0
O  O206  1  0.22143825  0.64660196  0.67843105  1  -1.336353  0  -0.349662  -0.626258  0  2.231575  0
O  O207  1  0.27856265  0.14660610  0.82157093  1  -1.336317  0  -0.349584  -0.626136  0  2.231584  0
O  O208  1  0.85427447  0.29282698  0.42360517  1  -1.34454  0  -0.341613  -0.607175  0  2.233755  0
O  O209  1  0.64572160  0.79282948  0.07639482  1  -1.344492  0  -0.34159  -0.607141  0  2.233608  0
O  O210  1  0.14571981  0.70717299  0.57639723  1  -1.344523  0  -0.341626  -0.607161  0  2.233614  0
O  O211  1  0.35428018  0.20717244  0.92360600  1  -1.344555  0  -0.341654  -0.607168  0  2.233535  0
O  O212  1  0.71174264  0.43279396  0.41295856  1  -1.349463  0  -0.344333  -0.612215  0  2.242709  0
O  O213  1  0.78825799  0.93279277  0.08704049  1  -1.349444  0  -0.344331  -0.612245  0  2.242728  0
O  O214  1  0.28825664  0.56720602  0.58704401  1  -1.349431  0  -0.344397  -0.612292  0  2.242701  0
O  O215  1  0.21174258  0.06720396  0.91295665  1  -1.349187  0  -0.344354  -0.612288  0  2.24276  0
O  O216  1  0.90005241  0.97480885  0.23196999  1  -1.256994  0  -0.56053  -0.734767  0  2.125466  0
O  O217  1  0.59995095  0.47481025  0.26802863  1  -1.255985  0  -0.560504  -0.734678  0  2.125491  0
O  O218  1  0.09995811  0.02518917  0.76803021  1  -1.255902  0  -0.560528  -0.734817  0  2.125504  0
O  O219  1  0.40004460  0.52518907  0.73197107  1  -1.255899  0  -0.560555  -0.734855  0  2.125533  0
