# generated using pymatgen
data_NaBH6C6N2(O2F)2
_symmetry_space_group_name_H-M   'P 1'
_cell_length_a   6.58483705
_cell_length_b   11.72700587
_cell_length_c   13.96094210
_cell_angle_alpha   90.00037766
_cell_angle_beta   90.00001114
_cell_angle_gamma   89.99986413
_symmetry_Int_Tables_number   1
_chemical_formula_structural   NaBH6C6N2(O2F)2
_chemical_formula_sum   'Na4 B4 H24 C24 N8 O16 F8'
_cell_volume   1078.06985043
_cell_formula_units_Z   4
loop_
 _symmetry_equiv_pos_site_id
 _symmetry_equiv_pos_as_xyz
  1  'x, y, z'
loop_
 _atom_site_type_symbol
 _atom_site_label
 _atom_site_symmetry_multiplicity
 _atom_site_fract_x
 _atom_site_fract_y
 _atom_site_fract_z
 _atom_site_occupancy
 _atom_site_hle17_bader_spin_density
 _atom_site_hle17_ddec_charge
 _atom_site_hle17_ddec_spin_density
 _atom_site_hle17_ddec_sum_bond_order
 _atom_site_hle17_magmom
 _atom_site_hse06_10hf_bader_spin_density
 _atom_site_hse06_10hf_ddec_charge
 _atom_site_hse06_10hf_ddec_spin_density
 _atom_site_hse06_10hf_ddec_sum_bond_order
 _atom_site_hse06_10hf_magmom
 _atom_site_hse06_bader_spin_density
 _atom_site_hse06_ddec_charge
 _atom_site_hse06_ddec_spin_density
 _atom_site_hse06_ddec_sum_bond_order
 _atom_site_hse06_magmom
 _atom_site_pbe_bader_spin_density
 _atom_site_pbe_cm5_charge
 _atom_site_pbe_ddec_charge
 _atom_site_pbe_ddec_spin_density
 _atom_site_pbe_ddec_sum_bond_order
 _atom_site_pbe_magmom
Na  Na0  1  0.20914304  0.53952304  0.24999967  1  0  0.887501  0  0.394189  0  0  0.823388  0  0.572761  0  0  0.836235  0  0.547397  0  0  0.699527  0.814135  0  0.59076  0
Na  Na1  1  0.29085607  0.03952409  0.24999973  1  0  0.887486  0  0.394188  0  0  0.823337  0  0.572774  0  0  0.836198  0  0.547414  0  0  0.699491  0.814088  0  0.590774  0
Na  Na2  1  0.79085551  0.46047546  0.75000084  1  0  0.887486  0  0.394198  0  0  0.823363  0  0.572767  0  0  0.836218  0  0.547403  0  0  0.69952  0.814117  0  0.590767  0
Na  Na3  1  0.70914400  0.96047697  0.75000007  1  0  0.887493  0  0.394198  0  0  0.823357  0  0.572779  0  0  0.836216  0  0.547417  0  0  0.699501  0.814109  0  0.590779  0
B  B4  1  0.53865359  0.30239751  0.24999903  1  0  1.141653  0  2.852069  0  0  0.976911  0  3.221762  0  0  1.012772  0  3.185094  0  0  0.060028  0.951699  0  3.247509  0
B  B5  1  0.96135092  0.80239783  0.25000115  1  0  1.141528  0  2.852201  0  0  0.976837  0  3.221849  0  0  1.012628  0  3.185435  0  0  0.060034  0.95164  0  3.247572  0
B  B6  1  0.46134799  0.69760099  0.75000076  1  0  1.141618  0  2.852106  0  0  0.976885  0  3.221777  0  0  1.012673  0  3.185367  0  0  0.06004  0.951685  0  3.247507  0
B  B7  1  0.03865370  0.19760238  0.74999793  1  0  1.141845  0  2.851866  0  0  0.977065  0  3.221547  0  0  1.01292  0  3.184886  0  0  0.060063  0.951861  0  3.247288  0
H  H8  1  0.87096484  0.60880030  0.03244437  1  0  0.166385  0  0.916591  0  0  0.186103  0  0.970813  0  0  0.188266  0  0.969047  0  0  0.122987  0.184494  0  0.972142  0
H  H9  1  0.62903746  0.10880072  0.46755688  1  0  0.166331  0  0.916623  0  0  0.186074  0  0.970817  0  0  0.188239  0  0.969054  0  0  0.122961  0.184466  0  0.972146  0
H  H10  1  0.12903665  0.39119990  0.53244367  1  0  0.166359  0  0.916588  0  0  0.186087  0  0.970788  0  0  0.188252  0  0.969023  0  0  0.122974  0.184477  0  0.972123  0
H  H11  1  0.37096119  0.89119864  0.96755610  1  0  0.166318  0  0.916656  0  0  0.186061  0  0.970845  0  0  0.188228  0  0.969081  0  0  0.122957  0.184452  0  0.972171  0
H  H12  1  0.12903371  0.39119990  0.96755685  1  0  0.166366  0  0.916622  0  0  0.186083  0  0.970844  0  0  0.188248  0  0.969079  0  0  0.122976  0.184479  0  0.972171  0
H  H13  1  0.37096565  0.89119949  0.53244363  1  0  0.166396  0  0.91661  0  0  0.186123  0  0.970813  0  0  0.188287  0  0.969046  0  0  0.122981  0.184515  0  0.972146  0
H  H14  1  0.87096038  0.60880030  0.46755613  1  0  0.166271  0  0.916655  0  0  0.186017  0  0.970842  0  0  0.188184  0  0.96908  0  0  0.122914  0.184408  0  0.972169  0
H  H15  1  0.62903584  0.10880071  0.03244298  1  0  0.166357  0  0.916595  0  0  0.186084  0  0.970803  0  0  0.188248  0  0.969039  0  0  0.122968  0.184478  0  0.972129  0
H  H16  1  0.75048473  0.74078791  0.00124555  1  0  0.156021  0  0.929204  0  0  0.174718  0  0.986045  0  0  0.176162  0  0.985783  0  0  0.116715  0.173647  0  0.98627  0
H  H17  1  0.74951093  0.24078927  0.49875644  1  0  0.155989  0  0.929211  0  0  0.174699  0  0.986055  0  0  0.176143  0  0.985795  0  0  0.116733  0.17364  0  0.986269  0
H  H18  1  0.24951067  0.25921034  0.50124484  1  0  0.156  0  0.929199  0  0  0.174707  0  0.986034  0  0  0.176152  0  0.985773  0  0  0.116727  0.173647  0  0.98625  0
H  H19  1  0.25048924  0.75921033  0.99875634  1  0  0.15604  0  0.92913  0  0  0.174733  0  0.985982  0  0  0.176178  0  0.98572  0  0  0.11674  0.173655  0  0.986219  0
H  H20  1  0.24951230  0.25921314  0.99875496  1  0  0.156003  0  0.929203  0  0  0.174699  0  0.986051  0  0  0.176143  0  0.985791  0  0  0.116718  0.173637  0  0.98627  0
H  H21  1  0.25048762  0.75921179  0.50124550  1  0  0.156046  0  0.92923  0  0  0.174741  0  0.986075  0  0  0.176186  0  0.985812  0  0  0.116711  0.173675  0  0.986296  0
H  H22  1  0.75048788  0.74078901  0.49875639  1  0  0.156057  0  0.929112  0  0  0.174753  0  0.985958  0  0  0.1762  0  0.985695  0  0  0.11675  0.173677  0  0.986189  0
H  H23  1  0.74950931  0.24079072  0.00124345  1  0  0.156028  0  0.929122  0  0  0.174729  0  0.985963  0  0  0.176175  0  0.985701  0  0  0.116752  0.173666  0  0.98619  0
H  H24  1  0.69364857  0.61325438  0.93601592  1  0  0.157353  0  0.942376  0  0  0.172445  0  1.00631  0  0  0.174498  0  1.005055  0  0  0.119032  0.170948  0  1.007235  0
H  H25  1  0.80634937  0.11325565  0.56398664  1  0  0.157364  0  0.942371  0  0  0.172466  0  1.006315  0  0  0.17452  0  1.005062  0  0  0.119028  0.170971  0  1.007236  0
H  H26  1  0.30634854  0.38674217  0.43601392  1  0  0.157401  0  0.942362  0  0  0.172483  0  1.006317  0  0  0.174536  0  1.005066  0  0  0.119059  0.170985  0  1.007237  0
H  H27  1  0.19365061  0.88674394  0.06398668  1  0  0.157351  0  0.942355  0  0  0.172443  0  1.006299  0  0  0.174496  0  1.005046  0  0  0.119037  0.170946  0  1.007218  0
H  H28  1  0.30634998  0.38674412  0.06398530  1  0  0.157377  0  0.942383  0  0  0.172471  0  1.006312  0  0  0.174523  0  1.005061  0  0  0.119041  0.170976  0  1.007234  0
H  H29  1  0.19364918  0.88674455  0.43601602  1  0  0.157386  0  0.942369  0  0  0.172476  0  1.006308  0  0  0.174529  0  1.005053  0  0  0.11903  0.170981  0  1.007225  0
H  H30  1  0.69365001  0.61325633  0.56398659  1  0  0.157362  0  0.942339  0  0  0.172454  0  1.006288  0  0  0.174509  0  1.005032  0  0  0.119043  0.170958  0  1.007209  0
H  H31  1  0.80634946  0.11325626  0.93601383  1  0  0.157375  0  0.942365  0  0  0.172465  0  1.006314  0  0  0.174518  0  1.005061  0  0  0.119042  0.170969  0  1.007231  0
C  C32  1  0.81920853  0.40075128  0.19469717  1  0  0.531393  0  3.861837  0  0  0.484396  0  4.161197  0  0  0.512885  0  4.152439  0  0  0.253923  0.464982  0  4.16685  0
C  C33  1  0.68079101  0.90074814  0.30530212  1  0  0.53138  0  3.861956  0  0  0.484335  0  4.161374  0  0  0.512829  0  4.152605  0  0  0.253931  0.464917  0  4.167032  0
C  C34  1  0.18078696  0.59924934  0.69469762  1  0  0.531464  0  3.862126  0  0  0.484364  0  4.161528  0  0  0.512855  0  4.15276  0  0  0.253977  0.464949  0  4.167176  0
C  C35  1  0.31921516  0.09925079  0.80530196  1  0  0.531412  0  3.862072  0  0  0.484321  0  4.161485  0  0  0.512808  0  4.152726  0  0  0.253926  0.464905  0  4.167135  0
C  C36  1  0.18079002  0.59924978  0.80530405  1  0  0.531262  0  3.862031  0  0  0.484278  0  4.161369  0  0  0.512766  0  4.152603  0  0  0.25394  0.464876  0  4.167013  0
C  C37  1  0.31921513  0.09924865  0.69469553  1  0  0.531473  0  3.861766  0  0  0.48437  0  4.161175  0  0  0.512854  0  4.152419  0  0  0.254002  0.464965  0  4.166821  0
C  C38  1  0.81921463  0.40075001  0.30530146  1  0  0.53138  0  3.862194  0  0  0.484298  0  4.161562  0  0  0.512787  0  4.152806  0  0  0.25395  0.464878  0  4.167221  0
C  C39  1  0.68078795  0.90075112  0.19469640  1  0  0.531299  0  3.86205  0  0  0.484297  0  4.161389  0  0  0.512788  0  4.152622  0  0  0.25394  0.464888  0  4.167042  0
C  C40  1  0.56724280  0.62284005  0.07270673  1  0  0.444335  0  3.697524  0  0  0.434197  0  3.982316  0  0  0.446642  0  3.99859  0  0  0.214924  0.42565  0  3.971325  0
C  C41  1  0.93275640  0.12284230  0.42729604  1  0  0.44432  0  3.697561  0  0  0.434183  0  3.982369  0  0  0.446631  0  3.998643  0  0  0.214888  0.425634  0  3.971377  0
C  C42  1  0.43274656  0.37715535  0.57270095  1  0  0.444278  0  3.697317  0  0  0.43414  0  3.982119  0  0  0.446592  0  3.998394  0  0  0.214778  0.425589  0  3.971126  0
C  C43  1  0.06725438  0.87715418  0.92730017  1  0  0.44434  0  3.697148  0  0  0.434201  0  3.981952  0  0  0.446657  0  3.998223  0  0  0.214796  0.425647  0  3.970952  0
C  C44  1  0.43275575  0.37715930  0.92729378  1  0  0.444314  0  3.69756  0  0  0.434179  0  3.982346  0  0  0.446624  0  3.998619  0  0  0.214932  0.425633  0  3.971354  0
C  C45  1  0.06724215  0.87715961  0.57270877  1  0  0.444414  0  3.697551  0  0  0.434285  0  3.982328  0  0  0.44673  0  3.998596  0  0  0.215015  0.425737  0  3.971339  0
C  C46  1  0.56725655  0.62284485  0.42730099  1  0  0.444309  0  3.697095  0  0  0.434166  0  3.981908  0  0  0.44662  0  3.998182  0  0  0.214769  0.42561  0  3.970914  0
C  C47  1  0.93275025  0.12284603  0.07270249  1  0  0.444272  0  3.697491  0  0  0.434133  0  3.982295  0  0  0.446583  0  3.99857  0  0  0.214791  0.425581  0  3.971301  0
C  C48  1  0.72988457  0.64819654  0.00679291  1  0  -0.37398  0  3.721452  0  0  -0.447146  0  3.94955  0  0  -0.449841  0  3.954443  0  0  -0.204207  -0.444985  0  3.946155  0
C  C49  1  0.77011604  0.14819782  0.49320928  1  0  -0.373888  0  3.721645  0  0  -0.447111  0  3.949751  0  0  -0.449812  0  3.954649  0  0  -0.20417  -0.444961  0  3.946335  0
C  C50  1  0.27011539  0.35180175  0.50679200  1  0  -0.373899  0  3.721861  0  0  -0.447075  0  3.94997  0  0  -0.449776  0  3.954867  0  0  -0.204156  -0.444923  0  3.946558  0
C  C51  1  0.22988110  0.85180173  0.99320826  1  0  -0.373856  0  3.721929  0  0  -0.44703  0  3.949999  0  0  -0.449732  0  3.954894  0  0  -0.204121  -0.444861  0  3.946601  0
C  C52  1  0.27011398  0.35180366  0.99320760  1  0  -0.373968  0  3.721546  0  0  -0.447144  0  3.94965  0  0  -0.449841  0  3.954546  0  0  -0.204205  -0.444992  0  3.94624  0
C  C53  1  0.22988555  0.85180324  0.50679266  1  0  -0.374142  0  3.721471  0  0  -0.447325  0  3.949582  0  0  -0.450017  0  3.954467  0  0  -0.204259  -0.445173  0  3.94618  0
C  C54  1  0.72988012  0.64819760  0.49320780  1  0  -0.373828  0  3.721963  0  0  -0.447  0  3.950025  0  0  -0.449705  0  3.954921  0  0  -0.204076  -0.444832  0  3.946627  0
C  C55  1  0.77011442  0.14819932  0.00679153  1  0  -0.373912  0  3.721713  0  0  -0.447093  0  3.949823  0  0  -0.449793  0  3.954719  0  0  -0.204169  -0.444941  0  3.946415  0
N  N56  1  0.43547346  0.60176250  0.12540654  1  0  -0.537367  0  2.611643  0  0  -0.511027  0  2.842401  0  0  -0.524134  0  2.850829  0  0  -0.397365  -0.502261  0  2.83697  0
N  N57  1  0.06452842  0.10176568  0.37459463  1  0  -0.537332  0  2.611521  0  0  -0.510997  0  2.842285  0  0  -0.52411  0  2.850719  0  0  -0.397342  -0.502232  0  2.83685  0
N  N58  1  0.56453870  0.39823502  0.62541021  1  0  -0.537366  0  2.610971  0  0  -0.511043  0  2.84175  0  0  -0.524159  0  2.850183  0  0  -0.397289  -0.502277  0  2.836318  0
N  N59  1  0.93545804  0.89823550  0.87458892  1  0  -0.537424  0  2.610726  0  0  -0.511097  0  2.841504  0  0  -0.524216  0  2.849936  0  0  -0.39731  -0.502329  0  2.836069  0
N  N60  1  0.56452509  0.39823600  0.87459540  1  0  -0.537321  0  2.611615  0  0  -0.510995  0  2.842388  0  0  -0.524103  0  2.850818  0  0  -0.397368  -0.502227  0  2.836953  0
N  N61  1  0.93547772  0.89823623  0.62540516  1  0  -0.537334  0  2.611734  0  0  -0.511012  0  2.842511  0  0  -0.52412  0  2.85094  0  0  -0.397396  -0.502248  0  2.837078  0
N  N62  1  0.43545529  0.60176433  0.37458815  1  0  -0.537402  0  2.610601  0  0  -0.511085  0  2.84139  0  0  -0.524198  0  2.849817  0  0  -0.397309  -0.502311  0  2.835954  0
N  N63  1  0.06453292  0.10176641  0.12540873  1  0  -0.537352  0  2.611242  0  0  -0.511011  0  2.842005  0  0  -0.524127  0  2.850439  0  0  -0.397283  -0.502245  0  2.836571  0
O  O64  1  0.94801495  0.44663483  0.14484322  1  0  -0.505117  0  1.979644  0  0  -0.474112  0  2.202088  0  0  -0.491763  0  2.194518  0  0  -0.288266  -0.46207  0  2.207142  0
O  O65  1  0.55198592  0.94663396  0.35515346  1  0  -0.505076  0  1.979736  0  0  -0.474054  0  2.202204  0  0  -0.491707  0  2.194636  0  0  -0.288255  -0.462013  0  2.20726  0
O  O66  1  0.05198355  0.55336540  0.64484770  1  0  -0.505058  0  1.979781  0  0  -0.474063  0  2.202288  0  0  -0.49171  0  2.194715  0  0  -0.288291  -0.462027  0  2.207345  0
O  O67  1  0.44800964  0.05336451  0.85515163  1  0  -0.505002  0  1.979851  0  0  -0.47399  0  2.202329  0  0  -0.491639  0  2.19476  0  0  -0.288223  -0.461952  0  2.207382  0
O  O68  1  0.05198512  0.55336793  0.85515514  1  0  -0.505036  0  1.979794  0  0  -0.474023  0  2.20221  0  0  -0.491673  0  2.194641  0  0  -0.288261  -0.461987  0  2.207261  0
O  O69  1  0.44801415  0.05336539  0.64484204  1  0  -0.505107  0  1.979576  0  0  -0.474099  0  2.202065  0  0  -0.491749  0  2.194495  0  0  -0.288321  -0.462061  0  2.207113  0
O  O70  1  0.94801500  0.44663480  0.35515209  1  0  -0.50502  0  1.979813  0  0  -0.474027  0  2.202301  0  0  -0.491676  0  2.19473  0  0  -0.288263  -0.461983  0  2.207356  0
O  O71  1  0.55199194  0.94663143  0.14484530  1  0  -0.504998  0  1.979852  0  0  -0.474004  0  2.202317  0  0  -0.491654  0  2.194746  0  0  -0.288234  -0.461968  0  2.207369  0
O  O72  1  0.65806115  0.34341353  0.16470978  1  0  -0.552349  0  2.195465  0  0  -0.478602  0  2.430084  0  0  -0.502345  0  2.420968  0  0  -0.154412  -0.462122  0  2.435944  0
O  O73  1  0.84194015  0.84341383  0.33528991  1  0  -0.552381  0  2.195578  0  0  -0.478585  0  2.430154  0  0  -0.502322  0  2.421069  0  0  -0.154437  -0.462108  0  2.436009  0
O  O74  1  0.34193736  0.65658515  0.66471127  1  0  -0.552574  0  2.195769  0  0  -0.478613  0  2.430235  0  0  -0.50235  0  2.421158  0  0  -0.154432  -0.462136  0  2.436088  0
O  O75  1  0.15806147  0.15658790  0.83528863  1  0  -0.552594  0  2.195645  0  0  -0.478659  0  2.430147  0  0  -0.502403  0  2.42104  0  0  -0.154435  -0.462178  0  2.436004  0
O  O76  1  0.34193892  0.65658582  0.83528930  1  0  -0.552317  0  2.195525  0  0  -0.478568  0  2.430122  0  0  -0.502291  0  2.421022  0  0  -0.154435  -0.462111  0  2.435989  0
O  O77  1  0.15806447  0.15658553  0.66470916  1  0  -0.552586  0  2.195606  0  0  -0.478628  0  2.4301  0  0  -0.502363  0  2.42098  0  0  -0.154419  -0.462169  0  2.43597  0
O  O78  1  0.65806423  0.34341420  0.33528781  1  0  -0.552545  0  2.195766  0  0  -0.478597  0  2.430249  0  0  -0.502335  0  2.421127  0  0  -0.154411  -0.462115  0  2.436105  0
O  O79  1  0.84194164  0.84341230  0.16471188  1  0  -0.552357  0  2.195519  0  0  -0.478556  0  2.43008  0  0  -0.502281  0  2.420969  0  0  -0.15443  -0.4621  0  2.435948  0
F  F80  1  0.34442545  0.35101533  0.24999987  1  0  -0.503186  0  1.053024  0  0  -0.443868  0  1.237637  0  0  -0.457714  0  1.21722  0  0  -0.155725  -0.433882  0  1.251615  0
F  F81  1  0.15557689  0.85101606  0.25000268  1  0  -0.503198  0  1.053057  0  0  -0.443864  0  1.237641  0  0  -0.457703  0  1.217265  0  0  -0.155739  -0.433882  0  1.251611  0
F  F82  1  0.65557614  0.64898402  0.75000135  1  0  -0.50319  0  1.053028  0  0  -0.443879  0  1.237647  0  0  -0.457716  0  1.21727  0  0  -0.155749  -0.433891  0  1.251615  0
F  F83  1  0.84442621  0.14898500  0.74999926  1  0  -0.503243  0  1.052941  0  0  -0.443935  0  1.237586  0  0  -0.457783  0  1.217173  0  0  -0.155774  -0.433953  0  1.251568  0
F  F84  1  0.52718052  0.18358969  0.25000085  1  0  -0.499247  0  1.050832  0  0  -0.438375  0  1.232743  0  0  -0.452026  0  1.211857  0  0  -0.170505  -0.428507  0  1.246992  0
F  F85  1  0.97282602  0.68359000  0.25000082  1  0  -0.499212  0  1.050868  0  0  -0.438369  0  1.232777  0  0  -0.452008  0  1.211927  0  0  -0.170513  -0.428501  0  1.247017  0
F  F86  1  0.47282563  0.81640881  0.74999894  1  0  -0.499206  0  1.050864  0  0  -0.43835  0  1.232772  0  0  -0.451994  0  1.211928  0  0  -0.170491  -0.428487  0  1.247019  0
F  F87  1  0.02717708  0.31641020  0.74999897  1  0  -0.499225  0  1.050801  0  0  -0.438391  0  1.232736  0  0  -0.452041  0  1.21185  0  0  -0.170514  -0.428524  0  1.246984  0
