# generated using pymatgen
data_ZnH12C16N3O5
_symmetry_space_group_name_H-M   'P 1'
_cell_length_a   7.36605995
_cell_length_b   11.03000972
_cell_length_c   13.66701753
_cell_angle_alpha   66.29397718
_cell_angle_beta   77.78749766
_cell_angle_gamma   71.30924441
_symmetry_Int_Tables_number   1
_chemical_formula_structural   ZnH12C16N3O5
_chemical_formula_sum   'Zn2 H24 C32 N6 O10'
_cell_volume   958.70997234
_cell_formula_units_Z   2
loop_
 _symmetry_equiv_pos_site_id
 _symmetry_equiv_pos_as_xyz
  1  'x, y, z'
loop_
 _atom_site_type_symbol
 _atom_site_label
 _atom_site_symmetry_multiplicity
 _atom_site_fract_x
 _atom_site_fract_y
 _atom_site_fract_z
 _atom_site_occupancy
 _atom_site_pbe_bader_charge
 _atom_site_pbe_bader_spin_density
 _atom_site_pbe_cm5_charge
 _atom_site_pbe_ddec_charge
 _atom_site_pbe_ddec_spin_density
 _atom_site_pbe_ddec_sum_bond_order
 _atom_site_pbe_magmom
Zn  Zn0  1  0.00000359  0.50000078  0.99999861  1  1.277995  0  0.681901  0.687837  0  2.400283  0
Zn  Zn1  1  0.49999835  0.00000076  0.00000014  1  1.361377  0  0.696438  0.911224  0  2.309859  0
H  H2  1  0.93968057  0.28747386  0.22993031  1  0.175923  0  0.119148  0.108096  0  1.011663  0
H  H3  1  0.99727858  0.68557239  0.11285655  1  0.181086  0  0.118791  0.104692  0  1.04219  0
H  H4  1  0.95211469  0.26142288  0.41859926  1  0.079244  0  0.111602  0.120635  0  0.98112  0
H  H5  1  0.00786692  0.67781760  0.29460220  1  0.066608  0  0.10905  0.11455  0  1.005958  0
H  H6  1  0.90457159  0.91681799  0.97718112  1  0.647134  0  0.293348  0.400633  0  0.93229  0
H  H7  1  0.82050810  0.04999218  0.01275497  1  0.658383  0  0.290366  0.385898  0  0.961203  0
H  H8  1  0.98211438  0.35136685  0.54479001  1  0.044646  0  0.10592  0.103297  0  1.004144  0
H  H9  1  0.37610704  0.73390115  0.12586181  1  0.093958  0  0.115831  0.084474  0  1.033367  0
H  H10  1  0.60367094  0.96824650  0.21501820  1  0.142647  0  0.124902  0.111432  0  0.994472  0
H  H11  1  0.38319416  0.55518081  0.30873785  1  0.074214  0  0.10505  0.111502  0  1.018732  0
H  H12  1  0.60383918  0.80547860  0.40581076  1  0.054177  0  0.110473  0.118391  0  0.98574  0
H  H13  1  0.53230559  0.60105713  0.54225588  1  0.06761  0  0.104808  0.102604  0  1.001964  0
H  H14  1  0.06032952  0.71252058  0.77006800  1  0.176016  0  0.119116  0.108113  0  1.011646  0
H  H15  1  0.00272659  0.31442411  0.88714312  1  0.181054  0  0.118806  0.104732  0  1.042244  0
H  H16  1  0.04789225  0.73857260  0.58139908  1  0.079176  0  0.111603  0.120643  0  0.98114  0
H  H17  1  0.99213370  0.32217994  0.70539765  1  0.066492  0  0.109083  0.114615  0  1.00598  0
H  H18  1  0.09542440  0.08318470  0.02281687  1  0.647088  0  0.293378  0.400643  0  0.932259  0
H  H19  1  0.17948650  0.95001050  0.98724464  1  0.658389  0  0.290381  0.385899  0  0.961212  0
H  H20  1  0.01789256  0.64862861  0.45521053  1  0.044665  0  0.105945  0.103371  0  1.004134  0
H  H21  1  0.62389312  0.26610149  0.87413938  1  0.093967  0  0.115814  0.084457  0  1.033414  0
H  H22  1  0.39632848  0.03175821  0.78498022  1  0.142714  0  0.12486  0.111347  0  0.99456  0
H  H23  1  0.61680386  0.44482388  0.69126440  1  0.074671  0  0.105079  0.111533  0  1.018605  0
H  H24  1  0.39615810  0.19452816  0.59418944  1  0.054197  0  0.110485  0.118398  0  0.985784  0
H  H25  1  0.46768612  0.39894963  0.45774640  1  0.06768  0  0.104827  0.102586  0  1.001937  0
C  C26  1  0.65729752  0.72608248  0.95212079  1  1.639784  0  0.217376  0.551307  0  4.214558  0
C  C27  1  0.61860715  0.37139483  0.04258234  1  0.537394  0  0.130641  0.083466  0  3.877572  0
C  C28  1  0.57399945  0.60750310  0.97331424  1  0.503386  0  0.118697  0.042451  0  3.922032  0
C  C29  1  0.95655498  0.37087525  0.24805534  1  0.497078  0  0.049415  0.099549  0  3.919764  0
C  C30  1  0.98611517  0.59376500  0.18307347  1  0.472584  0  0.042641  0.092436  0  3.917133  0
C  C31  1  0.75339102  0.23062876  0.09284078  1  1.656452  0  0.202386  0.568495  0  4.299191  0
C  C32  1  0.96277314  0.35746780  0.35305733  1  -0.059145  0  -0.08234  -0.177027  0  3.928143  0
C  C33  1  0.99352980  0.58778105  0.28545234  1  -0.061632  0  -0.084285  -0.176411  0  3.941266  0
C  C34  1  0.98334699  0.46686873  0.37429811  1  -0.016602  0  0.000438  0.133114  0  4.052773  0
C  C35  1  0.99140116  0.45137032  0.48431721  1  -0.089792  0  -0.080496  -0.124115  0  3.976364  0
C  C36  1  0.43129529  0.74301065  0.18995507  1  0.491385  0  0.045709  0.095267  0  3.949701  0
C  C37  1  0.55471116  0.87574606  0.23988401  1  0.507343  0  0.057832  0.110351  0  3.912553  0
C  C38  1  0.43379815  0.64456890  0.29262068  1  -0.001053  0  -0.084955  -0.177581  0  3.936963  0
C  C39  1  0.55542651  0.78418974  0.34566834  1  0.023929  0  -0.082154  -0.182197  0  3.937934  0
C  C40  1  0.49782022  0.66348063  0.37417959  1  -0.080356  0  0.002245  0.137035  0  4.049157  0
C  C41  1  0.50789510  0.56477033  0.48375628  1  -0.101506  0  -0.080024  -0.12029  0  3.976086  0
C  C42  1  0.34270032  0.27391507  0.04787937  1  1.639794  0  0.217403  0.551373  0  4.214527  0
C  C43  1  0.38138754  0.62860374  0.95741931  1  0.537445  0  0.13064  0.083446  0  3.877484  0
C  C44  1  0.42599700  0.39249443  0.02668901  1  0.503389  0  0.1187  0.042387  0  3.922008  0
C  C45  1  0.04345158  0.62912125  0.75194344  1  0.497037  0  0.049446  0.099519  0  3.919702  0
C  C46  1  0.01389177  0.40623046  0.81692634  1  0.472259  0  0.042655  0.092413  0  3.917192  0
C  C47  1  0.24660887  0.76937084  0.90715630  1  1.656686  0  0.202315  0.568378  0  4.299421  0
C  C48  1  0.03723379  0.64252767  0.64694247  1  -0.058908  0  -0.082268  -0.176892  0  3.928159  0
C  C49  1  0.00647435  0.41221443  0.71454778  1  -0.061568  0  -0.08429  -0.176442  0  3.941443  0
C  C50  1  0.01665791  0.53312470  0.62570258  1  -0.016723  0  0.000384  0.133051  0  4.052879  0
C  C51  1  0.00860438  0.54862514  0.51568275  1  0.014027  0  -0.08054  -0.124311  0  3.976504  0
C  C52  1  0.56870171  0.25699303  0.81004615  1  0.491466  0  0.045691  0.095205  0  3.949783  0
C  C53  1  0.44528825  0.12425864  0.76011588  1  0.507252  0  0.057835  0.11039  0  3.912548  0
C  C54  1  0.56619709  0.35543581  0.70738114  1  -0.00098  0  -0.084898  -0.177464  0  3.936752  0
C  C55  1  0.44456975  0.21581599  0.65433231  1  0.024037  0  -0.082175  -0.182232  0  3.937929  0
C  C56  1  0.50217465  0.33652511  0.62582121  1  -0.080943  0  0.002248  0.137044  0  4.049011  0
C  C57  1  0.49209939  0.43523643  0.51624497  1  0.003485  0  -0.080001  -0.120165  0  3.975934  0
N  N58  1  0.68940387  0.48066679  0.01416137  1  -1.215993  0  -0.285957  -0.232567  0  3.442648  0
N  N59  1  0.96946369  0.48691324  0.16407723  1  -1.24487  0  -0.321141  -0.228663  0  3.523756  0
N  N60  1  0.49352995  0.85548080  0.16310024  1  -1.220446  0  -0.312473  -0.222082  0  3.500566  0
N  N61  1  0.31059221  0.51933177  0.98584159  1  -1.216036  0  -0.285931  -0.232529  0  3.442628  0
N  N62  1  0.03054501  0.51308119  0.83592271  1  -1.244503  0  -0.321196  -0.228738  0  3.523642  0
N  N63  1  0.50646919  0.14452082  0.83690066  1  -1.220591  0  -0.312476  -0.222092  0  3.500575  0
O  O64  1  0.83711492  0.70113828  0.95484065  1  -1.15585  0  -0.301989  -0.49449  0  2.351028  0
O  O65  1  0.53695462  0.84148057  0.93704023  1  -1.175519  0  -0.29384  -0.524319  0  2.361886  0
O  O66  1  0.86311061  0.18147767  0.02395694  1  -1.202006  0  -0.320657  -0.579901  0  2.287668  0
O  O67  1  0.74816785  0.18229527  0.19259585  1  -1.131029  0  -0.344029  -0.551207  0  2.041981  0
O  O68  1  0.78753852  0.97339384  0.00536239  1  -1.283254  0  -0.591532  -0.788333  0  2.185782  0
O  O69  1  0.16288432  0.29885929  0.04515568  1  -1.155906  0  -0.301998  -0.494525  0  2.351105  0
O  O70  1  0.46304183  0.15851697  0.06296155  1  -1.175555  0  -0.293842  -0.524337  0  2.361917  0
O  O71  1  0.13688363  0.81852607  0.97603725  1  -1.202174  0  -0.320662  -0.579901  0  2.287717  0
O  O72  1  0.25183946  0.81769918  0.80740131  1  -1.131117  0  -0.343977  -0.55112  0  2.042126  0
O  O73  1  0.21245756  0.02660473  0.99463984  1  -1.283264  0  -0.591575  -0.788346  0  2.185826  0
