# generated using pymatgen
data_ZnH12C15(NO)4
_symmetry_space_group_name_H-M   'P 1'
_cell_length_a   8.73782662
_cell_length_b   14.78743376
_cell_length_c   19.34000000
_cell_angle_alpha   90.00000000
_cell_angle_beta   90.00000000
_cell_angle_gamma   90.00000000
_symmetry_Int_Tables_number   1
_chemical_formula_structural   ZnH12C15(NO)4
_chemical_formula_sum   'Zn4 H48 C60 N16 O16'
_cell_volume   2498.92202512
_cell_formula_units_Z   4
loop_
 _symmetry_equiv_pos_site_id
 _symmetry_equiv_pos_as_xyz
  1  'x, y, z'
loop_
 _atom_site_type_symbol
 _atom_site_label
 _atom_site_symmetry_multiplicity
 _atom_site_fract_x
 _atom_site_fract_y
 _atom_site_fract_z
 _atom_site_occupancy
 _atom_site_hle17_bader_spin_density
 _atom_site_hle17_ddec_charge
 _atom_site_hle17_ddec_spin_density
 _atom_site_hle17_ddec_sum_bond_order
 _atom_site_hle17_magmom
 _atom_site_hse06_10hf_bader_spin_density
 _atom_site_hse06_10hf_ddec_charge
 _atom_site_hse06_10hf_ddec_spin_density
 _atom_site_hse06_10hf_ddec_sum_bond_order
 _atom_site_hse06_10hf_magmom
 _atom_site_hse06_bader_spin_density
 _atom_site_hse06_ddec_charge
 _atom_site_hse06_ddec_spin_density
 _atom_site_hse06_ddec_sum_bond_order
 _atom_site_hse06_magmom
 _atom_site_pbe_bader_charge
 _atom_site_pbe_bader_spin_density
 _atom_site_pbe_cm5_charge
 _atom_site_pbe_ddec_charge
 _atom_site_pbe_ddec_spin_density
 _atom_site_pbe_ddec_sum_bond_order
 _atom_site_pbe_magmom
Zn  Zn0  1  0.63284501  0.95533209  0.07301448  1  0  0.994429  0  1.918491  0  0  0.79789  0  2.411731  0  0  0.844031  0  2.355631  0  1.246867  0  0.69932  0.765715  0  2.450337  0
Zn  Zn1  1  0.86715843  0.04466630  0.57301396  1  0  0.994427  0  1.918476  0  0  0.797898  0  2.4117  0  0  0.84404  0  2.355603  0  1.246863  0  0.699308  0.765726  0  2.450308  0
Zn  Zn2  1  0.13284310  0.54466719  0.92698552  1  0  0.994434  0  1.918494  0  0  0.797894  0  2.411736  0  0  0.844034  0  2.355636  0  1.246859  0  0.699329  0.765719  0  2.450343  0
Zn  Zn3  1  0.36715423  0.45533391  0.42698604  1  0  0.994524  0  1.91832  0  0  0.797969  0  2.411601  0  0  0.844114  0  2.355434  0  1.246803  0  0.69935  0.765793  0  2.450127  0
H  H4  1  0.28412214  0.12696185  0.50374302  1  0  0.12146  0  0.954069  0  0  0.13031  0  1.013568  0  0  0.133253  0  1.014202  0  0.08725  0  0.110662  0.128164  0  1.013357  0
H  H5  1  0.21587863  0.87303857  0.00374250  1  0  0.121492  0  0.954003  0  0  0.130312  0  1.013537  0  0  0.133254  0  1.01417  0  0.087241  0  0.110665  0.128166  0  1.013324  0
H  H6  1  0.78412405  0.37303836  0.49625853  1  0  0.121405  0  0.954014  0  0  0.130224  0  1.013564  0  0  0.133199  0  1.01415  0  0.087279  0  0.110644  0.128112  0  1.013308  0
H  H7  1  0.71587825  0.62696004  0.99625750  1  0  0.121462  0  0.954016  0  0  0.130311  0  1.013519  0  0  0.133254  0  1.01415  0  0.087216  0  0.110664  0.128165  0  1.013308  0
H  H8  1  0.85942996  0.96982345  0.31311272  1  0  0.138159  0  0.953942  0  0  0.146329  0  1.011568  0  0  0.151279  0  1.009049  0  0.148678  0  0.112007  0.142751  0  1.013525  0
H  H9  1  0.64057119  0.03017697  0.81311272  1  0  0.138144  0  0.953968  0  0  0.146296  0  1.011611  0  0  0.151245  0  1.009095  0  0.148687  0  0.112001  0.142719  0  1.013567  0
H  H10  1  0.35942920  0.53017448  0.68688728  1  0  0.138142  0  0.95397  0  0  0.146307  0  1.01155  0  0  0.151263  0  1.009049  0  0.148707  0  0.111992  0.142729  0  1.013562  0
H  H11  1  0.14057042  0.46982324  0.18688780  1  0  0.138153  0  0.953953  0  0  0.146304  0  1.011598  0  0  0.151253  0  1.009081  0  0.148682  0  0.112002  0.142727  0  1.013555  0
H  H12  1  0.24564575  0.29379405  0.50292761  1  0  0.08163  0  0.957405  0  0  0.087702  0  1.024887  0  0  0.090058  0  1.022811  0  0.12173  0  0.113581  0.085921  0  1.026447  0
H  H13  1  0.25435501  0.70620638  0.00292658  1  0  0.081584  0  0.957447  0  0  0.087664  0  1.024947  0  0  0.090016  0  1.022854  0  0.121747  0  0.113577  0.085885  0  1.026477  0
H  H14  1  0.74564881  0.20620616  0.49707291  1  0  0.081627  0  0.957408  0  0  0.087713  0  1.024866  0  0  0.090064  0  1.022805  0  0.121707  0  0.11361  0.085935  0  1.026427  0
H  H15  1  0.75435578  0.79379223  0.99707394  1  0  0.081614  0  0.95743  0  0  0.087695  0  1.024932  0  0  0.090047  0  1.02284  0  0.121772  0  0.11359  0.085914  0  1.026461  0
H  H16  1  0.15893769  0.86781048  0.41576577  1  0  0.125036  0  0.892294  0  0  0.146803  0  0.935373  0  0  0.148365  0  0.935554  0  0.065962  0  0.11861  0.145807  0  0.935239  0
H  H17  1  0.34106536  0.13218724  0.91576629  1  0  0.124998  0  0.892253  0  0  0.146775  0  0.935321  0  0  0.148341  0  0.9355  0  0.065843  0  0.118592  0.145772  0  0.935185  0
H  H18  1  0.65893617  0.63218948  0.58423423  1  0  0.124995  0  0.892349  0  0  0.146776  0  0.935393  0  0  0.148338  0  0.935593  0  0.065951  0  0.118594  0.145779  0  0.935282  0
H  H19  1  0.84106269  0.36781230  0.08423320  1  0  0.125023  0  0.892333  0  0  0.146796  0  0.935403  0  0  0.14836  0  0.935582  0  0.06584  0  0.118601  0.145796  0  0.935268  0
H  H20  1  0.22043926  0.97470665  0.38493123  1  0  0.105096  0  0.938303  0  0  0.114659  0  1.004049  0  0  0.117697  0  1.001993  0  0.065469  0  0.100477  0.112471  0  1.005908  0
H  H21  1  0.27956151  0.02529174  0.88493226  1  0  0.105067  0  0.938317  0  0  0.114618  0  1.004076  0  0  0.11766  0  1.00202  0  0.065529  0  0.100442  0.112425  0  1.005931  0
H  H22  1  0.72043544  0.52529331  0.61506825  1  0  0.105077  0  0.938278  0  0  0.114482  0  1.004462  0  0  0.117673  0  1.001973  0  0.065494  0  0.100466  0.112446  0  1.005898  0
H  H23  1  0.77955884  0.47470779  0.11506722  1  0  0.105114  0  0.938274  0  0  0.114676  0  1.004029  0  0  0.117716  0  1.001971  0  0.065482  0  0.100466  0.112483  0  1.005886  0
H  H24  1  0.85755535  0.95797352  0.18385522  1  0  0.088123  0  0.93068  0  0  0.098376  0  0.987913  0  0  0.101186  0  0.984825  0  0.132086  0  0.119838  0.096259  0  0.990203  0
H  H25  1  0.64244694  0.04202758  0.68385574  1  0  0.08813  0  0.930698  0  0  0.098399  0  0.987912  0  0  0.101208  0  0.984825  0  0.132079  0  0.119861  0.096282  0  0.990203  0
H  H26  1  0.35755459  0.54202441  0.81614478  1  0  0.088135  0  0.930687  0  0  0.098376  0  0.98793  0  0  0.101184  0  0.984842  0  0.13209  0  0.119835  0.096259  0  0.990222  0
H  H27  1  0.14244503  0.45797331  0.31614478  1  0  0.088137  0  0.930646  0  0  0.098388  0  0.987875  0  0  0.101197  0  0.984792  0  0.132082  0  0.119853  0.09627  0  0.990172  0
H  H28  1  0.64267698  0.16724538  0.35160083  1  0  0.124252  0  0.950294  0  0  0.134615  0  1.004797  0  0  0.138169  0  1.004207  0  0.095688  0  0.11602  0.132077  0  1.005363  0
H  H29  1  0.85732189  0.83275504  0.85160031  1  0  0.124251  0  0.950256  0  0  0.134594  0  1.004785  0  0  0.138146  0  1.004197  0  0.095677  0  0.116013  0.132056  0  1.00535  0
H  H30  1  0.14267850  0.33275551  0.64840072  1  0  0.12422  0  0.950306  0  0  0.134551  0  1.004829  0  0  0.138137  0  1.004197  0  0.095617  0  0.116002  0.132036  0  1.005394  0
H  H31  1  0.35732227  0.66724356  0.14840021  1  0  0.124249  0  0.950279  0  0  0.13459  0  1.004809  0  0  0.138142  0  1.00422  0  0.095641  0  0.116005  0.132052  0  1.005373  0
H  H32  1  0.58739435  0.33058812  0.35695450  1  0  0.074095  0  0.929212  0  0  0.085864  0  0.985861  0  0  0.088105  0  0.983801  0  0.090196  0  0.118831  0.084189  0  0.987339  0
H  H33  1  0.91260566  0.66941230  0.85695502  1  0  0.074098  0  0.929242  0  0  0.085884  0  0.98587  0  0  0.088126  0  0.983809  0  0.090209  0  0.118847  0.084209  0  0.987347  0
H  H34  1  0.08739473  0.16941344  0.64304705  1  0  0.07407  0  0.929267  0  0  0.08584  0  0.98589  0  0  0.088082  0  0.983853  0  0.0901  0  0.118826  0.084166  0  0.987391  0
H  H35  1  0.41260718  0.83058631  0.14304654  1  0  0.074105  0  0.929215  0  0  0.085873  0  0.985869  0  0  0.088115  0  0.983807  0  0.09021  0  0.118831  0.084198  0  0.987346  0
H  H36  1  0.39386453  0.01664319  0.17424199  1  0  0.086619  0  0.916425  0  0  0.099853  0  0.968966  0  0  0.102541  0  0.966214  0  0.09879  0  0.123823  0.097823  0  0.97096  0
H  H37  1  0.10613509  0.98335588  0.67424199  1  0  0.086663  0  0.916376  0  0  0.099868  0  0.968947  0  0  0.102556  0  0.966197  0  0.098785  0  0.123841  0.097843  0  0.970942  0
H  H38  1  0.89386187  0.48335703  0.82575750  1  0  0.086663  0  0.916366  0  0  0.099861  0  0.968905  0  0  0.102548  0  0.966193  0  0.098779  0  0.123831  0.097832  0  0.970935  0
H  H39  1  0.60613471  0.51664475  0.32575801  1  0  0.086663  0  0.916382  0  0  0.099868  0  0.968952  0  0  0.102555  0  0.966203  0  0.098791  0  0.123836  0.097843  0  0.970948  0
H  H40  1  0.37594131  0.03303954  0.30191624  1  0  0.11797  0  0.960372  0  0  0.125714  0  1.022082  0  0  0.129663  0  1.02077  0  0.083371  0  0.109344  0.122727  0  1.023664  0
H  H41  1  0.12405717  0.96696088  0.80191624  1  0  0.11797  0  0.96035  0  0  0.125719  0  1.022056  0  0  0.129667  0  1.020744  0  0.083376  0  0.109339  0.122731  0  1.023638  0
H  H42  1  0.87593864  0.46696473  0.69808273  1  0  0.11796  0  0.960336  0  0  0.12552  0  1.022571  0  0  0.129661  0  1.020723  0  0.083347  0  0.109327  0.122723  0  1.02363  0
H  H43  1  0.62405679  0.53303840  0.19808428  1  0  0.118  0  0.960329  0  0  0.125749  0  1.022034  0  0  0.129698  0  1.020722  0  0.083403  0  0.109359  0.122761  0  1.023617  0
H  H44  1  0.72006350  0.01125212  0.41519390  1  0  0.304058  0  0.910576  0  0  0.279332  0  0.987592  0  0  0.287635  0  0.980217  0  0.539403  0  0.312033  0.273287  0  0.993155  0
H  H45  1  0.77993651  0.98874830  0.91519390  1  0  0.304065  0  0.910563  0  0  0.27934  0  0.987579  0  0  0.287642  0  0.980205  0  0.539397  0  0.312036  0.273295  0  0.993142  0
H  H46  1  0.22006273  0.48874809  0.58480558  1  0  0.304053  0  0.910579  0  0  0.279171  0  0.987987  0  0  0.289559  0  0.977154  0  0.539399  0  0.312031  0.273279  0  0.993165  0
H  H47  1  0.27993574  0.51125030  0.08480610  1  0  0.304049  0  0.910591  0  0  0.279299  0  0.987618  0  0  0.287602  0  0.980244  0  0.539389  0  0.312039  0.273255  0  0.993179  0
H  H48  1  0.29992813  0.89425929  0.52978283  1  0  0.113132  0  0.921217  0  0  0.123813  0  0.978202  0  0  0.126811  0  0.975696  0  0.117164  0  0.114741  0.121578  0  0.980161  0
H  H49  1  0.20007492  0.10574046  0.02978335  1  0  0.113094  0  0.921261  0  0  0.123792  0  0.97823  0  0  0.126791  0  0.975722  0  0.117144  0  0.114738  0.121557  0  0.98019  0
H  H50  1  0.79992775  0.60574067  0.47021665  1  0  0.113099  0  0.921238  0  0  0.123756  0  0.978202  0  0  0.126754  0  0.975746  0  0.11716  0  0.114733  0.121522  0  0.980208  0
H  H51  1  0.70007226  0.39425908  0.97021562  1  0  0.113077  0  0.921251  0  0  0.123755  0  0.978241  0  0  0.126753  0  0.975734  0  0.11712  0  0.114708  0.12152  0  0.9802  0
C  C52  1  0.31639561  0.93482955  0.48324974  1  0  -0.002006  0  3.658365  0  0  -0.036734  0  3.926491  0  0  -0.031368  0  3.941237  0  0.027573  0  -0.062387  -0.040837  0  3.918719  0
C  C53  1  0.18360515  0.06517020  0.98325078  1  0  -0.00195  0  3.658347  0  0  -0.03668  0  3.926485  0  0  -0.031312  0  3.941234  0  0.027561  0  -0.062336  -0.040793  0  3.918703  0
C  C54  1  0.81639294  0.56517041  0.51675026  1  0  -0.001922  0  3.658368  0  0  -0.037131  0  3.928442  0  0  -0.03127  0  3.941215  0  0.027567  0  -0.062355  -0.040742  0  3.91872  0
C  C55  1  0.68360363  0.43482866  0.01674871  1  0  -0.00196  0  3.658324  0  0  -0.036663  0  3.926469  0  0  -0.031298  0  3.941216  0  0.027749  0  -0.062329  -0.040771  0  3.918687  0
C  C56  1  0.61635808  0.00010482  0.31849121  1  0  0.299571  0  3.834137  0  0  0.282824  0  4.092593  0  0  0.29987  0  4.108415  0  0.453247  0  0.126502  0.271126  0  4.083149  0
C  C57  1  0.88364193  0.99989493  0.81849121  1  0  0.299563  0  3.834102  0  0  0.28281  0  4.092567  0  0  0.299856  0  4.108388  0  0.453239  0  0.126496  0.271113  0  4.083122  0
C  C58  1  0.11635845  0.49989472  0.68150879  1  0  0.299652  0  3.83401  0  0  0.282387  0  4.09419  0  0  0.299879  0  4.108618  0  0.453238  0  0.126519  0.271167  0  4.083083  0
C  C59  1  0.38364117  0.50010503  0.18150931  1  0  0.299581  0  3.834083  0  0  0.282766  0  4.092597  0  0  0.299812  0  4.108419  0  0.453207  0  0.126484  0.27107  0  4.083149  0
C  C60  1  0.44675640  0.98248555  0.48095863  1  0  -0.041006  0  3.734494  0  0  -0.048085  0  4.002322  0  0  -0.052997  0  4.02349  0  0.263576  0  0.063598  -0.050672  0  3.985201  0
C  C61  1  0.05324551  0.01751487  0.98095915  1  0  -0.04095  0  3.734346  0  0  -0.048093  0  4.002246  0  0  -0.053002  0  4.023411  0  0.263613  0  0.063602  -0.050675  0  3.985124  0
C  C62  1  0.94675030  0.51751576  0.51904137  1  0  -0.041005  0  3.73443  0  0  -0.05372  0  3.999095  0  0  -0.052983  0  4.023351  0  0.26354  0  0.063591  -0.050661  0  3.985135  0
C  C63  1  0.55324398  0.48248466  0.01903981  1  0  -0.040928  0  3.734432  0  0  -0.048094  0  4.002305  0  0  -0.053006  0  4.023474  0  0.263573  0  0.063585  -0.050674  0  3.985191  0
C  C64  1  0.46612621  0.13170575  0.42673423  1  0  0.247246  0  3.77794  0  0  0.228237  0  4.039553  0  0  0.244371  0  4.054589  0  0.424298  0  0.124908  0.211555  0  4.026766  0
C  C65  1  0.03387341  0.86829468  0.92673423  1  0  0.247213  0  3.777952  0  0  0.228212  0  4.039547  0  0  0.244344  0  4.054588  0  0.424473  0  0.124904  0.211533  0  4.02676  0
C  C66  1  0.96612812  0.36829446  0.57326732  1  0  0.247297  0  3.777879  0  0  0.222201  0  4.036925  0  0  0.244409  0  4.054477  0  0.424642  0  0.124962  0.211594  0  4.026723  0
C  C67  1  0.53387074  0.63170393  0.07326525  1  0  0.247197  0  3.777906  0  0  0.228144  0  4.039538  0  0  0.244286  0  4.054561  0  0.424245  0  0.124857  0.211472  0  4.026752  0
C  C68  1  0.35340367  0.16969205  0.47022389  1  0  -0.218886  0  3.702461  0  0  -0.235687  0  3.952788  0  0  -0.247221  0  3.972691  0  -0.03064  0  -0.094836  -0.228819  0  3.941475  0
C  C69  1  0.14659710  0.83030837  0.97022389  1  0  -0.218917  0  3.702373  0  0  -0.235692  0  3.952708  0  0  -0.247227  0  3.97261  0  -0.030821  0  -0.094836  -0.228824  0  3.941392  0
C  C70  1  0.85340444  0.33030748  0.52977663  1  0  -0.218894  0  3.702289  0  0  -0.236155  0  3.954526  0  0  -0.247219  0  3.972515  0  -0.030804  0  -0.094862  -0.228816  0  3.941311  0
C  C71  1  0.64659557  0.66969091  0.02977559  1  0  -0.218916  0  3.702272  0  0  -0.235714  0  3.952632  0  0  -0.247251  0  3.97253  0  -0.030653  0  -0.094845  -0.228847  0  3.941315  0
C  C72  1  0.75410057  0.97851394  0.28365667  1  0  -0.2294  0  3.693753  0  0  -0.242565  0  3.938038  0  0  -0.255095  0  3.957273  0  0.051867  0  -0.095844  -0.234544  0  3.925142  0
C  C73  1  0.74590059  0.02148649  0.78365719  1  0  -0.229391  0  3.693745  0  0  -0.242542  0  3.938053  0  0  -0.255072  0  3.957288  0  0.051862  0  -0.095848  -0.23452  0  3.925157  0
C  C74  1  0.25409980  0.52148467  0.71634333  1  0  -0.229419  0  3.693647  0  0  -0.24257  0  3.937844  0  0  -0.255097  0  3.957131  0  0.051854  0  -0.095844  -0.234544  0  3.925062  0
C  C75  1  0.24589982  0.47851372  0.21634281  1  0  -0.229468  0  3.693618  0  0  -0.242608  0  3.937942  0  0  -0.255136  0  3.957176  0  0.051859  0  -0.095883  -0.234586  0  3.925047  0
C  C76  1  0.33200247  0.26233355  0.47014219  1  0  0.148473  0  3.726438  0  0  0.119157  0  3.972419  0  0  0.129687  0  3.988539  0  0.492306  0  0.043644  0.112347  0  3.961359  0
C  C77  1  0.16799944  0.73766755  0.97014219  1  0  0.148551  0  3.726378  0  0  0.119227  0  3.972382  0  0  0.129757  0  3.988486  0  0.492281  0  0.043672  0.112414  0  3.961301  0
C  C78  1  0.83200552  0.23766734  0.52985884  1  0  0.148515  0  3.726342  0  0  0.11921  0  3.97226  0  0  0.129742  0  3.988462  0  0.492053  0  0.043662  0.112398  0  3.961278  0
C  C79  1  0.66799677  0.76233173  0.02985832  1  0  0.148552  0  3.726318  0  0  0.119228  0  3.972327  0  0  0.129755  0  3.988436  0  0.492476  0  0.043681  0.112418  0  3.961244  0
C  C80  1  0.18998317  0.93701113  0.43183971  1  0  -0.26459  0  3.720673  0  0  -0.301289  0  3.970958  0  0  -0.307269  0  3.978136  0  -0.021889  0  -0.157438  -0.297516  0  3.966505  0
C  C81  1  0.31001874  0.06298591  0.93184023  1  0  -0.264557  0  3.72057  0  0  -0.301229  0  3.970829  0  0  -0.307222  0  3.978025  0  -0.021907  0  -0.157404  -0.297427  0  3.96634  0
C  C82  1  0.68997821  0.56298883  0.56815977  1  0  -0.264501  0  3.720523  0  0  -0.301394  0  3.971217  0  0  -0.307187  0  3.977939  0  -0.021943  0  -0.157401  -0.297433  0  3.966359  0
C  C83  1  0.81001722  0.43701227  0.06815874  1  0  -0.264626  0  3.720613  0  0  -0.301332  0  3.970896  0  0  -0.307315  0  3.978075  0  -0.021846  0  -0.157411  -0.297538  0  3.966418  0
C  C84  1  0.04326476  0.97902247  0.46216029  1  0  0.699608  0  3.863099  0  0  0.658137  0  4.158964  0  0  0.690633  0  4.153691  0  1.596533  0  0.209897  0.63606  0  4.161524  0
C  C85  1  0.45673944  0.02097592  0.96216132  1  0  0.699608  0  3.863101  0  0  0.658128  0  4.158982  0  0  0.690625  0  4.153711  0  1.596618  0  0.209942  0.636043  0  4.16154  0
C  C86  1  0.54326210  0.52097816  0.53783868  1  0  0.699575  0  3.863176  0  0  0.658123  0  4.158909  0  0  0.690621  0  4.153774  0  1.596501  0  0.209917  0.636045  0  4.161578  0
C  C87  1  0.95673448  0.47902362  0.03783816  1  0  0.699679  0  3.862905  0  0  0.658224  0  4.15875  0  0  0.690719  0  4.153476  0  1.596261  0  0.209904  0.63614  0  4.161313  0
C  C88  1  0.75291949  0.97164797  0.21269286  1  0  0.145228  0  3.748689  0  0  0.111899  0  3.99968  0  0  0.122218  0  4.017201  0  0.367846  0  0.041293  0.105327  0  3.987507  0
C  C89  1  0.74708166  0.02835178  0.71269286  1  0  0.145256  0  3.748639  0  0  0.111908  0  3.999629  0  0  0.122229  0  4.017148  0  0.3678  0  0.041309  0.105337  0  3.987456  0
C  C90  1  0.25291873  0.52835063  0.78730765  1  0  0.145231  0  3.748572  0  0  0.11191  0  3.999501  0  0  0.122232  0  4.01707  0  0.367783  0  0.041314  0.105337  0  3.987396  0
C  C91  1  0.24707975  0.47164844  0.28730765  1  0  0.145283  0  3.748532  0  0  0.111951  0  3.999509  0  0  0.122272  0  4.017033  0  0.367862  0  0.041335  0.105379  0  3.987341  0
C  C92  1  0.55260424  0.19172968  0.38549948  1  0  -0.224787  0  3.730484  0  0  -0.243633  0  3.988027  0  0  -0.253926  0  4.006195  0  0.023258  0  -0.09609  -0.237529  0  3.977713  0
C  C93  1  0.94739577  0.80827006  0.88549948  1  0  -0.224697  0  3.730522  0  0  -0.243533  0  3.988069  0  0  -0.253825  0  4.006237  0  0.023261  0  -0.096044  -0.237427  0  3.97775  0
C  C94  1  0.05260576  0.30827053  0.61450259  1  0  -0.224748  0  3.730561  0  0  -0.244021  0  3.989861  0  0  -0.253869  0  4.006191  0  0.023296  0  -0.096092  -0.23748  0  3.977779  0
C  C95  1  0.44739501  0.69172854  0.11450052  1  0  -0.224791  0  3.73053  0  0  -0.24361  0  3.988078  0  0  -0.253905  0  4.006241  0  0.023339  0  -0.096085  -0.237505  0  3.977758  0
C  C96  1  0.52236674  0.28330271  0.38879731  1  0  0.135902  0  3.767581  0  0  0.106704  0  4.016246  0  0  0.116108  0  4.034034  0  0.435269  0  0.042382  0.100673  0  4.003969  0
C  C97  1  0.97763212  0.71669772  0.88879835  1  0  0.135771  0  3.767736  0  0  0.106559  0  4.016401  0  0  0.115962  0  4.034185  0  0.435263  0  0.042284  0.100529  0  4.004118  0
C  C98  1  0.02236941  0.21669818  0.61120372  1  0  0.135824  0  3.767696  0  0  0.106643  0  4.01627  0  0  0.116051  0  4.034151  0  0.435309  0  0.042344  0.100615  0  4.00409  0
C  C99  1  0.47763250  0.78330156  0.11120269  1  0  0.135865  0  3.767633  0  0  0.106656  0  4.016293  0  0  0.116061  0  4.034074  0  0.435269  0  0.042353  0.100626  0  4.00401  0
C  C100  1  0.49381387  0.00523147  0.20699586  1  0  0.134032  0  3.770209  0  0  0.103157  0  4.02133  0  0  0.113226  0  4.039353  0  0.430763  0  0.040033  0.096755  0  4.008782  0
C  C101  1  0.00618689  0.99476828  0.70699586  1  0  0.133969  0  3.770193  0  0  0.103113  0  4.021307  0  0  0.113182  0  4.03933  0  0.430775  0  0.039996  0.096706  0  4.008765  0
C  C102  1  0.99381235  0.49477009  0.79300362  1  0  0.133976  0  3.770169  0  0  0.103134  0  4.021194  0  0  0.113206  0  4.039293  0  0.430749  0  0.040027  0.096734  0  4.008733  0
C  C103  1  0.50618537  0.50523236  0.29300465  1  0  0.134009  0  3.770133  0  0  0.103155  0  4.02124  0  0  0.113224  0  4.039262  0  0.430757  0  0.040056  0.096747  0  4.008699  0
C  C104  1  0.48387319  0.01410522  0.27797828  1  0  -0.24792  0  3.745275  0  0  -0.268735  0  4.005855  0  0  -0.280916  0  4.026004  0  0.027882  0  -0.106005  -0.261216  0  3.993108  0
C  C105  1  0.01612758  0.98589453  0.77797828  1  0  -0.247894  0  3.745185  0  0  -0.268708  0  4.005752  0  0  -0.28089  0  4.025901  0  0.02787  0  -0.105987  -0.26119  0  3.993007  0
C  C106  1  0.98387166  0.48589567  0.72202120  1  0  -0.247963  0  3.745175  0  0  -0.269121  0  4.006624  0  0  -0.280954  0  4.025853  0  0.027888  0  -0.106016  -0.261255  0  3.993018  0
C  C107  1  0.51612491  0.51410475  0.22202223  1  0  -0.247959  0  3.745183  0  0  -0.268775  0  4.005788  0  0  -0.280956  0  4.025936  0  0.027898  0  -0.106035  -0.261257  0  3.993043  0
C  C108  1  0.56117731  0.98237870  0.53949173  1  0  0.618387  0  3.974763  0  0  0.570582  0  4.273228  0  0  0.604184  0  4.265938  0  1.573581  0  0.193323  0.547428  0  4.278602  0
C  C109  1  0.93882728  0.01762104  0.03949328  1  0  0.618324  0  3.974686  0  0  0.570545  0  4.273148  0  0  0.604146  0  4.26586  0  1.573717  0  0.193254  0.54739  0  4.278522  0
C  C110  1  0.06117654  0.51761922  0.46051086  1  0  0.61842  0  3.974634  0  0  0.570276  0  4.274148  0  0  0.604186  0  4.265811  0  1.573709  0  0.193326  0.547428  0  4.278503  0
C  C111  1  0.43882537  0.48238120  0.96050620  1  0  0.618385  0  3.974616  0  0  0.570604  0  4.273079  0  0  0.604205  0  4.265789  0  1.573719  0  0.193303  0.547451  0  4.278451  0
N  N112  1  0.61768106  0.00913546  0.38833609  1  0  -0.309627  0  3.324767  0  0  -0.265266  0  3.566833  0  0  -0.281993  0  3.578307  0  -0.909797  0  -0.310729  -0.259278  0  3.553685  0
N  N113  1  0.88231895  0.99086496  0.88833609  1  0  -0.309652  0  3.324773  0  0  -0.265287  0  3.566836  0  0  -0.282015  0  3.578311  0  -0.909797  0  -0.31073  -0.259298  0  3.553691  0
N  N114  1  0.11768144  0.49086475  0.61166391  1  0  -0.309648  0  3.32474  0  0  -0.271171  0  3.56184  0  0  -0.283287  0  3.576495  0  -0.909666  0  -0.310727  -0.259281  0  3.553675  0
N  N115  1  0.38231818  0.50913432  0.11166443  1  0  -0.309607  0  3.324847  0  0  -0.265166  0  3.566836  0  0  -0.281892  0  3.578312  0  -0.90961  0  -0.310724  -0.259168  0  3.553696  0
N  N116  1  0.48751368  0.03928335  0.42323475  1  0  -0.064711  0  3.443918  0  0  -0.002693  0  3.67479  0  0  -0.016515  0  3.698312  0  -0.838797  0  -0.16809  0.02759  0  3.629102  0
N  N117  1  0.01248594  0.96071707  0.92323526  1  0  -0.064671  0  3.443908  0  0  -0.002634  0  3.674783  0  0  -0.016456  0  3.698307  0  -0.838819  0  -0.168056  0.027642  0  3.629106  0
N  N118  1  0.98751330  0.46071618  0.57676577  1  0  -0.06472  0  3.44386  0  0  0.018628  0  3.644507  0  0  -0.016562  0  3.698638  0  -0.839145  0  -0.168085  0.027572  0  3.629088  0
N  N119  1  0.51248327  0.53928221  0.07676422  1  0  -0.064703  0  3.444014  0  0  -0.002579  0  3.674725  0  0  -0.016404  0  3.698247  0  -0.838997  0  -0.168011  0.027673  0  3.629073  0
N  N120  1  0.41399082  0.31949492  0.43006050  1  0  -0.364948  0  3.319526  0  0  -0.283992  0  3.601276  0  0  -0.304356  0  3.614148  0  -1.272917  0  -0.350132  -0.270401  0  3.59225  0
N  N121  1  0.08600995  0.68050550  0.93006101  1  0  -0.364906  0  3.319515  0  0  -0.283941  0  3.601273  0  0  -0.304303  0  3.614139  0  -1.272851  0  -0.350124  -0.27035  0  3.592232  0
N  N122  1  0.91399502  0.18050461  0.56994002  1  0  -0.364858  0  3.319405  0  0  -0.283958  0  3.601111  0  0  -0.304321  0  3.614091  0  -1.272505  0  -0.350126  -0.270367  0  3.592188  0
N  N123  1  0.58600957  0.81949378  0.06994002  1  0  -0.364927  0  3.319521  0  0  -0.283959  0  3.601281  0  0  -0.304323  0  3.614148  0  -1.273008  0  -0.350129  -0.270368  0  3.59224  0
N  N124  1  0.62518521  0.98400373  0.17394571  1  0  -0.378669  0  3.351677  0  0  -0.295057  0  3.643993  0  0  -0.317006  0  3.656511  0  -1.274461  0  -0.360211  -0.280337  0  3.635099  0
N  N125  1  0.87481594  0.01599601  0.67394571  1  0  -0.378683  0  3.351658  0  0  -0.295055  0  3.643955  0  0  -0.317004  0  3.656472  0  -1.274396  0  -0.360213  -0.280337  0  3.635063  0
N  N126  1  0.12518330  0.51599487  0.82605429  1  0  -0.378637  0  3.351664  0  0  -0.295021  0  3.643908  0  0  -0.316969  0  3.656474  0  -1.274361  0  -0.3602  -0.280301  0  3.63507  0
N  N127  1  0.37481403  0.48400487  0.32605481  1  0  -0.3787  0  3.351675  0  0  -0.295067  0  3.64396  0  0  -0.317017  0  3.656478  0  -1.274478  0  -0.360255  -0.280346  0  3.635072  0
O  O128  1  0.03952585  0.98261674  0.52906205  1  0  -0.660952  0  2.033835  0  0  -0.585452  0  2.303875  0  0  -0.615207  0  2.287869  0  -1.171469  0  -0.340054  -0.564422  0  2.313954  0
O  O129  1  0.46047492  0.01738300  0.02906360  1  0  -0.6609  0  2.033808  0  0  -0.585426  0  2.303868  0  0  -0.615181  0  2.287863  0  -1.171396  0  -0.340074  -0.564395  0  2.313947  0
O  O130  1  0.53952547  0.51738457  0.47093640  1  0  -0.660966  0  2.033859  0  0  -0.585492  0  2.303881  0  0  -0.615242  0  2.287838  0  -1.171402  0  -0.340094  -0.56446  0  2.313978  0
O  O131  1  0.96047111  0.48262059  0.97093588  1  0  -0.660887  0  2.033739  0  0  -0.585414  0  2.303794  0  0  -0.615165  0  2.287783  0  -1.171221  0  -0.340052  -0.564384  0  2.313877  0
O  O132  1  0.94108185  0.00593206  0.42205326  1  0  -0.627372  0  1.929847  0  0  -0.584525  0  2.146352  0  0  -0.608191  0  2.137148  0  -1.202976  0  -0.325131  -0.567566  0  2.151867  0
O  O133  1  0.55892160  0.99406565  0.92205584  1  0  -0.62741  0  1.929862  0  0  -0.584554  0  2.146366  0  0  -0.608218  0  2.13716  0  -1.203024  0  -0.325182  -0.567596  0  2.151885  0
O  O134  1  0.44107765  0.49406747  0.57794364  1  0  -0.62736  0  1.929907  0  0  -0.584514  0  2.146378  0  0  -0.608698  0  2.137317  0  -1.202983  0  -0.325136  -0.567554  0  2.151918  0
O  O135  1  0.05891740  0.50593498  0.07794519  1  0  -0.627465  0  1.929785  0  0  -0.58462  0  2.146281  0  0  -0.608285  0  2.137075  0  -1.20297  0  -0.325165  -0.567661  0  2.1518  0
O  O136  1  0.54703535  0.93215227  0.59026060  1  0  -0.592183  0  1.87087  0  0  -0.557482  0  2.06363  0  0  -0.578782  0  2.055547  0  -1.160444  0  -0.339774  -0.542655  0  2.068787  0
O  O137  1  0.95296695  0.06784815  0.09026112  1  0  -0.592174  0  1.870896  0  0  -0.557475  0  2.063653  0  0  -0.578777  0  2.055571  0  -1.160503  0  -0.339771  -0.542649  0  2.068811  0
O  O138  1  0.04702886  0.56784904  0.40973526  1  0  -0.59229  0  1.870494  0  0  -0.557588  0  2.063231  0  0  -0.578893  0  2.055162  0  -1.160445  0  -0.339874  -0.542757  0  2.068418  0
O  O139  1  0.45296962  0.43215544  0.90973681  1  0  -0.592188  0  1.870783  0  0  -0.557489  0  2.063531  0  0  -0.578789  0  2.055449  0  -1.160476  0  -0.339788  -0.542663  0  2.068689  0
O  O140  1  0.67004763  0.04159816  0.52868407  1  0  -0.675468  0  2.124787  0  0  -0.600785  0  2.415243  0  0  -0.628268  0  2.395981  0  -1.177299  0  -0.348135  -0.581863  0  2.428562  0
O  O141  1  0.82995696  0.95840024  0.02868666  1  0  -0.675485  0  2.124717  0  0  -0.6008  0  2.41517  0  0  -0.628276  0  2.39589  0  -1.177391  0  -0.348121  -0.581877  0  2.428489  0
O  O142  1  0.17004000  0.45840273  0.47131748  1  0  -0.675514  0  2.124956  0  0  -0.601205  0  2.416293  0  0  -0.628353  0  2.396454  0  -1.177294  0  -0.348097  -0.581851  0  2.428703  0
O  O143  1  0.32995505  0.54159972  0.97131282  1  0  -0.675502  0  2.124736  0  0  -0.600825  0  2.415183  0  0  -0.628307  0  2.39592  0  -1.177434  0  -0.348122  -0.581902  0  2.428501  0
