# generated using pymatgen
data_MnH19C20(NO3)2
_symmetry_space_group_name_H-M   'P 1'
_cell_length_a   9.67707909
_cell_length_b   9.73759851
_cell_length_c   11.45105986
_cell_angle_alpha   70.05463871
_cell_angle_beta   65.39885600
_cell_angle_gamma   71.72075202
_symmetry_Int_Tables_number   1
_chemical_formula_structural   MnH19C20(NO3)2
_chemical_formula_sum   'Mn2 H38 C40 N4 O12'
_cell_volume   903.46666259
_cell_formula_units_Z   2
loop_
 _symmetry_equiv_pos_site_id
 _symmetry_equiv_pos_as_xyz
  1  'x, y, z'
loop_
 _atom_site_type_symbol
 _atom_site_label
 _atom_site_symmetry_multiplicity
 _atom_site_fract_x
 _atom_site_fract_y
 _atom_site_fract_z
 _atom_site_occupancy
 _atom_site_hle17_ddec_charge
 _atom_site_hle17_ddec_spin_density
 _atom_site_hle17_ddec_sum_bond_order
 _atom_site_hle17_magmom
 _atom_site_hse06_10hf_ddec_charge
 _atom_site_hse06_10hf_ddec_spin_density
 _atom_site_hse06_10hf_ddec_sum_bond_order
 _atom_site_hse06_10hf_magmom
 _atom_site_hse06_ddec_charge
 _atom_site_hse06_ddec_spin_density
 _atom_site_hse06_ddec_sum_bond_order
 _atom_site_hse06_magmom
 _atom_site_pbe_cm5_charge
 _atom_site_pbe_ddec_charge
 _atom_site_pbe_ddec_spin_density
 _atom_site_pbe_ddec_sum_bond_order
 _atom_site_pbe_magmom
Mn  Mn0  1  0.11267952  0.31617444  0.37796063  1  1.135267  -4.824281  1.857053  -4.671  0.971286  -4.702988  2.362548  -4.523  1.02686  -4.769769  2.293897  -4.59  0.601369  0.926994  -4.63628  2.415296  -4.45
Mn  Mn1  1  0.87382706  0.67849575  0.63348202  1  0.879603  -1.157581  2.684053  -1.155  0.80598  -1.165487  3.213755  -1.132  0.843881  -1.079751  3.153443  -1.06  0.671534  0.787952  -1.225568  3.243513  -1.186
H  H2  1  0.29594651  0.24162530  0.09906017  1  0.069113  -0.00015  0.948403  0.0  0.079358  -0.00059  1.013169  -0.001  0.081146  -0.00043  1.011528  0.0  0.115691  0.077746  -0.000701  1.015096  -0.001
H  H3  1  0.70838973  0.73933266  0.90327214  1  0.06883  -5.8e-05  0.971326  -0.001  0.0783  0.001171  1.038173  0.0  0.080497  0.000952  1.034079  0.0  0.115371  0.07685  0.00116  1.041282  0.0
H  H4  1  0.41126532  0.13760054  0.43307866  1  0.081747  -9.7e-05  0.949453  0.0  0.091194  -0.00049  1.012638  0.0  0.093849  -0.000322  1.009881  0.0  0.12209  0.088994  -0.000585  1.014919  -0.001
H  H5  1  0.60051136  0.84923163  0.56383581  1  0.087464  -0.000679  0.963728  -0.001  0.096478  6e-06  1.02604  0.0  0.09917  5.6e-05  1.02233  0.0  0.123959  0.09481  -5.4e-05  1.028429  0.0
H  H6  1  0.67763543  0.00329217  0.32403938  1  0.124727  -0.000224  0.932525  0.0  0.135926  -0.000251  0.989442  0.0  0.139905  -0.000161  0.987945  0.0  0.113014  0.132955  -0.000322  0.990761  0.0
H  H7  1  0.34030768  0.99382700  0.66710858  1  0.119754  0.000621  0.936217  0.001  0.131518  -0.000148  0.993723  0.0  0.13476  -0.000144  0.992578  0.0  0.11182  0.129222  -0.000136  0.994786  0.0
H  H8  1  0.55622675  0.11098888  0.97574887  1  0.107398  -0.000339  0.968217  0.0  0.116459  -0.000338  1.033  0.0  0.119252  -0.000267  1.032832  0.0  0.105547  0.114481  -0.000333  1.032929  0.0
H  H9  1  0.45640554  0.88169460  0.01854242  1  0.102495  0.000287  0.970216  0.001  0.112043  0.000178  1.035008  0.0  0.114278  0.000176  1.035361  0.0  0.104258  0.110909  0.000239  1.034026  0.0
H  H10  1  0.79859587  0.94955475  0.97882585  1  0.090911  -1e-06  0.923741  0.0  0.109588  7.1e-05  0.981932  0.0  0.111523  2.7e-05  0.980634  0.0  0.09944  0.107915  4.9e-05  0.983111  0.0
H  H11  1  0.21872058  0.05634731  0.01069996  1  0.083474  3.9e-05  0.929828  0.0  0.101825  -3.1e-05  0.989774  0.0  0.103505  8e-06  0.988895  0.0  0.095603  0.100253  -1.1e-05  0.991418  0.0
H  H12  1  0.82221558  0.85574007  0.13354080  1  0.094722  -0.000106  0.942762  0.0  0.111169  -0.00012  1.002149  0.0  0.111836  -0.000104  1.004018  0.0  0.099571  0.11087  -0.000111  1.00071  0.0
H  H13  1  0.19963403  0.15162390  0.85434537  1  0.095688  0.00088  0.933917  0.001  0.1118  0.000733  0.994685  0.001  0.11285  0.000488  0.996389  0.0  0.098708  0.110683  0.000802  0.994538  0.001
H  H14  1  0.93503369  0.05316739  0.12609466  1  0.069374  -1.8e-05  0.915273  0.0  0.083855  -0.000171  0.973089  0.0  0.086006  -8e-05  0.971904  0.0  0.102689  0.082215  -0.000312  0.97455  0.0
H  H15  1  0.07703333  0.96338017  0.86120483  1  0.072226  -0.000195  0.911321  0.0  0.086825  -0.000277  0.967442  0.0  0.089037  -0.000186  0.966325  0.0  0.10373  0.08529  -0.000362  0.968093  0.0
H  H16  1  0.91626960  0.32440437  0.07466622  1  0.108516  0.000528  0.959198  0.001  0.118332  7.9e-05  1.022513  0.0  0.121308  0.00017  1.021609  0.0  0.105072  0.116632  4.1e-05  1.022929  0.0
H  H17  1  0.09019597  0.69830799  0.90648024  1  0.112925  -0.000108  0.954805  0.0  0.122812  -0.00036  1.016904  0.0  0.126635  -0.000317  1.015567  0.0  0.106893  0.119805  -0.000387  1.018254  0.0
H  H18  1  0.88882522  0.57247275  0.91665972  1  0.073196  -8.7e-05  0.961412  -0.001  0.081645  0.000634  1.029663  0.0  0.08397  0.000472  1.026312  0.0  0.114704  0.080112  0.000693  1.032032  0.0
H  H19  1  0.10672536  0.44638918  0.06399967  1  0.067393  -6.3e-05  0.950043  0.0  0.076812  -0.000403  1.016972  -0.001  0.078557  -0.000275  1.015682  0.0  0.114033  0.075247  -0.000477  1.018386  -0.001
H  H20  1  0.84661648  0.38738164  0.65831693  1  0.091879  0.000415  1.011944  0.0  0.096918  0.000572  1.076444  0.0  0.099873  0.000536  1.073478  0.0  0.125981  0.09526  0.000474  1.077859  0.0
H  H21  1  0.14029145  0.61540785  0.33572617  1  0.090557  -0.000386  0.977512  0.0  0.094969  -0.000814  1.044386  -0.001  0.098925  -0.000619  1.041162  -0.001  0.124019  0.091722  -0.001007  1.047006  -0.001
H  H22  1  0.86687999  0.14026646  0.80374561  1  0.113165  0.000364  0.979334  0.0  0.118988  -0.000106  1.046921  0.0  0.123416  -8.8e-05  1.043731  0.0  0.106563  0.116078  -0.000106  1.049236  0.0
H  H23  1  0.13242476  0.86797722  0.19063233  1  0.120249  -0.000106  0.973832  0.0  0.126945  -9.2e-05  1.03907  0.0  0.131443  -4e-05  1.036099  0.0  0.109025  0.123492  -0.000254  1.041715  0.0
H  H24  1  0.18739659  0.56262556  0.74478003  1  0.094475  8.6e-05  0.966971  0.0  0.102902  7.4e-05  1.034778  0.0  0.106692  9.9e-05  1.031903  0.0  0.103011  0.100135  4.9e-05  1.036528  0.0
H  H25  1  0.81684022  0.44563435  0.26724224  1  0.094654  0.00027  0.964975  0.0  0.104079  0.0004  1.031484  0.0  0.10724  0.000381  1.028965  0.0  0.103594  0.101671  0.000403  1.033218  0.0
H  H26  1  0.37778920  0.47667631  0.86319451  1  0.082737  1.2e-05  0.963222  0.0  0.093385  -2.4e-05  1.021514  0.0  0.096168  -8e-06  1.021559  0.0  0.094956  0.091574  1.6e-05  1.021409  0.0
H  H27  1  0.63439925  0.52505936  0.14266272  1  0.082525  0.00039  0.96315  0.0  0.092804  0.00046  1.022817  0.0  0.095913  0.0003  1.022015  0.0  0.09466  0.090393  0.000523  1.023585  0.0
H  H28  1  0.61339796  0.28339898  0.79523917  1  0.080442  0.000184  1.001705  0.0  0.088588  0.000328  1.072362  0.0  0.091305  0.000203  1.07049  0.0  0.096991  0.087209  0.000307  1.072474  0.0
H  H29  1  0.38967756  0.71102155  0.20915832  1  0.083099  -6.5e-05  0.990892  0.0  0.0909  0.000194  1.061483  0.0  0.0941  9.7e-05  1.058752  0.0  0.096636  0.088509  0.00035  1.063789  0.0
H  H30  1  0.48219424  0.27686466  0.48325156  1  0.098358  0.000137  0.978657  0.0  0.103061  0.000147  1.051605  0.0  0.106742  0.000176  1.048772  0.0  0.103503  0.100477  0.000199  1.053533  0.0
H  H31  1  0.50440084  0.73080693  0.52538263  1  0.097988  3.5e-05  0.982503  0.0  0.102806  8.2e-05  1.054999  0.0  0.106709  0.0001  1.051641  0.0  0.103221  0.099874  5.5e-05  1.057282  0.0
H  H32  1  0.97029754  0.11722533  0.59466935  1  0.405825  -4e-05  0.905782  -0.001  0.376069  -0.000635  0.971475  -0.001  0.386553  -0.000393  0.956183  -0.001  0.289707  0.368677  -0.000846  0.982257  -0.002
H  H33  1  0.01963249  0.86750009  0.42333739  1  0.401161  -0.000319  0.90413  -0.001  0.373474  0.000145  0.974481  0.0  0.382933  0.000223  0.960828  0.0  0.293926  0.366795  6.5e-05  0.984248  0.0
H  H34  1  0.14174439  0.02607185  0.54166314  1  0.404122  -0.0001  0.915617  -0.001  0.369968  -0.0007  0.986153  -0.002  0.381869  -0.000458  0.968855  -0.001  0.282932  0.361559  -0.000923  0.998389  -0.002
H  H35  1  0.84625780  0.95845164  0.47743503  1  0.395814  0.000721  0.920906  0.001  0.363744  -7e-06  0.994149  0.0  0.374517  -0.000164  0.978616  -0.001  0.286543  0.356151  6.8e-05  1.005132  0.0
H  H36  1  0.91979880  0.17595342  0.35434932  1  0.419564  0.000257  0.882406  0.0  0.390409  -0.000241  0.944461  -0.001  0.401072  -6.9e-05  0.928869  -0.001  0.292751  0.382802  -0.000435  0.955577  -0.001
H  H37  1  0.06352222  0.80812736  0.64360437  1  0.414726  -0.000483  0.876452  -0.001  0.385098  0.000404  0.951663  0.0  0.395257  0.000728  0.938681  0.0  0.299264  0.378205  0.000104  0.958751  0.0
H  H38  1  0.09099400  0.08668339  0.30706758  1  0.411257  0.000263  0.893777  0.0  0.379297  -0.000244  0.963747  -0.001  0.390529  -9e-05  0.947204  0.0  0.28968  0.371215  -0.000496  0.975743  -0.001
H  H39  1  0.89183667  0.89881161  0.69525454  1  0.406089  -0.000391  0.885023  -0.001  0.376069  -7e-05  0.963463  -0.001  0.386114  -5.4e-05  0.952672  -0.001  0.297527  0.369148  -0.000133  0.97057  -0.001
C  C40  1  0.38419473  0.18825365  0.14523053  1  0.136639  -0.003464  3.726362  -0.003  0.106908  -0.005753  3.977049  -0.005  0.114424  -0.005009  3.995854  -0.005  0.047942  0.101455  -0.006414  3.96485  -0.006
C  C41  1  0.62391250  0.79560874  0.85392591  1  0.118716  0.027509  3.692643  0.017  0.086815  0.019597  3.949373  0.01  0.099574  0.016414  3.96162  0.008  0.035281  0.075995  0.018912  3.943662  0.01
C  C42  1  0.44921010  0.12968132  0.33133648  1  0.142932  -0.003413  3.692414  -0.003  0.111557  -0.005559  3.946588  -0.005  0.119558  -0.004879  3.96352  -0.004  0.053643  0.106533  -0.006555  3.934223  -0.006
C  C43  1  0.56205021  0.85735430  0.66522814  1  0.128402  0.027621  3.659999  0.017  0.095724  0.012235  3.917333  0.007  0.107837  0.008711  3.929732  0.004  0.041342  0.087517  0.010667  3.909173  0.005
C  C44  1  0.59693094  0.05498759  0.26998019  1  -0.164774  0.002088  3.675447  0.001  -0.183199  0.00165  3.924436  0.001  -0.191782  0.002366  3.94527  0.001  -0.081309  -0.177304  0.001301  3.90969  0.001
C  C45  1  0.41794075  0.93892848  0.72384680  1  -0.1658  -0.012085  3.691928  -0.012  -0.186091  -0.003192  3.945303  -0.004  -0.194314  -0.003911  3.96287  -0.004  -0.08623  -0.180815  -0.000877  3.933586  -0.002
C  C46  1  0.52928457  0.11533431  0.07693054  1  -0.182748  0.001823  3.720109  0.001  -0.199732  0.00132  3.965466  0.001  -0.208727  0.002005  3.988412  0.001  -0.087413  -0.193926  0.000973  3.95039  0.0
C  C47  1  0.48196053  0.87669070  0.91780134  1  -0.181037  -0.014253  3.7408  -0.014  -0.199513  -0.003014  3.990275  -0.004  -0.208606  -0.002896  4.009568  -0.003  -0.092743  -0.193086  -0.001431  3.977507  -0.003
C  C48  1  0.63923165  0.04630262  0.13957683  1  0.163815  -0.00282  3.734591  -0.003  0.179035  -0.004403  3.971991  -0.004  0.183815  -0.003975  3.995265  -0.003  0.012923  0.175606  -0.005052  3.956107  -0.004
C  C49  1  0.37447537  0.95192361  0.85335817  1  0.147017  0.036228  3.73279  0.024  0.161128  0.022222  3.974025  0.014  0.170267  0.016038  3.994004  0.01  -0.000623  0.154308  0.023884  3.961479  0.015
C  C50  1  0.79697987  0.96668930  0.06954964  1  -0.193854  0.0019  3.682803  0.002  -0.242648  0.001544  3.930779  0.001  -0.243918  0.001068  3.941325  0.001  -0.156444  -0.241102  0.001004  3.923202  0.001
C  C51  1  0.21965244  0.04019309  0.91977583  1  -0.178024  -0.000924  3.672975  -0.002  -0.227363  0.000184  3.92149  -0.001  -0.22959  7.5e-05  3.931767  -0.001  -0.151534  -0.226962  0.000646  3.917947  -0.001
C  C52  1  0.92673142  0.05070394  0.03376359  1  -0.033331  -0.000791  3.600561  -0.002  -0.041685  -4.3e-05  3.836889  -0.001  -0.043842  -0.000196  3.850698  -0.001  -0.072803  -0.040774  -1.6e-05  3.827745  -0.001
C  C53  1  0.08493113  0.96371937  0.95435169  1  -0.04142  0.003682  3.607415  0.003  -0.048322  0.002612  3.841527  0.002  -0.049666  0.001816  3.855878  0.001  -0.073981  -0.046898  0.002771  3.832166  0.002
C  C54  1  0.89584616  0.20797272  0.95336782  1  0.111336  0.02945  3.735584  0.019  0.120048  0.022517  3.974532  0.014  0.128971  0.016036  3.99481  0.01  -0.000547  0.115725  0.021403  3.960435  0.013
C  C55  1  0.10953176  0.80567090  0.03513761  1  0.125648  -0.001456  3.734982  -0.002  0.138004  -0.002824  3.968443  -0.003  0.142736  -0.002774  3.991571  -0.002  0.013396  0.134125  -0.001934  3.953601  -0.002
C  C56  1  0.89846912  0.33447822  0.98375195  1  -0.179707  -0.010928  3.728495  -0.011  -0.197105  -0.003548  3.980024  -0.004  -0.206113  -0.003309  3.999376  -0.004  -0.091369  -0.191642  -0.001938  3.966872  -0.003
C  C57  1  0.10433607  0.68346832  0.00004608  1  -0.181027  0.00027  3.709474  0.0  -0.199021  0.00021  3.95699  0.0  -0.207454  0.000682  3.978649  0.0  -0.089401  -0.194283  0.000103  3.944137  0.0
C  C58  1  0.88138682  0.47413488  0.89626205  1  0.099619  0.025557  3.695777  0.016  0.065696  0.019373  3.963159  0.011  0.077786  0.015574  3.974616  0.008  0.033456  0.057756  0.018809  3.95484  0.01
C  C59  1  0.11309681  0.54322506  0.08772782  1  0.121343  -0.002177  3.743005  -0.003  0.093131  -0.004209  3.99891  -0.004  0.099595  -0.003617  4.018971  -0.004  0.045471  0.0886  -0.004363  3.985755  -0.004
C  C60  1  0.85672261  0.37215027  0.75284707  1  0.126449  0.017355  3.661011  0.01  0.09606  0.010196  3.913694  0.005  0.106891  0.007679  3.924591  0.004  0.041514  0.088815  0.008197  3.90644  0.004
C  C61  1  0.13248868  0.63686729  0.23876884  1  0.142016  -0.002023  3.684913  -0.002  0.114628  -0.00428  3.934434  -0.003  0.122459  -0.003921  3.949461  -0.003  0.051448  0.109266  -0.004586  3.924557  -0.004
C  C62  1  0.87198921  0.23147274  0.83530166  1  -0.161785  -0.007935  3.719113  -0.008  -0.180619  -0.002008  3.97335  -0.003  -0.187865  -0.003179  3.989286  -0.004  -0.089289  -0.177069  0.001232  3.962496  -0.001
C  C63  1  0.12614052  0.77917899  0.15674254  1  -0.167237  0.001142  3.699774  0.0  -0.186219  0.001062  3.950501  0.0  -0.193906  0.001636  3.969455  0.001  -0.08716  -0.181279  0.000692  3.938377  0.0
C  C64  1  0.20465463  0.46794331  0.53996469  1  0.661979  -0.00073  3.853501  -0.003  0.610484  -0.000798  4.148511  -0.003  0.64741  9.3e-05  4.142149  -0.002  0.228057  0.585643  -0.003883  4.149802  -0.005
C  C65  1  0.78801650  0.53995466  0.47284390  1  0.653042  0.002043  3.834215  -0.003  0.594622  0.002427  4.135583  -0.003  0.638656  -0.001526  4.122053  -0.005  0.217887  0.561253  0.007908  4.147067  0.001
C  C66  1  0.31952388  0.42118847  0.60967095  1  -0.07656  -0.00056  3.750197  -0.001  -0.05088  -0.001215  3.984137  -0.002  -0.060143  -0.001328  4.006503  -0.002  -0.018874  -0.045195  -0.0008  3.968966  -0.001
C  C67  1  0.67752912  0.58910221  0.39995445  1  -0.071131  -0.000248  3.757405  -0.001  -0.044995  0.001378  3.994645  0.0  -0.05531  0.001497  4.014069  0.0  -0.019339  -0.039299  0.003099  3.984541  0.0
C  C68  1  0.29191963  0.47901084  0.71583267  1  -0.051981  0.001695  3.722264  0.001  -0.081852  0.000986  3.974468  0.001  -0.07902  0.000614  3.992935  0.0  -0.079711  -0.082432  -0.000248  3.960667  0.0
C  C69  1  0.71081024  0.52869436  0.29345843  1  -0.057847  0.005548  3.713444  0.003  -0.088232  0.005261  3.964765  0.003  -0.083439  0.001064  3.981994  0.001  -0.083617  -0.091551  0.008837  3.953833  0.005
C  C70  1  0.39784569  0.43012668  0.78198974  1  -0.088447  -0.000775  3.778814  -0.001  -0.093795  -0.000227  4.02611  0.0  -0.099497  -0.00023  4.048415  0.0  -0.094892  -0.09007  0.000102  4.009434  0.0
C  C71  1  0.60842539  0.57324565  0.22443581  1  -0.083111  -0.002788  3.775128  -0.003  -0.087823  -0.000477  4.022023  -0.001  -0.093473  0.000527  4.041431  0.0  -0.096369  -0.084455  -0.000785  4.009728  -0.001
C  C72  1  0.53073542  0.32228013  0.74380258  1  -0.052561  0.002619  3.726315  0.002  -0.081315  0.002679  3.974109  0.002  -0.078555  0.001699  3.993397  0.001  -0.083422  -0.081749  0.001905  3.958946  0.001
C  C73  1  0.47108639  0.67700943  0.26139154  1  -0.052616  0.007315  3.718264  0.005  -0.082777  0.004822  3.969108  0.003  -0.076297  0.000137  3.983518  0.0  -0.087088  -0.088151  0.009621  3.96104  0.005
C  C74  1  0.56184621  0.26572281  0.63625496  1  -0.078348  -0.00075  3.757711  -0.001  -0.052887  -0.000489  3.996415  -0.001  -0.063097  -0.000386  4.022039  0.0  -0.022158  -0.046249  -0.000148  3.978668  0.0
C  C75  1  0.43375288  0.73403159  0.37027087  1  -0.07832  -0.002268  3.766473  -0.002  -0.05471  -0.00032  4.009457  -0.001  -0.063873  0.00039  4.031039  0.0  -0.022737  -0.049549  -0.000138  3.996665  -0.001
C  C76  1  0.45633603  0.31714441  0.56909291  1  -0.058904  0.001257  3.694789  0.001  -0.094955  0.001142  3.942073  0.001  -0.092938  0.001005  3.962691  0.0  -0.072268  -0.096276  0.001248  3.928343  0.001
C  C77  1  0.53729917  0.68974311  0.43852241  1  -0.06572  0.005141  3.705895  0.003  -0.103642  0.00032  3.957316  0.0  -0.098769  -0.000937  3.974117  -0.001  -0.079247  -0.108108  0.001555  3.948141  0.001
C  C78  1  0.70647103  0.15169210  0.59323871  1  0.666392  0.000389  3.868279  0.0  0.60577  0.000256  4.173812  0.0  0.638805  0.000307  4.167501  0.0  0.214895  0.583668  0.000205  4.177023  0.0
C  C79  1  0.28180222  0.83753487  0.41702388  1  0.669705  0.000242  3.867208  0.0  0.608413  0.000726  4.173961  0.0  0.642069  0.000404  4.166103  0.0  0.216223  0.585969  0.000453  4.178635  0.0
N  N80  1  0.34362324  0.19587437  0.27069504  1  -0.343669  -0.027314  3.258399  -0.013  -0.273863  -0.030816  3.531076  -0.012  -0.293534  -0.027538  3.546707  -0.01  -0.325979  -0.259728  -0.033621  3.520129  -0.014
N  N81  1  0.66646307  0.78416962  0.72806834  1  -0.285795  0.013482  3.338089  0.014  -0.226748  0.015515  3.624181  0.015  -0.24769  0.008876  3.639942  0.008  -0.353704  -0.212167  0.020569  3.609343  0.02
N  N82  1  0.86134688  0.49558631  0.78008258  1  -0.278525  0.020953  3.340615  0.017  -0.226579  0.01739  3.630209  0.015  -0.244999  0.009544  3.642236  0.008  -0.349534  -0.214032  0.0233  3.618574  0.02
N  N83  1  0.12641929  0.51904932  0.20594364  1  -0.349025  -0.027406  3.243209  -0.014  -0.282096  -0.03144  3.518022  -0.014  -0.301693  -0.028687  3.53417  -0.012  -0.320834  -0.267846  -0.033234  3.506688  -0.015
O  O84  1  0.22481190  0.39272816  0.46085729  1  -0.644026  -0.033229  2.094172  -0.02  -0.580329  -0.037613  2.370548  -0.021  -0.612425  -0.033756  2.357888  -0.018  -0.307208  -0.554479  -0.042333  2.377019  -0.025
O  O85  1  0.77552017  0.62249361  0.54463058  1  -0.571329  -0.018448  2.230545  -0.014  -0.516829  -0.026823  2.520541  -0.024  -0.552626  -0.021355  2.509678  -0.017  -0.298496  -0.492229  -0.032242  2.525936  -0.03
O  O86  1  0.88551777  0.41677697  0.46290897  1  -0.658149  -0.033269  2.121018  -0.019  -0.586175  -0.035724  2.397938  -0.018  -0.616014  -0.033015  2.380301  -0.015  -0.321645  -0.563996  -0.038855  2.411087  -0.021
O  O87  1  0.09678930  0.58275643  0.56157944  1  -0.602358  -0.018141  2.166788  -0.015  -0.545508  -0.024189  2.446501  -0.023  -0.578563  -0.019349  2.438789  -0.018  -0.310598  -0.52107  -0.030201  2.448234  -0.028
O  O88  1  0.74478906  0.12611025  0.48034224  1  -0.653334  0.000948  2.003065  0.0  -0.587888  0.000288  2.226014  0.0  -0.613088  0.000192  2.216099  0.0  -0.319133  -0.570451  0.000442  2.232345  0.0
O  O89  1  0.23852740  0.85770401  0.53299631  1  -0.654695  -0.00046  2.000523  -0.001  -0.588819  -0.000429  2.224837  -0.001  -0.613025  -0.000108  2.213957  -0.001  -0.321902  -0.572808  -0.000376  2.231853  -0.001
O  O90  1  0.78274885  0.08513753  0.67233751  1  -0.666013  -0.000107  2.002376  0.0  -0.596853  0.000128  2.225887  0.0  -0.621545  0.000236  2.216271  0.0  -0.319715  -0.580195  0.000115  2.232265  0.0
O  O91  1  0.20313272  0.89884931  0.33977770  1  -0.666697  -5.5e-05  2.012647  0.0  -0.597984  0.000333  2.236959  0.0  -0.623113  0.000469  2.227384  0.0  -0.320807  -0.580868  -2.4e-05  2.243806  0.0
O  O92  1  0.08045695  0.12818922  0.55386718  1  -0.834035  -0.030343  1.902976  -0.019  -0.772955  -0.038089  2.11413  -0.024  -0.796904  -0.034405  2.07922  -0.021  -0.584384  -0.755197  -0.04166  2.138618  -0.027
O  O93  1  0.90908733  0.85603361  0.46579769  1  -0.779003  0.012735  2.005108  0.011  -0.734583  0.003025  2.230574  0.005  -0.762542  0.002627  2.202363  0.004  -0.570978  -0.714685  0.003526  2.248661  0.005
O  O94  1  0.02557116  0.18786201  0.29051803  1  -0.836161  -0.024974  1.849382  -0.016  -0.785604  -0.034997  2.048798  -0.023  -0.807186  -0.031401  2.013845  -0.02  -0.57622  -0.768741  -0.038023  2.07349  -0.025
O  O95  1  0.95681445  0.79566610  0.70787990  1  -0.779453  0.015537  1.978819  0.017  -0.729504  -1.1e-05  2.207721  0.004  -0.761905  0.000516  2.18493  0.003  -0.551361  -0.7064  0.000502  2.219207  0.006
