# generated using pymatgen
data_GdH9C9(NO3)3
_symmetry_space_group_name_H-M   'P 1'
_cell_length_a   6.13677433
_cell_length_b   7.67406519
_cell_length_c   13.37562792
_cell_angle_alpha   81.24713390
_cell_angle_beta   85.88506515
_cell_angle_gamma   76.91312590
_symmetry_Int_Tables_number   1
_chemical_formula_structural   GdH9C9(NO3)3
_chemical_formula_sum   'Gd2 H18 C18 N6 O18'
_cell_volume   605.95088211
_cell_formula_units_Z   2
loop_
 _symmetry_equiv_pos_site_id
 _symmetry_equiv_pos_as_xyz
  1  'x, y, z'
loop_
 _atom_site_type_symbol
 _atom_site_label
 _atom_site_symmetry_multiplicity
 _atom_site_fract_x
 _atom_site_fract_y
 _atom_site_fract_z
 _atom_site_occupancy
 _atom_site_hle17_bader_spin_density
 _atom_site_hle17_ddec_charge
 _atom_site_hle17_ddec_spin_density
 _atom_site_hle17_ddec_sum_bond_order
 _atom_site_hle17_magmom
 _atom_site_hse06_10hf_bader_spin_density
 _atom_site_hse06_10hf_ddec_charge
 _atom_site_hse06_10hf_ddec_spin_density
 _atom_site_hse06_10hf_ddec_sum_bond_order
 _atom_site_hse06_10hf_magmom
 _atom_site_hse06_bader_spin_density
 _atom_site_hse06_ddec_charge
 _atom_site_hse06_ddec_spin_density
 _atom_site_hse06_ddec_sum_bond_order
 _atom_site_hse06_magmom
 _atom_site_pbe_bader_spin_density
 _atom_site_pbe_cm5_charge
 _atom_site_pbe_ddec_charge
 _atom_site_pbe_ddec_spin_density
 _atom_site_pbe_ddec_sum_bond_order
 _atom_site_pbe_magmom
Gd  Gd0  1  0.77353996  0.79299802  0.26810186  1  0  2.171649  0  1.786914  0  0  2.063857  0  2.155516  0  0  2.116791  0  2.101772  0  0  1.448008  2.023002  0  2.198104  0
Gd  Gd1  1  0.22645892  0.20700000  0.73189928  1  0  2.171674  0  1.786833  0  0  2.063885  0  2.155464  0  0  2.116836  0  2.101698  0  0  1.448008  2.023049  0  2.198029  0
H  H2  1  0.09544907  0.09598153  0.99434181  1  0  0.100459  0  0.963552  0  0  0.101831  0  1.037034  0  0  0.106201  0  1.032094  0  0  0.128356  0.098368  0  1.041258  0
H  H3  1  0.90455351  0.90402604  0.00565921  1  0  0.100464  0  0.96356  0  0  0.101862  0  1.036999  0  0  0.106229  0  1.032063  0  0  0.128326  0.0984  0  1.04122  0
H  H4  1  0.88208359  0.88368197  0.67004555  1  0  0.114502  0  0.948593  0  0  0.117415  0  1.016808  0  0  0.121375  0  1.013329  0  0  0.131112  0.114431  0  1.019585  0
H  H5  1  0.11792463  0.11631221  0.32995262  1  0  0.114528  0  0.948553  0  0  0.11745  0  1.016736  0  0  0.121385  0  1.013286  0  0  0.13111  0.114463  0  1.019511  0
H  H6  1  0.15094953  0.71016746  0.95595287  1  0  0.100148  0  0.946916  0  0  0.106093  0  1.013692  0  0  0.109358  0  1.011298  0  0  0.123319  0.103674  0  1.015638  0
H  H7  1  0.84903962  0.28983574  0.04405191  1  0  0.100206  0  0.946829  0  0  0.106173  0  1.013613  0  0  0.109437  0  1.011221  0  0  0.123345  0.103753  0  1.015561  0
H  H8  1  0.56132830  0.20003732  0.19144495  1  0  0.403839  0  0.91097  0  0  0.362978  0  0.99237  0  0  0.374191  0  0.976264  0  0  0.287605  0.355049  0  1.003721  0
H  H9  1  0.43866975  0.79995793  0.80855794  1  0  0.403815  0  0.910995  0  0  0.362934  0  0.992423  0  0  0.37415  0  0.976316  0  0  0.287587  0.355004  0  1.003775  0
H  H10  1  0.50754933  0.16351374  0.30903886  1  0  0.431159  0  0.874369  0  0  0.399252  0  0.940537  0  0  0.409812  0  0.925285  0  0  0.296042  0.391816  0  0.951242  0
H  H11  1  0.49245562  0.83648028  0.69096391  1  0  0.431175  0  0.874344  0  0  0.399274  0  0.940509  0  0  0.409835  0  0.925256  0  0  0.296036  0.39184  0  0.951213  0
H  H12  1  0.17816058  0.49404834  0.36158073  1  0  0.444791  0  0.843844  0  0  0.417172  0  0.900478  0  0  0.426922  0  0.886371  0  0  0.305224  0.41028  0  0.910446  0
H  H13  1  0.82184481  0.50594987  0.63841721  1  0  0.444685  0  0.844004  0  0  0.417096  0  0.900574  0  0  0.426846  0  0.886469  0  0  0.305224  0.410204  0  0.910542  0
H  H14  1  0.22724132  0.68882719  0.33047143  1  0  0.435761  0  0.864975  0  0  0.407646  0  0.923817  0  0  0.419081  0  0.90706  0  0  0.301756  0.399534  0  0.935691  0
H  H15  1  0.77276487  0.31116839  0.66952370  1  0  0.435801  0  0.864914  0  0  0.407661  0  0.923799  0  0  0.419097  0  0.907039  0  0  0.301787  0.399552  0  0.93567  0
H  H16  1  0.84385040  0.39921707  0.26331435  1  0  0.431975  0  0.865465  0  0  0.399353  0  0.932694  0  0  0.410955  0  0.915579  0  0  0.29943  0.39105  0  0.944918  0
H  H17  1  0.15615213  0.60077966  0.73668678  1  0  0.431942  0  0.865511  0  0  0.399329  0  0.932723  0  0  0.410931  0  0.915609  0  0  0.29945  0.391026  0  0.944948  0
H  H18  1  0.63169477  0.41779356  0.34411888  1  0  0.455764  0  0.818046  0  0  0.426759  0  0.875449  0  0  0.437788  0  0.859169  0  0  0.312444  0.418847  0  0.88714  0
H  H19  1  0.36830653  0.58220177  0.65588315  1  0  0.455718  0  0.81809  0  0  0.426686  0  0.875547  0  0  0.437717  0  0.859261  0  0  0.312425  0.418773  0  0.887241  0
C  C20  1  0.25550602  0.90751562  0.18107507  1  0  0.67271  0  3.883291  0  0  0.616649  0  4.188171  0  0  0.652084  0  4.176964  0  0  0.236288  0.592651  0  4.19492  0
C  C21  1  0.74449813  0.09247584  0.81892120  1  0  0.672848  0  3.883029  0  0  0.616693  0  4.188037  0  0  0.652124  0  4.176826  0  0  0.236327  0.592695  0  4.194786  0
C  C22  1  0.38174224  0.96309822  0.08573837  1  0  0.070083  0  3.706373  0  0  0.071746  0  3.958898  0  0  0.070463  0  3.974861  0  0  0.135648  0.072193  0  3.948553  0
C  C23  1  0.61825790  0.03690668  0.91425920  1  0  0.069921  0  3.706529  0  0  0.071728  0  3.958931  0  0  0.070449  0  3.974888  0  0  0.13564  0.072172  0  3.948594  0
C  C24  1  0.27608583  0.05240748  0.99736333  1  0  0.117518  0  3.621552  0  0  0.079364  0  3.887176  0  0  0.083628  0  3.900503  0  0  0.078584  0.076234  0  3.879018  0
C  C25  1  0.72391308  0.94759601  0.00263589  1  0  0.117466  0  3.621592  0  0  0.079266  0  3.8872  0  0  0.083531  0  3.900527  0  0  0.078555  0.076134  0  3.879043  0
C  C26  1  0.67778112  0.77956728  0.51438866  1  0  0.660455  0  3.888778  0  0  0.604037  0  4.195483  0  0  0.637825  0  4.186677  0  0  0.232888  0.581246  0  4.200538  0
C  C27  1  0.32222669  0.22042817  0.48561316  1  0  0.660284  0  3.888964  0  0  0.603977  0  4.195479  0  0  0.637763  0  4.186673  0  0  0.232872  0.581184  0  4.200535  0
C  C28  1  0.85040246  0.89475306  0.50812393  1  0  0.06069  0  3.688685  0  0  0.06515  0  3.938428  0  0  0.063439  0  3.955808  0  0  0.130814  0.065967  0  3.92688  0
C  C29  1  0.14960575  0.10524111  0.49187498  1  0  0.060864  0  3.688932  0  0  0.06531  0  3.938555  0  0  0.063601  0  3.95593  0  0  0.130863  0.066126  0  3.927007  0
C  C30  1  0.93434379  0.93677425  0.59409784  1  0  0.112241  0  3.59649  0  0  0.078398  0  3.851881  0  0  0.082622  0  3.86588  0  0  0.078261  0.075329  0  3.842904  0
C  C31  1  0.06566362  0.06322264  0.40590014  1  0  0.112083  0  3.596804  0  0  0.078287  0  3.852099  0  0  0.082525  0  3.866114  0  0  0.078251  0.075221  0  3.843116  0
C  C32  1  0.11717941  0.48034536  0.13530575  1  0  0.63296  0  3.93788  0  0  0.582067  0  4.241112  0  0  0.615846  0  4.232993  0  0  0.215003  0.55912  0  4.245611  0
C  C33  1  0.88279964  0.51967006  0.86469089  1  0  0.632935  0  3.937745  0  0  0.582008  0  4.240993  0  0  0.615799  0  4.232915  0  0  0.214943  0.559044  0  4.245489  0
C  C34  1  0.31956236  0.48707918  0.06339610  1  0  0.078855  0  3.655309  0  0  0.080786  0  3.905871  0  0  0.080375  0  3.921233  0  0  0.128507  0.080521  0  3.89606  0
C  C35  1  0.68043170  0.51293491  0.93660990  1  0  0.0788  0  3.655192  0  0  0.080815  0  3.905649  0  0  0.080292  0  3.92118  0  0  0.128542  0.080612  0  3.895746  0
C  C36  1  0.30820931  0.61701115  0.97683018  1  0  0.082653  0  3.633617  0  0  0.046188  0  3.890264  0  0  0.049167  0  3.905374  0  0  0.063058  0.044025  0  3.880602  0
C  C37  1  0.69178313  0.38300291  0.02317587  1  0  0.082594  0  3.63361  0  0  0.046061  0  3.890314  0  0  0.049072  0  3.905469  0  0  0.063033  0.043878  0  3.880635  0
N  N38  1  0.60568583  0.91177732  0.08788492  1  0  -0.313934  0  3.207309  0  0  -0.276156  0  3.468234  0  0  -0.284473  0  3.484117  0  0  -0.333863  -0.27016  0  3.457734  0
N  N39  1  0.39431307  0.08822611  0.91211655  1  0  -0.313936  0  3.207464  0  0  -0.276198  0  3.46834  0  0  -0.284513  0  3.484215  0  0  -0.333902  -0.270202  0  3.457843  0
N  N40  1  0.91720513  0.95755931  0.41434530  1  0  -0.300702  0  3.172588  0  0  -0.260796  0  3.430773  0  0  -0.269742  0  3.447033  0  0  -0.307225  -0.254272  0  3.419828  0
N  N41  1  0.08280350  0.04243892  0.58565403  1  0  -0.30077  0  3.172489  0  0  -0.260849  0  3.430673  0  0  -0.269794  0  3.446939  0  0  -0.307236  -0.254327  0  3.419736  0
N  N42  1  0.51393256  0.36938367  0.08533566  1  0  -0.248212  0  3.121278  0  0  -0.197172  0  3.365346  0  0  -0.205101  0  3.379955  0  0  -0.27144  -0.191713  0  3.355842  0
N  N43  1  0.48605701  0.63062362  0.91466803  1  0  -0.248162  0  3.121202  0  0  -0.197088  0  3.365158  0  0  -0.20498  0  3.379809  0  0  -0.271423  -0.191647  0  3.355631  0
O  O44  1  0.37579313  0.81476412  0.25276764  1  0  -0.689505  0  2.115813  0  0  -0.638773  0  2.359607  0  0  -0.66568  0  2.349815  0  0  -0.350717  -0.619698  0  2.365846  0
O  O45  1  0.62421671  0.18523011  0.74722973  1  0  -0.689483  0  2.1159  0  0  -0.638692  0  2.359702  0  0  -0.665597  0  2.349914  0  0  -0.350631  -0.619614  0  2.365941  0
O  O46  1  0.04482293  0.94872273  0.18225177  1  0  -0.655565  0  2.06246  0  0  -0.613713  0  2.323023  0  0  -0.639644  0  2.313838  0  0  -0.361025  -0.595105  0  2.328645  0
O  O47  1  0.95519046  0.05124850  0.81774656  1  0  -0.655619  0  2.062048  0  0  -0.613773  0  2.322657  0  0  -0.639742  0  2.313572  0  0  -0.361104  -0.595192  0  2.328355  0
O  O48  1  0.60650893  0.75922098  0.43149993  1  0  -0.662838  0  2.028454  0  0  -0.622205  0  2.277852  0  0  -0.647298  0  2.267696  0  0  -0.381996  -0.604342  0  2.284345  0
O  O49  1  0.39349319  0.24077705  0.56850336  1  0  -0.662811  0  2.028579  0  0  -0.622202  0  2.277883  0  0  -0.647301  0  2.267733  0  0  -0.381981  -0.60435  0  2.284393  0
O  O50  1  0.61464109  0.71207717  0.60154514  1  0  -0.634266  0  2.006053  0  0  -0.566909  0  2.218096  0  0  -0.591678  0  2.206112  0  0  -0.297793  -0.54981  0  2.226104  0
O  O51  1  0.38536306  0.28791957  0.39845669  1  0  -0.634237  0  2.006061  0  0  -0.566929  0  2.218052  0  0  -0.591697  0  2.206069  0  0  -0.297812  -0.549825  0  2.226057  0
O  O52  1  0.97848316  0.63225010  0.13529415  1  0  -0.738998  0  2.101712  0  0  -0.69259  0  2.358344  0  0  -0.72229  0  2.353391  0  0  -0.387457  -0.670696  0  2.360772  0
O  O53  1  0.02148084  0.36775580  0.86469399  1  0  -0.738943  0  2.101544  0  0  -0.692582  0  2.358291  0  0  -0.722272  0  2.353339  0  0  -0.387396  -0.670684  0  2.360725  0
O  O54  1  0.10064390  0.33306998  0.18754692  1  0  -0.585998  0  1.949875  0  0  -0.536672  0  2.174037  0  0  -0.560653  0  2.16556  0  0  -0.29713  -0.51962  0  2.179328  0
O  O55  1  0.89934199  0.66693321  0.81245572  1  0  -0.585966  0  1.949941  0  0  -0.536646  0  2.174144  0  0  -0.560626  0  2.165683  0  0  -0.297155  -0.519597  0  2.179448  0
O  O56  1  0.59997091  0.10847757  0.25309489  1  0  -0.929196  0  1.96509  0  0  -0.890457  0  2.180493  0  0  -0.910922  0  2.14937  0  0  -0.657652  -0.875283  0  2.20221  0
O  O57  1  0.40003205  0.89152324  0.74690591  1  0  -0.929212  0  1.965104  0  0  -0.890479  0  2.180525  0  0  -0.910948  0  2.149398  0  0  -0.657633  -0.875302  0  2.202241  0
O  O58  1  0.10499322  0.62338280  0.35298088  1  0  -0.914485  0  1.881686  0  0  -0.871976  0  2.059486  0  0  -0.892128  0  2.029089  0  0  -0.646175  -0.857356  0  2.080859  0
O  O59  1  0.89501175  0.37661139  0.64701515  1  0  -0.91444  0  1.881767  0  0  -0.871943  0  2.059618  0  0  -0.892094  0  2.029218  0  0  -0.646209  -0.85731  0  2.080963  0
O  O60  1  0.72625177  0.48401935  0.29787727  1  0  -0.904411  0  1.877732  0  0  -0.85927  0  2.064069  0  0  -0.878236  0  2.029435  0  0  -0.639867  -0.845236  0  2.088463  0
O  O61  1  0.27375158  0.51598005  0.70212587  1  0  -0.904324  0  1.877793  0  0  -0.859166  0  2.064121  0  0  -0.878132  0  2.029486  0  0  -0.639852  -0.84513  0  2.088503  0
