# generated using pymatgen
data_CdH22C24(N3O4)2
_symmetry_space_group_name_H-M   'P 1'
_cell_length_a   6.84884745
_cell_length_b   13.06231836
_cell_length_c   15.77453497
_cell_angle_alpha   67.84852411
_cell_angle_beta   77.23990903
_cell_angle_gamma   74.72639588
_symmetry_Int_Tables_number   1
_chemical_formula_structural   CdH22C24(N3O4)2
_chemical_formula_sum   'Cd2 H44 C48 N12 O16'
_cell_volume   1249.16953507
_cell_formula_units_Z   2
loop_
 _symmetry_equiv_pos_site_id
 _symmetry_equiv_pos_as_xyz
  1  'x, y, z'
loop_
 _atom_site_type_symbol
 _atom_site_label
 _atom_site_symmetry_multiplicity
 _atom_site_fract_x
 _atom_site_fract_y
 _atom_site_fract_z
 _atom_site_occupancy
 _atom_site_hle17_bader_spin_density
 _atom_site_hle17_ddec_charge
 _atom_site_hle17_ddec_spin_density
 _atom_site_hle17_ddec_sum_bond_order
 _atom_site_hle17_magmom
 _atom_site_hse06_10hf_bader_spin_density
 _atom_site_hse06_10hf_ddec_charge
 _atom_site_hse06_10hf_ddec_spin_density
 _atom_site_hse06_10hf_ddec_sum_bond_order
 _atom_site_hse06_10hf_magmom
 _atom_site_hse06_bader_spin_density
 _atom_site_hse06_ddec_charge
 _atom_site_hse06_ddec_spin_density
 _atom_site_hse06_ddec_sum_bond_order
 _atom_site_hse06_magmom
 _atom_site_pbe_bader_charge
 _atom_site_pbe_bader_spin_density
 _atom_site_pbe_cm5_charge
 _atom_site_pbe_ddec_charge
 _atom_site_pbe_ddec_spin_density
 _atom_site_pbe_ddec_sum_bond_order
 _atom_site_pbe_magmom
Cd  Cd0  1  0.69747807  0.74935867  0.24943923  1  0  1.087627  0  1.680964  0  0  0.895655  0  2.122554  0  0  0.953566  0  2.072966  0  1.227268  0  0.774581  0.854526  0  2.156449  0
Cd  Cd1  1  0.30250681  0.25063592  0.75056409  1  0  1.087647  0  1.680755  0  0  0.895676  0  2.122284  0  0  0.953588  0  2.072703  0  1.227209  0  0.774553  0.854546  0  2.156176  0
H  H2  1  0.20687406  0.33797339  0.36940867  1  0  0.111683  0  0.967  0  0  0.121501  0  1.028065  0  0  0.123522  0  1.027857  0  0.106046  0  0.119678  0.120017  0  1.028355  0
H  H3  1  0.91233690  0.16152961  0.13157635  1  0  0.11125  0  0.96703  0  0  0.121135  0  1.028007  0  0  0.123165  0  1.027791  0  0.101584  0  0.119739  0.119645  0  1.028303  0
H  H4  1  0.79312092  0.66202036  0.63061199  1  0  0.11178  0  0.967113  0  0  0.121635  0  1.028133  0  0  0.123656  0  1.027925  0  0.106231  0  0.119702  0.12015  0  1.028429  0
H  H5  1  0.08765362  0.83846583  0.86843574  1  0  0.111185  0  0.967151  0  0  0.121067  0  1.028139  0  0  0.123093  0  1.027925  0  0.101565  0  0.119712  0.11958  0  1.028433  0
H  H6  1  0.14428720  0.68072697  0.33631012  1  0  0.099788  0  0.948485  0  0  0.10737  0  1.017545  0  0  0.109814  0  1.014549  0  0.15956  0  0.135896  0.105523  0  1.019756  0
H  H7  1  0.16169821  0.81916706  0.16351329  1  0  0.099981  0  0.948512  0  0  0.107313  0  1.01764  0  0  0.109828  0  1.014591  0  0.159071  0  0.136002  0.105411  0  1.019888  0
H  H8  1  0.85573664  0.31927774  0.66368216  1  0  0.09983  0  0.948517  0  0  0.107408  0  1.017569  0  0  0.109856  0  1.014553  0  0.159316  0  0.135995  0.105551  0  1.01979  0
H  H9  1  0.83829648  0.18083680  0.83647130  1  0  0.099913  0  0.948541  0  0  0.107236  0  1.017691  0  0  0.109747  0  1.014649  0  0.159307  0  0.135999  0.105335  0  1.019938  0
H  H10  1  0.86191324  0.46248790  0.28428213  1  0  0.104869  0  0.985793  0  0  0.106306  0  1.059588  0  0  0.109936  0  1.056543  0  0.142669  0  0.111968  0.103617  0  1.061914  0
H  H11  1  0.60612425  0.03670974  0.21554155  1  0  0.10478  0  0.98591  0  0  0.105815  0  1.060329  0  0  0.109431  0  1.057347  0  0.161433  0  0.111488  0.103126  0  1.062685  0
H  H12  1  0.13808910  0.53750753  0.71573608  1  0  0.104852  0  0.985658  0  0  0.106222  0  1.059503  0  0  0.109848  0  1.056469  0  0.142627  0  0.111934  0.103532  0  1.061877  0
H  H13  1  0.39387482  0.96327726  0.78447486  1  0  0.104729  0  0.985958  0  0  0.105782  0  1.060348  0  0  0.109393  0  1.05738  0  0.162061  0  0.111478  0.103093  0  1.062707  0
H  H14  1  0.08964718  0.60118442  0.01721872  1  0  0.125884  0  0.947602  0  0  0.130469  0  1.014213  0  0  0.134665  0  1.010575  0  0.141099  0  0.114498  0.127363  0  1.016958  0
H  H15  1  0.70668343  0.89938780  0.48231422  1  0  0.12599  0  0.948218  0  0  0.130136  0  1.015363  0  0  0.134437  0  1.011632  0  0.12519  0  0.114152  0.126997  0  1.01818  0
H  H16  1  0.91035244  0.39881945  0.98278038  1  0  0.125879  0  0.9477  0  0  0.130464  0  1.014287  0  0  0.134659  0  1.01066  0  0.141052  0  0.114473  0.127347  0  1.017032  0
H  H17  1  0.29329471  0.10062450  0.51767855  1  0  0.125908  0  0.948373  0  0  0.130108  0  1.015436  0  0  0.134409  0  1.011704  0  0.125193  0  0.11416  0.126966  0  1.018256  0
H  H18  1  0.23993790  0.63315108  0.13300685  1  0  0.11296  0  0.947209  0  0  0.119802  0  1.010436  0  0  0.123089  0  1.00935  0  0.126138  0  0.108141  0.117406  0  1.011389  0
H  H19  1  0.00639499  0.86698757  0.36640432  1  0  0.11339  0  0.946165  0  0  0.119956  0  1.009527  0  0  0.123236  0  1.008459  0  0.115382  0  0.108605  0.117574  0  1.010431  0
H  H20  1  0.76006843  0.36685447  0.86699043  1  0  0.112947  0  0.947179  0  0  0.11982  0  1.010365  0  0  0.123109  0  1.009274  0  0.126212  0  0.108157  0.117424  0  1.01131  0
H  H21  1  0.99358633  0.13301967  0.63358999  1  0  0.11342  0  0.946277  0  0  0.119985  0  1.009611  0  0  0.123263  0  1.008543  0  0.11535  0  0.108645  0.117601  0  1.010518  0
H  H22  1  0.63410614  0.66087993  0.82198722  1  0  0.11552  0  0.948949  0  0  0.118375  0  1.017169  0  0  0.122305  0  1.014481  0  0.133169  0  0.111142  0.115603  0  1.019087  0
H  H23  1  0.11387673  0.83944852  0.67715229  1  0  0.116473  0  0.947906  0  0  0.119355  0  1.01617  0  0  0.123257  0  1.013498  0  0.140092  0  0.111291  0.116583  0  1.018078  0
H  H24  1  0.36591956  0.33911635  0.17801008  1  0  0.115516  0  0.949057  0  0  0.118395  0  1.017236  0  0  0.12233  0  1.014539  0  0.133448  0  0.111144  0.115611  0  1.01913  0
H  H25  1  0.88611968  0.16055450  0.32284458  1  0  0.116445  0  0.947969  0  0  0.119342  0  1.01621  0  0  0.123246  0  1.013533  0  0.139969  0  0.111291  0.116552  0  1.018118  0
H  H26  1  0.78245503  0.69370275  0.93858289  1  0  0.106532  0  0.957343  0  0  0.11123  0  1.026429  0  0  0.115111  0  1.023373  0  0.101423  0  0.106467  0.108387  0  1.028812  0
H  H27  1  0.41321144  0.80617526  0.56044697  1  0  0.105243  0  0.958739  0  0  0.110052  0  1.027875  0  0  0.113975  0  1.024717  0  0.09152  0  0.106125  0.107172  0  1.030339  0
H  H28  1  0.21755492  0.30629352  0.06142120  1  0  0.106541  0  0.957384  0  0  0.111248  0  1.02643  0  0  0.115129  0  1.023374  0  0.101432  0  0.106424  0.10841  0  1.028775  0
H  H29  1  0.58677150  0.19381680  0.43954346  1  0  0.105379  0  0.958465  0  0  0.110086  0  1.027704  0  0  0.113988  0  1.024607  0  0.091515  0  0.106154  0.107213  0  1.030142  0
H  H30  1  0.28216542  0.47704021  0.53703057  1  0  0.074718  0  0.954605  0  0  0.090213  0  1.018293  0  0  0.0907  0  1.019855  0  0.076797  0  0.090584  0.089789  0  1.017352  0
H  H31  1  0.29600619  0.02276476  0.96368979  1  0  0.074442  0  0.953905  0  0  0.090272  0  1.01718  0  0  0.090791  0  1.018707  0  0.062379  0  0.090991  0.089828  0  1.016263  0
H  H32  1  0.71785566  0.52296534  0.46296543  1  0  0.074658  0  0.954519  0  0  0.09018  0  1.018212  0  0  0.090674  0  1.019757  0  0.076682  0  0.090546  0.089756  0  1.017272  0
H  H33  1  0.70399448  0.97723573  0.03630743  1  0  0.074323  0  0.953903  0  0  0.090152  0  1.017211  0  0  0.090674  0  1.01874  0  0.062446  0  0.090903  0.089709  0  1.016297  0
H  H34  1  0.34346834  0.60694056  0.46021032  1  0  0.06153  0  0.965048  0  0  0.079995  0  1.027776  0  0  0.079594  0  1.029944  0  0.025086  0  0.089416  0.080184  0  1.026335  0
H  H35  1  0.41093290  0.89293576  0.04016876  1  0  0.060845  0  0.964579  0  0  0.07942  0  1.02739  0  0  0.079029  0  1.029521  0  0.018788  0  0.089367  0.079613  0  1.025965  0
H  H36  1  0.65654256  0.39304981  0.53979808  1  0  0.061555  0  0.965085  0  0  0.080016  0  1.027791  0  0  0.079614  0  1.029958  0  0.024797  0  0.089404  0.080205  0  1.026351  0
H  H37  1  0.58906154  0.10706895  0.95982751  1  0  0.060877  0  0.964513  0  0  0.079421  0  1.02736  0  0  0.079036  0  1.029477  0  0.018696  0  0.089376  0.079615  0  1.025936  0
H  H38  1  0.46797073  0.38184963  0.42447208  1  0  0.082396  0  0.938654  0  0  0.097737  0  1.002789  0  0  0.098704  0  1.002271  0  0.062246  0  0.111813  0.096956  0  1.003287  0
H  H39  1  0.27419758  0.11791655  0.07613124  1  0  0.082591  0  0.937869  0  0  0.097557  0  1.002649  0  0  0.09854  0  1.002117  0  0.054065  0  0.111577  0.096787  0  1.00315  0
H  H40  1  0.53203830  0.61814918  0.57553130  1  0  0.082412  0  0.938517  0  0  0.097774  0  1.002677  0  0  0.098741  0  1.002162  0  0.062288  0  0.111836  0.096991  0  1.003189  0
H  H41  1  0.72579110  0.88208311  0.92386355  1  0  0.082605  0  0.937935  0  0  0.097551  0  1.002744  0  0  0.098539  0  1.002205  0  0.054071  0  0.111559  0.096773  0  1.003256  0
H  H42  1  0.53187449  0.51088791  0.34439105  1  0  0.075796  0  0.946547  0  0  0.089355  0  1.014867  0  0  0.089924  0  1.014313  0  0.0776  0  0.10643  0.088838  0  1.015398  0
H  H43  1  0.38673887  0.98861896  0.15587657  1  0  0.075618  0  0.945673  0  0  0.089252  0  1.014235  0  0  0.089768  0  1.013769  0  0.063521  0  0.106081  0.088754  0  1.014747  0
H  H44  1  0.46812631  0.48910837  0.65561770  1  0  0.075813  0  0.946371  0  0  0.089357  0  1.014751  0  0  0.089929  0  1.0142  0  0.077661  0  0.106408  0.08884  0  1.015299  0
H  H45  1  0.61324528  0.01138997  0.84411832  1  0  0.075514  0  0.945864  0  0  0.089123  0  1.014469  0  0  0.08966  0  1.013984  0  0.063485  0  0.106016  0.088628  0  1.014979  0
C  C46  1  0.14032102  0.42712525  0.34907647  1  0  -0.059065  0  3.671331  0  0  -0.09777  0  3.923397  0  0  -0.096459  0  3.943031  0  0.279414  0  0.001637  -0.098632  0  3.910252  0
C  C47  1  0.91503866  0.07238196  0.15154268  1  0  -0.057578  0  3.672366  0  0  -0.096051  0  3.924055  0  0  -0.094769  0  3.943658  0  0.283084  0  0.001526  -0.096902  0  3.910942  0
C  C48  1  0.85968045  0.57287187  0.65093705  1  0  -0.059287  0  3.671667  0  0  -0.098041  0  3.923728  0  0  -0.09673  0  3.943363  0  0.279167  0  0.001539  -0.098901  0  3.910595  0
C  C49  1  0.08496070  0.92761432  0.84846452  1  0  -0.057467  0  3.672468  0  0  -0.095949  0  3.924174  0  0  -0.094661  0  3.943772  0  0.283064  0  0.001593  -0.096799  0  3.911078  0
C  C50  1  0.60715392  0.69061718  0.11112381  1  0  0.604984  0  3.972165  0  0  0.55857  0  4.264429  0  0  0.592259  0  4.259063  0  1.565224  0  0.183966  0.535825  0  4.266964  0
C  C51  1  0.40964952  0.80874123  0.38822817  1  0  0.604953  0  3.969804  0  0  0.55887  0  4.26186  0  0  0.592538  0  4.256495  0  1.559167  0  0.184576  0.536145  0  4.264399  0
C  C52  1  0.39285528  0.30938163  0.88888239  1  0  0.604929  0  3.972276  0  0  0.558523  0  4.264531  0  0  0.592211  0  4.259165  0  1.565257  0  0.184025  0.535778  0  4.267078  0
C  C53  1  0.59033978  0.19125927  0.61175949  1  0  0.605044  0  3.970076  0  0  0.559047  0  4.262011  0  0  0.592714  0  4.256648  0  1.55858  0  0.184569  0.536324  0  4.264548  0
C  C54  1  0.10865681  0.60539271  0.33468394  1  0  0.173129  0  3.642027  0  0  0.111946  0  3.90623  0  0  0.127211  0  3.91757  0  0.969359  0  0.14408  0.102025  0  3.898338  0
C  C55  1  0.04843113  0.89435033  0.16530751  1  0  0.171566  0  3.645419  0  0  0.110807  0  3.909706  0  0  0.125909  0  3.921095  0  0.95959  0  0.143916  0.101029  0  3.90175  0
C  C56  1  0.89135913  0.39461031  0.66531283  1  0  0.173327  0  3.642117  0  0  0.112127  0  3.906319  0  0  0.127403  0  3.917657  0  0.969218  0  0.144071  0.102214  0  3.898433  0
C  C57  1  0.95155976  0.10564847  0.83468561  1  0  0.171601  0  3.645204  0  0  0.110844  0  3.9095  0  0  0.125946  0  3.920892  0  0.959462  0  0.143868  0.101064  0  3.901545  0
C  C58  1  0.96903803  0.48970558  0.30849360  1  0  -0.004076  0  3.76567  0  0  -0.037487  0  4.034932  0  0  -0.035623  0  4.054799  0  0.443507  0  -0.00814  -0.038719  0  4.021576  0
C  C59  1  0.76541567  0.00963462  0.19150024  1  0  -0.005408  0  3.766299  0  0  -0.039009  0  4.036357  0  0  -0.037114  0  4.056178  0  0.427352  0  -0.008429  -0.040273  0  4.023078  0
C  C60  1  0.03096176  0.51029070  0.69152064  1  0  -0.003921  0  3.765677  0  0  -0.037258  0  4.034961  0  0  -0.035391  0  4.054824  0  0.443802  0  -0.008005  -0.038497  0  4.021646  0
C  C61  1  0.23457783  0.99036166  0.80849936  1  0  -0.005379  0  3.766331  0  0  -0.038992  0  4.03641  0  0  -0.037096  0  4.05623  0  0.426846  0  -0.00844  -0.040257  0  4.023134  0
C  C62  1  0.35434686  0.63083310  0.91355550  1  0  0.059945  0  3.726416  0  0  0.050457  0  3.977719  0  0  0.047231  0  4.002459  0  0.155386  0  0.075628  0.052413  0  3.96106  0
C  C63  1  0.89646692  0.86975430  0.58572900  1  0  0.060459  0  3.728381  0  0  0.051889  0  3.978855  0  0  0.048737  0  4.003574  0  0.182727  0  0.075956  0.053842  0  3.962157  0
C  C64  1  0.64565871  0.36916908  0.08644321  1  0  0.060013  0  3.726327  0  0  0.050511  0  3.977651  0  0  0.047294  0  4.002377  0  0.155216  0  0.075556  0.048752  0  3.958876  0
C  C65  1  0.10352479  0.13025294  0.41426988  1  0  0.060297  0  3.728374  0  0  0.051757  0  3.978804  0  0  0.048606  0  4.003518  0  0.182262  0  0.075944  0.053713  0  3.962101  0
C  C66  1  0.51934771  0.66702577  0.04235297  1  0  -0.033969  0  3.716883  0  0  -0.019579  0  3.957576  0  0  -0.024875  0  3.979379  0  -0.035093  0  -0.006627  -0.016086  0  3.942806  0
C  C67  1  0.22825410  0.83303359  0.45684248  1  0  -0.035984  0  3.715395  0  0  -0.021938  0  3.956697  0  0  -0.027221  0  3.978454  0  -0.074565  0  -0.007529  -0.018468  0  3.941954  0
C  C68  1  0.48066461  0.33297472  0.95764754  1  0  -0.034003  0  3.717024  0  0  -0.019632  0  3.957737  0  0  -0.024929  0  3.979543  0  -0.035215  0  -0.006738  -0.016134  0  3.94291  0
C  C69  1  0.77173083  0.16696521  0.54315214  1  0  -0.035802  0  3.715305  0  0  -0.021804  0  3.956564  0  0  -0.027078  0  3.978322  0  -0.074172  0  -0.007432  -0.018339  0  3.941824  0
C  C70  1  0.24056715  0.62175942  0.00038071  1  0  -0.086177  0  3.703598  0  0  -0.110628  0  3.959817  0  0  -0.110572  0  3.978098  0  0.01899  0  -0.07254  -0.110406  0  3.947426  0
C  C71  1  0.86131663  0.87859180  0.49903244  1  0  -0.086639  0  3.707622  0  0  -0.11125  0  3.963698  0  0  -0.111296  0  3.981919  0  0.019075  0  -0.072642  -0.111032  0  3.951327  0
C  C72  1  0.75944182  0.37823685  0.99961837  1  0  -0.086222  0  3.703841  0  0  -0.11066  0  3.960058  0  0  -0.110611  0  3.978332  0  0.019632  0  -0.072462  -0.110602  0  3.948359  0
C  C73  1  0.13866460  0.12142219  0.50096514  1  0  -0.086421  0  3.707909  0  0  -0.111048  0  3.963879  0  0  -0.111095  0  3.982101  0  0.01942  0  -0.072602  -0.110829  0  3.951507  0
C  C74  1  0.32494261  0.63996836  0.06471684  1  0  -0.056811  0  3.686518  0  0  -0.079481  0  3.937246  0  0  -0.081363  0  3.957482  0  -0.031027  0  -0.076094  -0.078197  0  3.923502  0
C  C75  1  0.02918163  0.86012643  0.43465510  1  0  -0.055609  0  3.687412  0  0  -0.077671  0  3.937913  0  0  -0.079515  0  3.958094  0  0.012701  0  -0.075595  -0.076397  0  3.924242  0
C  C76  1  0.67506691  0.36003213  0.93528199  1  0  -0.056706  0  3.68658  0  0  -0.0794  0  3.937308  0  0  -0.08128  0  3.957543  0  -0.031463  0  -0.076108  -0.078114  0  3.923508  0
C  C77  1  0.97080422  0.13986900  0.56534672  1  0  -0.055775  0  3.687672  0  0  -0.077835  0  3.938168  0  0  -0.079682  0  3.95835  0  0.013095  0  -0.075702  -0.076558  0  3.924498  0
C  C78  1  0.54898905  0.65660753  0.88971155  1  0  -0.08147  0  3.715312  0  0  -0.105509  0  3.971113  0  0  -0.105911  0  3.990508  0  -0.018943  0  -0.074742  -0.105004  0  3.957803  0
C  C79  1  0.09291783  0.84366356  0.60949645  1  0  -0.083812  0  3.716747  0  0  -0.108204  0  3.972629  0  0  -0.108591  0  3.992049  0  -0.047435  0  -0.075243  -0.107689  0  3.959248  0
C  C80  1  0.45102589  0.34338875  0.11028605  1  0  -0.081481  0  3.715268  0  0  -0.105523  0  3.971025  0  0  -0.105925  0  3.990409  0  -0.018848  0  -0.07474  -0.105182  0  3.958388  0
C  C81  1  0.90707926  0.15634284  0.39049758  1  0  -0.083793  0  3.716911  0  0  -0.108187  0  3.972714  0  0  -0.108558  0  3.992109  0  -0.046577  0  -0.075243  -0.107659  0  3.959322  0
C  C82  1  0.63036208  0.67476164  0.95477745  1  0  -0.060568  0  3.706201  0  0  -0.084157  0  3.960793  0  0  -0.086227  0  3.981262  0  0.014714  0  -0.077592  -0.082723  0  3.946922  0
C  C83  1  0.25840220  0.82527326  0.54435724  1  0  -0.057273  0  3.706814  0  0  -0.080901  0  3.961444  0  0  -0.08297  0  3.981982  0  0.041595  0  -0.076798  -0.079437  0  3.94751  0
C  C84  1  0.36964794  0.32523548  0.04522154  1  0  -0.06056  0  3.7062  0  0  -0.084123  0  3.96076  0  0  -0.086196  0  3.981232  0  0.014592  0  -0.077506  -0.082698  0  3.946817  0
C  C85  1  0.74158623  0.17473060  0.45563511  1  0  -0.057444  0  3.706665  0  0  -0.080982  0  3.96137  0  0  -0.083065  0  3.981906  0  0.040498  0  -0.076874  -0.079514  0  3.947417  0
C  C86  1  0.39798065  0.51507174  0.48196139  1  0  -0.125947  0  3.693376  0  0  -0.164692  0  3.949407  0  0  -0.16643  0  3.964176  0  -0.047141  0  -0.165864  -0.163332  0  3.939243  0
C  C87  1  0.39503750  0.98481555  0.01837566  1  0  -0.125107  0  3.69529  0  0  -0.164008  0  3.951532  0  0  -0.165768  0  3.96639  0  -0.005425  0  -0.166064  -0.16262  0  3.941353  0
C  C88  1  0.60204594  0.48492032  0.51803771  1  0  -0.125731  0  3.692994  0  0  -0.164431  0  3.948981  0  0  -0.166163  0  3.963754  0  -0.02361  0  -0.165626  -0.163072  0  3.938818  0
C  C89  1  0.60495595  0.01518663  0.98162322  1  0  -0.124893  0  3.695072  0  0  -0.163781  0  3.951316  0  0  -0.165547  0  3.966186  0  -0.026113  0  -0.165953  -0.1624  0  3.941145  0
C  C90  1  0.41923765  0.47384160  0.40160401  1  0  0.005399  0  3.614448  0  0  -0.056868  0  3.868397  0  0  -0.052296  0  3.878854  0  0.323533  0  -0.053667  -0.059827  0  3.861302  0
C  C91  1  0.29445777  0.02593469  0.09887831  1  0  0.006363  0  3.613406  0  0  -0.055774  0  3.867671  0  0  -0.051231  0  3.878208  0  0.342877  0  -0.052667  -0.058756  0  3.860679  0
C  C92  1  0.58076886  0.52615467  0.59839902  1  0  0.00554  0  3.613806  0  0  -0.056865  0  3.867981  0  0  -0.052303  0  3.87846  0  0.323516  0  -0.05363  -0.059824  0  3.860908  0
C  C93  1  0.70553067  0.97406412  0.90111876  1  0  0.006355  0  3.613553  0  0  -0.055777  0  3.867787  0  0  -0.051257  0  3.878343  0  0.343464  0  -0.05265  -0.058756  0  3.860793  0
N  N94  1  0.95041744  0.60098451  0.30041383  1  0  -0.409417  0  3.292473  0  0  -0.328247  0  3.580069  0  0  -0.350805  0  3.596262  0  -1.240938  0  -0.367264  -0.312785  0  3.56859  0
N  N95  1  0.85079852  0.89851561  0.19921791  1  0  -0.406973  0  3.293017  0  0  -0.32566  0  3.579944  0  0  -0.348194  0  3.596291  0  -1.236849  0  -0.36652  -0.310212  0  3.568342  0
N  N96  1  0.04958864  0.39901345  0.69959155  1  0  -0.409547  0  3.292524  0  0  -0.328372  0  3.580124  0  0  -0.350933  0  3.596311  0  -1.241303  0  -0.36728  -0.312908  0  3.568643  0
N  N97  1  0.14919537  0.10147983  0.80078333  1  0  -0.406951  0  3.292883  0  0  -0.32564  0  3.579831  0  0  -0.348174  0  3.596175  0  -1.236864  0  -0.366504  -0.310192  0  3.56823  0
N  N98  1  0.22644931  0.50134523  0.36505179  1  0  -0.041613  0  3.553722  0  0  0.052992  0  3.769473  0  0  0.038996  0  3.794091  0  -1.236583  0  -0.23669  0.062194  0  3.752738  0
N  N99  1  0.09229749  0.99837589  0.13557369  1  0  -0.043634  0  3.559554  0  0  0.050999  0  3.775308  0  0  0.037087  0  3.79991  0  -1.228663  0  -0.237369  0.060162  0  3.758606  0
N  N100  1  0.77355793  0.49865526  0.63495380  1  0  -0.041831  0  3.553817  0  0  0.052824  0  3.76962  0  0  0.03882  0  3.794245  0  -1.236128  0  -0.236795  0.062028  0  3.752889  0
N  N101  1  0.90769443  0.00162208  0.86442044  1  0  -0.04359  0  3.559378  0  0  0.051082  0  3.77509  0  0  0.037168  0  3.799703  0  -1.229263  0  -0.237279  0.060246  0  3.758385  0
N  N102  1  0.26680687  0.61286203  0.84468268  1  0  0.465012  0  3.944247  0  0  0.507166  0  4.225484  0  0  0.527091  0  4.235239  0  0.351076  0  0.054546  0.493853  0  4.218867  0
N  N103  1  0.72116515  0.88754402  0.65481133  1  0  0.464723  0  3.948645  0  0  0.506504  0  4.230356  0  0  0.526325  0  4.24034  0  0.336955  0  0.055162  0.493237  0  4.2236  0
N  N104  1  0.73320067  0.38714268  0.15531843  1  0  0.464867  0  3.944419  0  0  0.507071  0  4.225618  0  0  0.52699  0  4.235381  0  0.351114  0  0.054765  0.506874  0  4.198888  0
N  N105  1  0.27882946  0.11245648  0.34518597  1  0  0.465209  0  3.948786  0  0  0.50695  0  4.230491  0  0  0.526775  0  4.24047  0  0.337129  0  0.055371  0.493673  0  4.223753  0
O  O106  1  0.36541839  0.62691245  0.76615705  1  0  -0.353391  0  1.758905  0  0  -0.337787  0  1.962263  0  0  -0.349342  0  1.959935  0  -0.481012  0  -0.125546  -0.330016  0  1.963914  0
O  O107  1  0.75464086  0.87453197  0.73300595  1  0  -0.353024  0  1.760565  0  0  -0.337061  0  1.963904  0  0  -0.348629  0  1.961622  0  -0.470291  0  -0.124843  -0.329253  0  1.965514  0
O  O108  1  0.63458948  0.37309311  0.23384319  1  0  -0.353395  0  1.759012  0  0  -0.337866  0  1.962439  0  0  -0.349434  0  1.96013  0  -0.481212  0  -0.12566  -0.334615  0  1.957798  0
O  O109  1  0.24537221  0.12547275  0.26698662  1  0  -0.353143  0  1.760711  0  0  -0.337204  0  1.964091  0  0  -0.348776  0  1.961808  0  -0.470473  0  -0.124888  -0.32939  0  1.965697  0
O  O110  1  0.09731609  0.58498473  0.86780428  1  0  -0.352641  0  1.75231  0  0  -0.334866  0  1.95065  0  0  -0.347179  0  1.948528  0  -0.474617  0  -0.124117  -0.326564  0  1.952142  0
O  O111  1  0.54685095  0.91394180  0.63231013  1  0  -0.352439  0  1.755271  0  0  -0.334874  0  1.954029  0  0  -0.347137  0  1.952005  0  -0.474522  0  -0.124762  -0.326598  0  1.955483  0
O  O112  1  0.90269192  0.41501914  0.13219988  1  0  -0.352535  0  1.752361  0  0  -0.334773  0  1.95068  0  0  -0.347088  0  1.948569  0  -0.474781  0  -0.124195  -0.331005  0  1.945873  0
O  O113  1  0.45314183  0.08605448  0.36768869  1  0  -0.352729  0  1.755435  0  0  -0.335141  0  1.95422  0  0  -0.347404  0  1.952195  0  -0.474473  0  -0.124907  -0.326863  0  1.955678  0
O  O114  1  0.50707870  0.67228002  0.19281571  1  0  -0.638558  0  1.973322  0  0  -0.577715  0  2.223885  0  0  -0.607104  0  2.21505  0  -1.158775  0  -0.33584  -0.557033  0  2.22909  0
O  O115  1  0.37356045  0.82554572  0.30693467  1  0  -0.639216  0  1.976192  0  0  -0.578506  0  2.227647  0  0  -0.607969  0  2.218763  0  -1.154876  0  -0.336371  -0.557744  0  2.232837  0
O  O116  1  0.49293421  0.32772553  0.80718994  1  0  -0.638625  0  1.973335  0  0  -0.577724  0  2.223806  0  0  -0.60712  0  2.214975  0  -1.158309  0  -0.335835  -0.557041  0  2.229019  0
O  O117  1  0.62643391  0.17445731  0.69305080  1  0  -0.639204  0  1.976315  0  0  -0.578514  0  2.227689  0  0  -0.60796  0  2.218766  0  -1.15462  0  -0.336322  -0.557752  0  2.232877  0
O  O118  1  0.76848654  0.73036020  0.08544791  1  0  -0.620378  0  1.901931  0  0  -0.566654  0  2.128779  0  0  -0.592889  0  2.121361  0  -1.173553  0  -0.328661  -0.548072  0  2.132992  0
O  O119  1  0.58494002  0.76969748  0.41369265  1  0  -0.619822  0  1.900824  0  0  -0.56626  0  2.126659  0  0  -0.592419  0  2.119488  0  -1.169397  0  -0.32892  -0.547774  0  2.130797  0
O  O120  1  0.23152065  0.26964620  0.91455696  1  0  -0.620309  0  1.901883  0  0  -0.566643  0  2.128786  0  0  -0.592875  0  2.121367  0  -1.173867  0  -0.328701  -0.548071  0  2.133025  0
O  O121  1  0.41504296  0.23028698  0.58629961  1  0  -0.620006  0  1.900802  0  0  -0.566483  0  2.126595  0  0  -0.592641  0  2.119424  0  -1.169405  0  -0.328985  -0.547997  0  2.130733  0
