# generated using pymatgen
data_Al4H30C88Br5N12Cl9O28
_symmetry_space_group_name_H-M   'P 1'
_cell_length_a   6.60444210
_cell_length_b   28.21321892
_cell_length_c   31.79667338
_cell_angle_alpha   78.11625851
_cell_angle_beta   90.05155542
_cell_angle_gamma   89.73560784
_symmetry_Int_Tables_number   1
_chemical_formula_structural   Al4H30C88Br5N12Cl9O28
_chemical_formula_sum   'Al4 H30 C88 Br5 N12 Cl9 O28'
_cell_volume   5797.70123507
_cell_formula_units_Z   1
loop_
 _symmetry_equiv_pos_site_id
 _symmetry_equiv_pos_as_xyz
  1  'x, y, z'
loop_
 _atom_site_type_symbol
 _atom_site_label
 _atom_site_symmetry_multiplicity
 _atom_site_fract_x
 _atom_site_fract_y
 _atom_site_fract_z
 _atom_site_occupancy
 _atom_site_pbe_bader_charge
 _atom_site_pbe_bader_spin_density
 _atom_site_pbe_cm5_charge
 _atom_site_pbe_ddec_charge
 _atom_site_pbe_ddec_spin_density
 _atom_site_pbe_ddec_sum_bond_order
 _atom_site_pbe_magmom
Al  Al0  1  0.10601411  0.49942093  0.49947106  1  2.499697  0  0.394846  1.642891  0  2.576095  0
Al  Al1  1  0.60564377  0.50209064  0.49781489  1  2.498604  0  0.396448  1.641531  0  2.571567  0
Al  Al2  1  0.69744901  0.00029158  0.99954504  1  2.499573  0  0.398411  1.64611  0  2.583187  0
Al  Al3  1  0.19885374  0.99951933  0.00120993  1  2.496765  0  0.396364  1.650472  0  2.582327  0
H  H4  1  0.15412744  0.57647102  0.37259412  1  0.133691  0  0.118031  0.14058  0  0.978309  0
H  H5  1  0.59012781  0.63352596  0.40938792  1  0.117905  0  0.114473  0.135849  0  0.985139  0
H  H6  1  0.24361916  0.83545008  0.18339283  1  0.095733  0  0.106494  0.105329  0  1.019596  0
H  H7  1  0.25755654  0.90034990  0.11617123  1  0.095955  0  0.11058  0.115269  0  0.997612  0
H  H8  1  0.61779211  0.88609231  0.09828745  1  0.108212  0  0.111268  0.116612  0  0.998479  0
H  H9  1  0.60565979  0.81868313  0.16360453  1  0.100701  0  0.105896  0.104065  0  1.023975  0
H  H10  1  0.29110005  0.77645474  0.67049906  1  0.142437  0  0.118221  0.137845  0  0.983195  0
H  H11  1  0.50495515  0.72480592  0.82821101  1  0.152411  0  0.115842  0.134138  0  0.989863  0
H  H12  1  0.71393395  0.95330104  0.88135814  1  0.074976  0  0.117835  0.122767  0  0.974532  0
H  H13  1  0.71027121  0.90130372  0.82616280  1  0.111031  0  0.119377  0.135472  0  0.960497  0
H  H14  1  0.57239808  0.62245021  0.56057736  1  0.10646  0  0.114862  0.133644  0  0.979789  0
H  H15  1  0.13080115  0.55385700  0.61151453  1  0.108619  0  0.113959  0.134691  0  0.982702  0
H  H16  1  0.79961144  0.16596136  0.27477397  1  0.127904  0  0.118975  0.126595  0  0.973918  0
H  H17  1  0.78381235  0.22163927  0.32815208  1  0.126774  0  0.118263  0.126142  0  0.975734  0
H  H18  1  0.06049330  0.33660460  0.37893679  1  0.090032  0  0.112875  0.127341  0  0.982296  0
H  H19  1  0.05949294  0.39133359  0.43169443  1  0.108324  0  0.113667  0.118625  0  0.989379  0
H  H20  1  0.66643285  0.43595520  0.39467357  1  0.084527  0  0.114693  0.119609  0  0.986525  0
H  H21  1  0.66596065  0.38315968  0.34042384  1  0.113867  0  0.112465  0.12524  0  0.984766  0
H  H22  1  0.14758395  0.05865817  0.10828702  1  0.144126  0  0.117184  0.135575  0  0.985038  0
H  H23  1  0.74304292  0.11154117  0.06934030  1  0.103335  0  0.112094  0.116543  0  0.988368  0
H  H24  1  0.72687593  0.16669665  0.12165589  1  0.097179  0  0.109825  0.123104  0  0.989567  0
H  H25  1  0.63530278  0.36158364  0.69723070  1  0.134909  0  0.111498  0.124369  0  1.010354  0
H  H26  1  0.12665766  0.29259204  0.65021995  1  0.124463  0  0.113157  0.12656  0  1.011349  0
H  H27  1  0.72634529  0.15667652  0.81116127  1  0.07339  0  0.104311  0.108679  0  1.013945  0
H  H28  1  0.74593700  0.09200745  0.87817810  1  0.119696  0  0.112238  0.120661  0  0.989097  0
H  H29  1  0.13440498  0.12512684  0.90914539  1  0.140131  0  0.113393  0.132249  0  0.98972  0
H  H30  1  0.34892937  0.55859350  0.50980776  1  0.619342  0  0.353926  0.433983  0  0.851051  0
H  H31  1  0.84916757  0.44076877  0.52668412  1  0.628838  0  0.338136  0.417826  0  0.888626  0
H  H32  1  0.44858547  0.94179910  0.98925403  1  0.604156  0  0.345233  0.424253  0  0.873393  0
H  H33  1  0.94767305  0.06334035  0.99754750  1  0.606798  0  0.36038  0.439296  0  0.838513  0
C  C34  1  0.36544845  0.44802336  0.44866172  1  1.558024  0  0.272651  0.643034  0  4.090194  0
C  C35  1  0.35335886  0.43819856  0.56433428  1  1.635024  0  0.261847  0.654902  0  4.111558  0
C  C36  1  0.84825183  0.55507723  0.54935130  1  1.599027  0  0.266071  0.641485  0  4.101892  0
C  C37  1  0.86614461  0.56221251  0.43421203  1  1.591566  0  0.274119  0.640508  0  4.093694  0
C  C38  1  0.03401549  0.60354366  0.36623365  1  0.045088  0  -0.084284  -0.162502  0  3.941778  0
C  C39  1  0.03806611  0.64009753  0.32942168  1  0.025504  0  0.023274  0.134612  0  4.027037  0
C  C40  1  0.88725626  0.67637693  0.32151691  1  0.074508  0  -0.008222  -0.083355  0  3.958275  0
C  C41  1  0.72761140  0.67358430  0.35117712  1  -0.097847  0  -0.007522  0.094832  0  3.949945  0
C  C42  1  0.71607653  0.63591398  0.38702731  1  0.045077  0  -0.086358  -0.152164  0  3.955246  0
C  C43  1  0.87161088  0.60137268  0.39472294  1  0.003495  0  -0.006116  -0.001157  0  3.971922  0
C  C44  1  0.91502572  0.78425101  0.21581539  1  0.971241  0  0.247348  0.256922  0  3.966061  0
C  C45  1  0.89730423  0.71591328  0.28297015  1  0.991553  0  0.235955  0.254894  0  4.024664  0
C  C46  1  0.10806584  0.84646786  0.16424619  1  -0.066743  0  -0.078391  -0.106248  0  3.954288  0
C  C47  1  0.11547508  0.88255630  0.12717469  1  -0.000918  0  -0.075504  -0.082384  0  3.954516  0
C  C48  1  0.93827025  0.89679756  0.10350792  1  -0.08866  0  -0.008667  -0.033957  0  3.959949  0
C  C49  1  0.75384757  0.87424392  0.11699292  1  0.016956  0  -0.077182  -0.08448  0  3.958905  0
C  C50  1  0.74694562  0.83721160  0.15325661  1  -0.050696  0  -0.078262  -0.10484  0  3.960095  0
C  C51  1  0.92394677  0.82323208  0.17727811  1  0.044241  0  0.001625  0.025024  0  3.985015  0
C  C52  1  0.73730911  0.66379318  0.71018385  1  1.33483  0  0.241035  0.44987  0  4.08309  0
C  C53  1  0.00617855  0.71285918  0.66575512  1  1.358815  0  0.243996  0.443723  0  4.105215  0
C  C54  1  0.02998179  0.74020925  0.70044925  1  0.018534  0  -0.001715  -0.03495  0  3.983725  0
C  C55  1  0.89233027  0.73409532  0.73526650  1  -0.004151  0  0.004457  0.037884  0  3.989232  0
C  C56  1  0.73553410  0.69890672  0.73920864  1  0.048255  0  -0.007392  -0.117649  0  3.911687  0
C  C57  1  0.18715876  0.77281922  0.69754381  1  -0.007792  0  -0.069821  -0.13944  0  3.925376  0
C  C58  1  0.21366706  0.80134775  0.72862356  1  0.113709  0  0.034945  0.150944  0  3.998425  0
C  C59  1  0.07500823  0.79875073  0.76242543  1  0.001306  0  -0.007211  -0.119931  0  3.912692  0
C  C60  1  0.91452284  0.76448465  0.76569281  1  0.050762  0  0.004143  0.035157  0  3.993329  0
C  C61  1  0.77255213  0.75920230  0.79968912  1  0.005101  0  -0.001454  -0.036466  0  3.988498  0
C  C62  1  0.61365884  0.72706698  0.80213192  1  0.012008  0  -0.069175  -0.136368  0  3.925152  0
C  C63  1  0.59269795  0.69710504  0.77209346  1  0.065398  0  0.035263  0.152174  0  4.001625  0
C  C64  1  0.08585390  0.83119575  0.79381862  1  1.371345  0  0.240194  0.450873  0  4.087926  0
C  C65  1  0.79097595  0.78751309  0.83373973  1  1.370007  0  0.244031  0.444797  0  4.103599  0
C  C66  1  0.07954705  0.84315323  0.89263502  1  -0.059615  0  -0.014213  -0.023352  0  3.929332  0
C  C67  1  0.08563075  0.87314128  0.92288517  1  0.107678  0  0.019047  0.092932  0  4.006022  0
C  C68  1  0.95437809  0.91329871  0.91820660  1  0.055768  0  -0.009887  -0.083168  0  3.948801  0
C  C69  1  0.81778235  0.92275992  0.88378788  1  0.033104  0  -0.074054  -0.069199  0  3.974852  0
C  C70  1  0.81532138  0.89397418  0.85321067  1  0.005739  0  -0.076484  -0.135513  0  3.961062  0
C  C71  1  0.94663294  0.85451542  0.85760080  1  0.400863  0  0.087842  0.164438  0  4.021764  0
C  C72  1  0.70416391  0.64878829  0.61335478  1  0.092775  0  0.022713  0.09579  0  4.045074  0
C  C73  1  0.69612545  0.61884026  0.58363070  1  0.043872  0  -0.085117  -0.156942  0  3.947535  0
C  C74  1  0.85163516  0.58534253  0.58277166  1  -0.019807  0  -0.006592  0.001969  0  3.973899  0
C  C75  1  0.01022451  0.58004332  0.61255025  1  0.034606  0  -0.088352  -0.150147  0  3.951101  0
C  C76  1  0.01013628  0.60808957  0.64384555  1  -0.053175  0  -0.008988  0.055198  0  3.955974  0
C  C77  1  0.85989159  0.64335077  0.64407087  1  0.40733  0  0.083582  0.087791  0  3.996594  0
C  C78  1  0.27864901  0.21204156  0.16619438  1  1.356535  0  0.241062  0.448387  0  4.079106  0
C  C79  1  0.55466098  0.16451927  0.21020668  1  1.355693  0  0.243875  0.440811  0  4.112351  0
C  C80  1  0.54327598  0.19894990  0.23943266  1  -0.026747  0  -0.005273  -0.061945  0  3.992117  0
C  C81  1  0.38779236  0.23447475  0.23510138  1  0.055745  0  0.003594  0.038807  0  3.993178  0
C  C82  1  0.24471726  0.23957279  0.20098433  1  0.013859  0  -0.005262  -0.103066  0  3.924013  0
C  C83  1  0.68429778  0.19413102  0.27247952  1  0.012744  0  -0.065104  -0.066519  0  3.940716  0
C  C84  1  0.67480415  0.22452011  0.30198755  1  -0.04981  0  -0.065154  -0.069344  0  3.945465  0
C  C85  1  0.52251473  0.25921542  0.29894777  1  -0.035398  0  -0.007214  -0.066607  0  4.00815  0
C  C86  1  0.37507004  0.26477985  0.26582230  1  -0.006683  0  0.000769  0.031927  0  4.000067  0
C  C87  1  0.21702257  0.29989951  0.26301221  1  0.038935  0  -0.006965  -0.094448  0  3.936151  0
C  C88  1  0.06815470  0.30191424  0.23129289  1  -0.069519  0  -0.001338  0.04187  0  3.887462  0
C  C89  1  0.08124459  0.27142299  0.20036286  1  0.143301  0  0.029284  0.097386  0  3.989186  0
C  C90  1  0.51957154  0.28975981  0.33150463  1  1.368955  0  0.242662  0.437292  0  4.117964  0
C  C91  1  0.21924441  0.33384542  0.29349602  1  1.322317  0  0.244778  0.449707  0  4.055046  0
C  C92  1  0.19224898  0.35866542  0.38231632  1  0.025088  0  -0.081285  -0.150425  0  3.962372  0
C  C93  1  0.19165797  0.38901273  0.41171993  1  -0.028624  0  -0.073466  -0.07082  0  3.959328  0
C  C94  1  0.36314936  0.41662971  0.41634411  1  0.012033  0  -0.012799  -0.052134  0  3.978654  0
C  C95  1  0.53417393  0.41435757  0.39071757  1  -0.012174  0  -0.073308  -0.069721  0  3.955214  0
C  C96  1  0.53405406  0.38491305  0.36061389  1  -0.019388  0  -0.080621  -0.149068  0  3.962872  0
C  C97  1  0.36356054  0.35694080  0.35693140  1  0.291748  0  0.09377  0.201855  0  3.995611  0
C  C98  1  0.26960773  0.11121462  0.14188092  1  0.068799  0  0.018445  0.07665  0  4.039459  0
C  C99  1  0.27465026  0.08207820  0.11151279  1  0.014773  0  -0.080678  -0.145501  0  3.945068  0
C  C100  1  0.44496260  0.08244349  0.08530307  1  -0.00451  0  -0.009148  -0.027971  0  3.976615  0
C  C101  1  0.61006323  0.11213197  0.08944366  1  -0.057259  0  -0.077123  -0.079384  0  3.961466  0
C  C102  1  0.60137080  0.14267538  0.11863642  1  0.054283  0  -0.078464  -0.131905  0  3.968259  0
C  C103  1  0.43159607  0.14246558  0.14475311  1  0.350435  0  0.091284  0.144322  0  3.990139  0
C  C104  1  0.50738828  0.39869122  0.63682301  1  -0.092746  0  -0.004034  0.109399  0  3.945305  0
C  C105  1  0.52001505  0.36123792  0.67283200  1  0.019705  0  -0.087432  -0.17106  0  3.955744  0
C  C106  1  0.38339920  0.32267689  0.67752315  1  0.008909  0  0.002352  0.058475  0  3.993374  0
C  C107  1  0.23303588  0.32247881  0.64647976  1  0.043165  0  -0.085388  -0.181015  0  3.940359  0
C  C108  1  0.22363931  0.36006491  0.61049242  1  0.045179  0  0.026676  0.152642  0  4.007177  0
C  C109  1  0.36145098  0.39903847  0.60434943  1  0.068136  0  -0.01321  -0.135284  0  3.89087  0
C  C110  1  0.41666332  0.21438873  0.78258698  1  0.969491  0  0.243237  0.259281  0  3.988801  0
C  C111  1  0.40045733  0.28191212  0.71457658  1  0.949956  0  0.248092  0.255812  0  3.965625  0
C  C112  1  0.59788915  0.14943071  0.83294692  1  0.036327  0  -0.079127  -0.09258  0  3.975914  0
C  C113  1  0.60857447  0.11342999  0.86997581  1  -0.078129  0  -0.082262  -0.095712  0  3.967709  0
C  C114  1  0.44016041  0.10424211  0.89712312  1  0.014965  0  -0.008448  -0.015946  0  3.962996  0
C  C115  1  0.26363331  0.13205759  0.88754959  1  0.009527  0  -0.084387  -0.156763  0  3.942521  0
C  C116  1  0.25602947  0.16902974  0.85104517  1  0.025095  0  0.020889  0.119364  0  4.02596  0
C  C117  1  0.42177219  0.17749796  0.82271885  1  0.007287  0  -0.004312  -0.033368  0  3.975071  0
C  C118  1  0.44863159  0.06535582  0.93692041  1  1.597992  0  0.266406  0.636103  0  4.10634  0
C  C119  1  0.44505713  0.05125011  0.05270952  1  1.58419  0  0.272268  0.644474  0  4.094457  0
C  C120  1  0.94301830  0.93552393  0.06375050  1  1.565428  0  0.267668  0.635861  0  4.108758  0
C  C121  1  0.95437864  0.94698754  0.94897077  1  1.591595  0  0.270368  0.658472  0  4.098702  0
Br  Br122  1  0.24782393  0.78815142  0.89855891  1  0.022605  0  0.061339  0.005907  0  1.570725  0
Br  Br123  1  0.21926308  0.59916075  0.68543906  1  0.00729  0  0.051707  -0.015801  0  1.550096  0
Br  Br124  1  0.84362506  0.34431476  0.22659028  1  0.051319  0  0.080766  0.016222  0  1.580213  0
Br  Br125  1  0.52462475  0.72254743  0.34362535  1  -0.011436  0  0.038334  -0.047786  0  1.459857  0
Br  Br126  1  0.69224598  0.45064247  0.63474357  1  -0.027353  0  0.049485  -0.027705  0  1.438923  0
N  N127  1  0.74888406  0.71785313  0.25340956  1  -0.523303  0  -0.156143  -0.142156  0  3.213591  0
N  N128  1  0.75821592  0.75288001  0.21890267  1  -0.555441  0  -0.152074  -0.139774  0  3.184024  0
N  N129  1  0.06286099  0.78214970  0.24566570  1  -0.584362  0  -0.152412  -0.140278  0  3.175988  0
N  N130  1  0.05384916  0.74694851  0.28016770  1  -0.540334  0  -0.155444  -0.141303  0  3.217149  0
N  N131  1  0.86753744  0.67457559  0.67429303  1  -1.176532  0  -0.241763  -0.232456  0  3.685705  0
N  N132  1  0.93729121  0.82410041  0.82646720  1  -1.233818  0  -0.238082  -0.23358  0  3.637485  0
N  N133  1  0.42192826  0.17383477  0.17501111  1  -1.189358  0  -0.235565  -0.225565  0  3.632051  0
N  N134  1  0.36624597  0.32516102  0.32665961  1  -1.208817  0  -0.22718  -0.21776  0  3.575683  0
N  N135  1  0.25220043  0.24821390  0.72039910  1  -0.51468  0  -0.149126  -0.132295  0  3.19919  0
N  N136  1  0.26022750  0.21356623  0.75511581  1  -0.537851  0  -0.155331  -0.150596  0  3.213452  0
N  N137  1  0.57916586  0.24357223  0.77354621  1  -0.5418  0  -0.151849  -0.138195  0  3.186557  0
N  N138  1  0.57115663  0.27814222  0.73856438  1  -0.553129  0  -0.15263  -0.141655  0  3.19109  0
Cl  Cl139  1  0.42187963  0.83844611  0.72154694  1  -0.149982  0  0.024798  -0.029261  0  1.522067  0
Cl  Cl140  1  0.38473004  0.66001607  0.77844213  1  -0.150528  0  0.027228  -0.028261  0  1.548379  0
Cl  Cl141  1  0.24496909  0.85831654  0.96659754  1  -0.170681  0  0.017023  -0.042655  0  1.559186  0
Cl  Cl142  1  0.52154730  0.69272063  0.61204447  1  -0.16523  0  0.010755  -0.03739  0  1.596075  0
Cl  Cl143  1  0.22885834  0.63957231  0.29238995  1  -0.175122  0  0.001873  -0.063192  0  1.515285  0
Cl  Cl144  1  0.89113183  0.27447633  0.16336360  1  -0.123218  0  0.035672  -0.0086  0  1.663461  0
Cl  Cl145  1  0.06378643  0.10865341  0.17551057  1  -0.177245  0  0.014584  -0.04192  0  1.600223  0
Cl  Cl146  1  0.04160288  0.35514929  0.57235144  1  -0.191266  0  0.012269  -0.054666  0  1.486525  0
Cl  Cl147  1  0.04502081  0.20629466  0.84241504  1  -0.185517  0  0.009026  -0.070579  0  1.55553  0
O  O148  1  0.51801418  0.44805386  0.54387527  1  -1.253594  0  -0.234674  -0.593589  0  2.368387  0
O  O149  1  0.20088301  0.45289286  0.46834723  1  -1.266174  0  -0.234844  -0.595828  0  2.35319  0
O  O150  1  0.03228534  0.54074207  0.44631747  1  -1.257922  0  -0.228301  -0.573621  0  2.336121  0
O  O151  1  0.18165022  0.45741006  0.55391905  1  -1.247508  0  -0.236403  -0.596336  0  2.384348  0
O  O152  1  0.01791438  0.54608287  0.53366223  1  -1.252432  0  -0.236103  -0.592709  0  2.331378  0
O  O153  1  0.53325961  0.46756967  0.45492748  1  -1.256654  0  -0.230099  -0.579338  0  2.339147  0
O  O154  1  0.35292888  0.53082673  0.49622998  1  -1.420104  0  -0.448708  -0.987707  0  2.200831  0
O  O155  1  0.67504072  0.54126461  0.53922661  1  -1.259447  0  -0.238009  -0.604464  0  2.368798  0
O  O156  1  0.69696313  0.55368677  0.45328777  1  -1.262818  0  -0.230048  -0.579303  0  2.3415  0
O  O157  1  0.85452017  0.47057314  0.50502231  1  -1.432237  0  -0.448342  -0.986451  0  2.200485  0
O  O158  1  0.63650268  0.62665351  0.71610980  1  -1.081723  0  -0.263074  -0.41381  0  2.188466  0
O  O159  1  0.10103270  0.72207822  0.63192769  1  -1.098718  0  -0.267615  -0.419126  0  2.133186  0
O  O160  1  0.21245707  0.86309785  0.79264926  1  -1.075047  0  -0.270489  -0.424063  0  2.131948  0
O  O161  1  0.68689531  0.78018920  0.86635656  1  -1.091974  0  -0.265894  -0.423424  0  2.155413  0
O  O162  1  0.19352261  0.22103468  0.13120875  1  -1.070795  0  -0.265184  -0.416144  0  2.139171  0
O  O163  1  0.67240077  0.12993857  0.21585325  1  -1.082512  0  -0.270517  -0.42748  0  2.130494  0
O  O164  1  0.64351547  0.28494487  0.36097347  1  -1.082156  0  -0.272648  -0.432533  0  2.080576  0
O  O165  1  0.10395886  0.36850967  0.29074751  1  -1.070208  0  -0.26076  -0.413926  0  2.166533  0
O  O166  1  0.27464902  0.03467326  0.04398835  1  -1.252652  0  -0.232048  -0.586478  0  2.34907  0
O  O167  1  0.62233373  0.04765112  0.94865197  1  -1.254998  0  -0.23745  -0.592553  0  2.340001  0
O  O168  1  0.78193901  0.95765792  0.96223066  1  -1.248887  0  -0.229774  -0.583262  0  2.328716  0
O  O169  1  0.61318908  0.04385173  0.03552692  1  -1.258925  0  -0.232428  -0.591527  0  2.33866  0
O  O170  1  0.77269331  0.95292616  0.04915362  1  -1.256803  0  -0.234553  -0.588774  0  2.356486  0
O  O171  1  0.28176820  0.05344107  0.95614222  1  -1.261768  0  -0.238129  -0.594566  0  2.346731  0
O  O172  1  0.44888074  0.97042863  0.00174323  1  -1.405641  0  -0.448321  -0.992613  0  2.218798  0
O  O173  1  0.11497690  0.94779986  0.04697147  1  -1.248666  0  -0.235728  -0.59305  0  2.349833  0
O  O174  1  0.12394506  0.96277663  0.95865008  1  -1.249419  0  -0.23269  -0.593431  0  2.373478  0
O  O175  1  0.94810201  0.02912684  0.99728324  1  -1.409903  0  -0.448495  -1.000365  0  2.233331  0
