# generated using pymatgen
data_AgH4C6N5
_symmetry_space_group_name_H-M   'P 1'
_cell_length_a   7.24266752
_cell_length_b   8.43023907
_cell_length_c   11.12215530
_cell_angle_alpha   90.00016669
_cell_angle_beta   90.00006387
_cell_angle_gamma   98.65655971
_symmetry_Int_Tables_number   1
_chemical_formula_structural   AgH4C6N5
_chemical_formula_sum   'Ag4 H16 C24 N20'
_cell_volume   671.35409195
_cell_formula_units_Z   4
loop_
 _symmetry_equiv_pos_site_id
 _symmetry_equiv_pos_as_xyz
  1  'x, y, z'
loop_
 _atom_site_type_symbol
 _atom_site_label
 _atom_site_symmetry_multiplicity
 _atom_site_fract_x
 _atom_site_fract_y
 _atom_site_fract_z
 _atom_site_occupancy
 _atom_site_hle17_bader_spin_density
 _atom_site_hle17_ddec_charge
 _atom_site_hle17_ddec_spin_density
 _atom_site_hle17_ddec_sum_bond_order
 _atom_site_hle17_magmom
 _atom_site_hse06_10hf_bader_spin_density
 _atom_site_hse06_10hf_ddec_charge
 _atom_site_hse06_10hf_ddec_spin_density
 _atom_site_hse06_10hf_ddec_sum_bond_order
 _atom_site_hse06_10hf_magmom
 _atom_site_hse06_bader_spin_density
 _atom_site_hse06_ddec_charge
 _atom_site_hse06_ddec_spin_density
 _atom_site_hse06_ddec_sum_bond_order
 _atom_site_hse06_magmom
 _atom_site_pbe_bader_spin_density
 _atom_site_pbe_cm5_charge
 _atom_site_pbe_ddec_charge
 _atom_site_pbe_ddec_spin_density
 _atom_site_pbe_ddec_sum_bond_order
 _atom_site_pbe_magmom
Ag  Ag0  1  0.20648044  0.85632962  0.47993138  1  0  0.452185  0  1.483687  0  0  0.286023  0  1.94017  0  0  0.314449  0  1.898122  0  0  0.467182  0.267329  0  1.968656  0
Ag  Ag1  1  0.79351959  0.64367166  0.97993067  1  0  0.452171  0  1.483695  0  0  0.286045  0  1.94015  0  0  0.314463  0  1.898116  0  0  0.467185  0.26736  0  1.968644  0
Ag  Ag2  1  0.79352143  0.14367217  0.52006871  1  0  0.452156  0  1.483698  0  0  0.286016  0  1.940143  0  0  0.314432  0  1.89811  0  0  0.467177  0.26732  0  1.96863  0
Ag  Ag3  1  0.20648049  0.35632773  0.02006942  1  0  0.452188  0  1.483672  0  0  0.28603  0  1.940142  0  0  0.314453  0  1.898099  0  0  0.467194  0.267344  0  1.968632  0
H  H4  1  0.50472443  0.97231735  0.31603622  1  0  0.097451  0  0.978107  0  0  0.101784  0  1.057363  0  0  0.106101  0  1.053156  0  0  0.099556  0.098578  0  1.060649  0
H  H5  1  0.49527202  0.52768085  0.81603324  1  0  0.097489  0  0.978122  0  0  0.101817  0  1.057367  0  0  0.106135  0  1.053159  0  0  0.09956  0.098597  0  1.060672  0
H  H6  1  0.49527703  0.02768204  0.68396386  1  0  0.097533  0  0.978131  0  0  0.101869  0  1.057361  0  0  0.106187  0  1.053152  0  0  0.099588  0.098666  0  1.060644  0
H  H7  1  0.50472370  0.47231734  0.18396504  1  0  0.097476  0  0.978113  0  0  0.101816  0  1.057345  0  0  0.106134  0  1.053138  0  0  0.09957  0.098612  0  1.060635  0
H  H8  1  0.72750590  0.81166463  0.21883823  1  0  0.075675  0  0.994723  0  0  0.073954  0  1.075367  0  0  0.077422  0  1.072216  0  0  0.109838  0.0714  0  1.077662  0
H  H9  1  0.27249529  0.68833797  0.71883635  1  0  0.075706  0  0.994681  0  0  0.073993  0  1.075315  0  0  0.077455  0  1.072177  0  0  0.109842  0.071439  0  1.077611  0
H  H10  1  0.27249597  0.18833716  0.78116185  1  0  0.075693  0  0.994685  0  0  0.073988  0  1.075302  0  0  0.077449  0  1.072168  0  0  0.109853  0.071434  0  1.077597  0
H  H11  1  0.72750541  0.31166502  0.28116104  1  0  0.075686  0  0.994697  0  0  0.073971  0  1.075336  0  0  0.077436  0  1.07219  0  0  0.109844  0.071418  0  1.077629  0
H  H12  1  0.39690925  0.73919231  0.91344172  1  0  0.067167  0  0.968379  0  0  0.077117  0  1.03737  0  0  0.07887  0  1.035524  0  0  0.110294  0.075759  0  1.038912  0
H  H13  1  0.60309338  0.76080870  0.41344070  1  0  0.067158  0  0.968408  0  0  0.077111  0  1.037397  0  0  0.078864  0  1.03555  0  0  0.110284  0.07575  0  1.038939  0
H  H14  1  0.60309082  0.26080708  0.08656106  1  0  0.067153  0  0.968414  0  0  0.077102  0  1.037394  0  0  0.078856  0  1.035547  0  0  0.110275  0.075743  0  1.038937  0
H  H15  1  0.39690987  0.23919309  0.58655848  1  0  0.067173  0  0.968386  0  0  0.077117  0  1.037379  0  0  0.07887  0  1.035534  0  0  0.110289  0.075755  0  1.03892  0
H  H16  1  0.16078088  0.89223083  0.99791194  1  0  0.116967  0  0.970995  0  0  0.118088  0  1.048121  0  0  0.122322  0  1.045175  0  0  0.108017  0.115025  0  1.050372  0
H  H17  1  0.83921898  0.60776933  0.49791166  1  0  0.116985  0  0.970969  0  0  0.118106  0  1.0481  0  0  0.122341  0  1.045152  0  0  0.108005  0.11504  0  1.050349  0
H  H18  1  0.83921781  0.10776856  0.00208994  1  0  0.117029  0  0.970884  0  0  0.118152  0  1.048013  0  0  0.122386  0  1.045067  0  0  0.108033  0.115088  0  1.050266  0
H  H19  1  0.16078247  0.39223006  0.50208843  1  0  0.116992  0  0.970952  0  0  0.118116  0  1.048087  0  0  0.122351  0  1.04514  0  0  0.10801  0.11505  0  1.050336  0
C  C20  1  0.17041497  0.02498155  0.22087365  1  0  0.25002  0  3.799181  0  0  0.228271  0  4.059246  0  0  0.236322  0  4.078042  0  0  0.209518  0.222927  0  4.046455  0
C  C21  1  0.82958288  0.47501678  0.72087099  1  0  0.249972  0  3.799145  0  0  0.228503  0  4.058931  0  0  0.236555  0  4.077722  0  0  0.209558  0.223162  0  4.046134  0
C  C22  1  0.82958510  0.97501784  0.77912824  1  0  0.249993  0  3.799155  0  0  0.228449  0  4.058969  0  0  0.236503  0  4.077755  0  0  0.209558  0.223106  0  4.046175  0
C  C23  1  0.17041423  0.52498140  0.27912819  1  0  0.250009  0  3.799135  0  0  0.228457  0  4.058936  0  0  0.236507  0  4.077732  0  0  0.209555  0.223117  0  4.046139  0
C  C24  1  0.31157984  0.94192215  0.16582063  1  0  0.071043  0  3.769326  0  0  0.084336  0  3.99778  0  0  0.088189  0  4.018201  0  0  0.016348  0.081758  0  3.984096  0
C  C25  1  0.68841741  0.55807423  0.66581785  1  0  0.071117  0  3.769255  0  0  0.084252  0  3.997798  0  0  0.088105  0  4.018219  0  0  0.016374  0.081673  0  3.984108  0
C  C26  1  0.68841705  0.05807484  0.83418125  1  0  0.071048  0  3.769374  0  0  0.084304  0  3.997771  0  0  0.088157  0  4.018191  0  0  0.016357  0.081726  0  3.984087  0
C  C27  1  0.31158086  0.44192276  0.33418133  1  0  0.071013  0  3.7694  0  0  0.084308  0  3.997756  0  0  0.08816  0  4.018179  0  0  0.016335  0.081727  0  3.984066  0
C  C28  1  0.47447979  0.91969854  0.22734741  1  0  -0.158044  0  3.718182  0  0  -0.174751  0  3.96577  0  0  -0.18208  0  3.986169  0  0  -0.088792  -0.170045  0  3.952393  0
C  C29  1  0.52551962  0.58030169  0.72734456  1  0  -0.158109  0  3.718269  0  0  -0.174776  0  3.965896  0  0  -0.182103  0  3.986293  0  0  -0.088801  -0.17006  0  3.952534  0
C  C30  1  0.52551711  0.08029845  0.77265088  1  0  -0.158172  0  3.718295  0  0  -0.174889  0  3.965911  0  0  -0.182219  0  3.986307  0  0  -0.088839  -0.170183  0  3.952532  0
C  C31  1  0.47447928  0.41969890  0.27265282  1  0  -0.158102  0  3.718264  0  0  -0.174824  0  3.96585  0  0  -0.182152  0  3.986247  0  0  -0.088823  -0.170123  0  3.95248  0
C  C32  1  0.60000954  0.83252057  0.17319148  1  0  0.121756  0  3.698191  0  0  0.093765  0  3.942544  0  0  0.099589  0  3.962458  0  0  0.035643  0.089852  0  3.929375  0
C  C33  1  0.39999250  0.66747943  0.67318874  1  0  0.121724  0  3.698215  0  0  0.093714  0  3.94258  0  0  0.099536  0  3.962492  0  0  0.035606  0.089791  0  3.929426  0
C  C34  1  0.39999330  0.16747882  0.82680950  1  0  0.121781  0  3.698077  0  0  0.093766  0  3.94245  0  0  0.099588  0  3.962361  0  0  0.035611  0.089847  0  3.929295  0
C  C35  1  0.60000778  0.33252116  0.32680954  1  0  0.121755  0  3.69816  0  0  0.09374  0  3.942534  0  0  0.099563  0  3.962445  0  0  0.035617  0.089821  0  3.929373  0
C  C36  1  0.41644337  0.79136173  0.00278465  1  0  0.114366  0  3.726424  0  0  0.083516  0  3.979348  0  0  0.090606  0  3.99728  0  0  0.037578  0.078771  0  3.96737  0
C  C37  1  0.58355825  0.70863756  0.50278304  1  0  0.114395  0  3.726406  0  0  0.083552  0  3.979326  0  0  0.090643  0  3.99726  0  0  0.037608  0.078809  0  3.967336  0
C  C38  1  0.58355490  0.20863525  0.99721723  1  0  0.114415  0  3.726647  0  0  0.083592  0  3.979544  0  0  0.090682  0  3.997478  0  0  0.037666  0.078851  0  3.967559  0
C  C39  1  0.41644777  0.29136423  0.49721525  1  0  0.11436  0  3.726498  0  0  0.08353  0  3.979408  0  0  0.090621  0  3.99734  0  0  0.037618  0.07879  0  3.967415  0
C  C40  1  0.28483639  0.87808325  0.04978908  1  0  -0.123525  0  3.671242  0  0  -0.145734  0  3.920906  0  0  -0.152122  0  3.940874  0  0  -0.079822  -0.141726  0  3.907797  0
C  C41  1  0.71516597  0.62191984  0.54978827  1  0  -0.123551  0  3.671202  0  0  -0.145733  0  3.920883  0  0  -0.152124  0  3.940854  0  0  -0.079807  -0.141724  0  3.907764  0
C  C42  1  0.71516452  0.12192094  0.95021280  1  0  -0.1236  0  3.671295  0  0  -0.145846  0  3.920994  0  0  -0.152235  0  3.940964  0  0  -0.079851  -0.14184  0  3.907885  0
C  C43  1  0.28483389  0.37807835  0.45021182  1  0  -0.12351  0  3.671215  0  0  -0.145759  0  3.920872  0  0  -0.152149  0  3.940842  0  0  -0.079802  -0.14175  0  3.907753  0
N  N44  1  0.12255040  0.01547054  0.33818182  1  0  -0.286962  0  3.224343  0  0  -0.223426  0  3.523445  0  0  -0.239504  0  3.53854  0  0  -0.24784  -0.212528  0  3.513026  0
N  N45  1  0.87744657  0.48452948  0.83818012  1  0  -0.287003  0  3.2242  0  0  -0.223602  0  3.523297  0  0  -0.23968  0  3.538388  0  0  -0.247899  -0.212706  0  3.512888  0
N  N46  1  0.87744851  0.98453005  0.66182007  1  0  -0.286949  0  3.224143  0  0  -0.223499  0  3.523218  0  0  -0.239577  0  3.538308  0  0  -0.24785  -0.2126  0  3.5128  0
N  N47  1  0.12255074  0.51546990  0.16181997  1  0  -0.286973  0  3.224091  0  0  -0.223521  0  3.52317  0  0  -0.239598  0  3.538262  0  0  -0.247877  -0.212626  0  3.51276  0
N  N48  1  0.98023044  0.10047323  0.34866130  1  0  -0.099359  0  3.144777  0  0  -0.052371  0  3.450994  0  0  -0.05784  0  3.463701  0  0  -0.116473  -0.048542  0  3.44227  0
N  N49  1  0.01976856  0.39953043  0.84866060  1  0  -0.099314  0  3.144708  0  0  -0.052302  0  3.45094  0  0  -0.057769  0  3.463644  0  0  -0.116445  -0.048477  0  3.442227  0
N  N50  1  0.01977005  0.89952856  0.65133968  1  0  -0.099386  0  3.144592  0  0  -0.052387  0  3.450819  0  0  -0.057855  0  3.463524  0  0  -0.116502  -0.048558  0  3.442095  0
N  N51  1  0.98022938  0.60047256  0.15134038  1  0  -0.099429  0  3.144591  0  0  -0.052441  0  3.450845  0  0  -0.057909  0  3.463549  0  0  -0.116503  -0.048616  0  3.442134  0
N  N52  1  0.94526071  0.16064151  0.24269538  1  0  -0.085688  0  2.99525  0  0  -0.071704  0  3.27938  0  0  -0.073158  0  3.294925  0  0  -0.096571  -0.070287  0  3.268629  0
N  N53  1  0.05473941  0.33936171  0.74269457  1  0  -0.085658  0  2.995238  0  0  -0.071677  0  3.279388  0  0  -0.073131  0  3.294931  0  0  -0.096561  -0.070257  0  3.268635  0
N  N54  1  0.05473979  0.83936028  0.75730560  1  0  -0.085645  0  2.99504  0  0  -0.071661  0  3.279185  0  0  -0.073114  0  3.294728  0  0  -0.096542  -0.070242  0  3.268434  0
N  N55  1  0.94525970  0.66064008  0.25730641  1  0  -0.085583  0  2.995036  0  0  -0.071595  0  3.279176  0  0  -0.073049  0  3.29472  0  0  -0.096533  -0.070176  0  3.268425  0
N  N56  1  0.06196279  0.11476803  0.16042949  1  0  -0.308658  0  3.039326  0  0  -0.26176  0  3.331192  0  0  -0.274293  0  3.342581  0  0  -0.220787  -0.253195  0  3.323359  0
N  N57  1  0.93803671  0.38523245  0.66042851  1  0  -0.30866  0  3.039409  0  0  -0.261851  0  3.331221  0  0  -0.274382  0  3.342607  0  0  -0.220808  -0.253283  0  3.323378  0
N  N58  1  0.93803750  0.88523256  0.83957150  1  0  -0.308656  0  3.039339  0  0  -0.261837  0  3.331167  0  0  -0.274369  0  3.342553  0  0  -0.220806  -0.253272  0  3.323334  0
N  N59  1  0.06196198  0.61476693  0.33957157  1  0  -0.308688  0  3.039334  0  0  -0.261872  0  3.331173  0  0  -0.274404  0  3.342561  0  0  -0.220798  -0.253304  0  3.323332  0
N  N60  1  0.57147469  0.76659146  0.06280362  1  0  -0.304368  0  3.310165  0  0  -0.2171  0  3.589232  0  0  -0.23486  0  3.6043  0  0  -0.343683  -0.205066  0  3.578738  0
N  N61  1  0.42852432  0.73340809  0.56280285  1  0  -0.30442  0  3.310109  0  0  -0.217144  0  3.589174  0  0  -0.234902  0  3.604243  0  0  -0.343709  -0.205108  0  3.578671  0
N  N62  1  0.42852539  0.23340793  0.93719826  1  0  -0.30441  0  3.310169  0  0  -0.217124  0  3.589215  0  0  -0.234882  0  3.604284  0  0  -0.343723  -0.205089  0  3.578716  0
N  N63  1  0.57147458  0.26659250  0.43719634  1  0  -0.304375  0  3.310192  0  0  -0.217087  0  3.589236  0  0  -0.234844  0  3.604304  0  0  -0.343699  -0.205053  0  3.578732  0
