# generated using pymatgen
data_PrH3(C5O4)2
_symmetry_space_group_name_H-M   'P 1'
_cell_length_a   7.36027256
_cell_length_b   8.23536656
_cell_length_c   8.70449499
_cell_angle_alpha   65.59115978
_cell_angle_beta   85.38244507
_cell_angle_gamma   83.77649523
_symmetry_Int_Tables_number   1
_chemical_formula_structural   PrH3(C5O4)2
_chemical_formula_sum   'Pr2 H6 C20 O16'
_cell_volume   477.25711953
_cell_formula_units_Z   2
loop_
 _symmetry_equiv_pos_site_id
 _symmetry_equiv_pos_as_xyz
  1  'x, y, z'
loop_
 _atom_site_type_symbol
 _atom_site_label
 _atom_site_symmetry_multiplicity
 _atom_site_fract_x
 _atom_site_fract_y
 _atom_site_fract_z
 _atom_site_occupancy
 _atom_site_hle17_bader_spin_density
 _atom_site_hle17_ddec_charge
 _atom_site_hle17_ddec_spin_density
 _atom_site_hle17_ddec_sum_bond_order
 _atom_site_hle17_magmom
 _atom_site_hse06_10hf_bader_spin_density
 _atom_site_hse06_10hf_ddec_charge
 _atom_site_hse06_10hf_ddec_spin_density
 _atom_site_hse06_10hf_ddec_sum_bond_order
 _atom_site_hse06_10hf_magmom
 _atom_site_hse06_bader_spin_density
 _atom_site_hse06_ddec_charge
 _atom_site_hse06_ddec_spin_density
 _atom_site_hse06_ddec_sum_bond_order
 _atom_site_hse06_magmom
 _atom_site_pbe_bader_spin_density
 _atom_site_pbe_cm5_charge
 _atom_site_pbe_ddec_charge
 _atom_site_pbe_ddec_spin_density
 _atom_site_pbe_ddec_sum_bond_order
 _atom_site_pbe_magmom
Pr  Pr0  1  0.92998265  0.25732495  0.99406358  1  0  2.284593  0  1.614225  0  0  2.121209  0  2.07873  0  0  2.2147  0  1.942316  0  0  1.513226  2.087431  0  2.114512  0
Pr  Pr1  1  0.07001573  0.74266984  0.00593988  1  0  2.284551  0  1.614259  0  0  2.121139  0  2.078824  0  0  2.214665  0  1.942356  0  0  1.513207  2.087362  0  2.114607  0
H  H2  1  0.49252149  0.21788418  0.00539669  1  0  0.433159  0  0.864418  0  0  0.399878  0  0.937995  0  0  0.41238  0  0.920289  0  0  0.325325  0.391045  0  0.950568  0
H  H3  1  0.50747928  0.78211461  0.99460506  1  0  0.433155  0  0.864424  0  0  0.399859  0  0.938024  0  0  0.412361  0  0.920318  0  0  0.325311  0.391028  0  0.950593  0
H  H4  1  0.07145609  0.69529713  0.54355564  1  0  0.13758  0  0.92676  0  0  0.14737  0  0.984361  0  0  0.152005  0  0.980942  0  0  0.12525  0.144118  0  0.986723  0
H  H5  1  0.92854048  0.30470300  0.45644585  1  0  0.137568  0  0.926728  0  0  0.147355  0  0.984327  0  0  0.151989  0  0.98091  0  0  0.125249  0.144104  0  0.986688  0
H  H6  1  0.73458139  0.78053674  0.47783274  1  0  0.131714  0  0.924199  0  0  0.139832  0  0.985556  0  0  0.144623  0  0.980399  0  0  0.123381  0.136451  0  0.989032  0
H  H7  1  0.26541803  0.21946206  0.52216794  1  0  0.131706  0  0.924202  0  0  0.139826  0  0.985559  0  0  0.144617  0  0.980401  0  0  0.123373  0.136454  0  0.989024  0
C  C8  1  0.66168932  0.49134074  0.75044462  1  0  0.674808  0  3.884663  0  0  0.62585  0  4.177923  0  0  0.659572  0  4.173956  0  0  0.211089  0.602529  0  4.18301  0
C  C9  1  0.33831021  0.50865672  0.24955542  1  0  0.674811  0  3.884648  0  0  0.625849  0  4.17791  0  0  0.659573  0  4.173944  0  0  0.211092  0.60253  0  4.182995  0
C  C10  1  0.24115656  0.45522095  0.79668485  1  0  0.699278  0  3.868257  0  0  0.649341  0  4.165396  0  0  0.683839  0  4.158368  0  0  0.22446  0.625345  0  4.173413  0
C  C11  1  0.75884411  0.54477918  0.20331408  1  0  0.699312  0  3.86825  0  0  0.649372  0  4.165389  0  0  0.683869  0  4.158361  0  0  0.224467  0.625373  0  4.17341  0
C  C12  1  0.14915195  0.98353885  0.26354745  1  0  0.717836  0  3.860628  0  0  0.667714  0  4.156578  0  0  0.70207  0  4.14945  0  0  0.226813  0.643925  0  4.1644  0
C  C13  1  0.85084872  0.01646128  0.73645148  1  0  0.717851  0  3.86064  0  0  0.667762  0  4.156567  0  0  0.702116  0  4.149444  0  0  0.22679  0.643971  0  4.164392  0
C  C14  1  0.55022202  0.02940293  0.22369114  1  0  0.706366  0  3.764961  0  0  0.654719  0  4.059376  0  0  0.690403  0  4.04933  0  0  0.258546  0.630596  0  4.066635  0
C  C15  1  0.44977738  0.97059586  0.77631069  1  0  0.70637  0  3.764972  0  0  0.654695  0  4.059424  0  0  0.690379  0  4.049382  0  0  0.258543  0.630574  0  4.066683  0
C  C16  1  0.52453144  0.61727490  0.63143491  1  0  -0.087118  0  3.704278  0  0  -0.073688  0  3.943967  0  0  -0.082355  0  3.964527  0  0  -0.006984  -0.068006  0  3.929637  0
C  C17  1  0.47546649  0.38272524  0.36856535  1  0  -0.087092  0  3.704203  0  0  -0.07367  0  3.943906  0  0  -0.082338  0  3.964464  0  0  -0.006982  -0.067989  0  3.929578  0
C  C18  1  0.33551274  0.59572753  0.65032038  1  0  -0.008817  0  3.652826  0  0  0.000182  0  3.892819  0  0  0.000468  0  3.910157  0  0  0.019525  0.000207  0  3.881016  0
C  C19  1  0.66448658  0.40427261  0.34967748  1  0  -0.008849  0  3.652862  0  0  0.00017  0  3.892839  0  0  0.00046  0  3.910172  0  0  0.019517  0.000199  0  3.881037  0
C  C20  1  0.21705867  0.71451409  0.52764832  1  0  -0.08366  0  3.633791  0  0  -0.117087  0  3.885993  0  0  -0.120011  0  3.901989  0  0  -0.061528  -0.115282  0  3.875008  0
C  C21  1  0.78293905  0.28548872  0.47235091  1  0  -0.083655  0  3.633818  0  0  -0.117073  0  3.886031  0  0  -0.119998  0  3.902027  0  0  -0.061542  -0.11527  0  3.875047  0
C  C22  1  0.28336050  0.85732990  0.38822640  1  0  -0.004867  0  3.654963  0  0  0.004477  0  3.892751  0  0  0.005503  0  3.908822  0  0  0.02004  0.00414  0  3.881358  0
C  C23  1  0.71663984  0.14267425  0.61177099  1  0  -0.004833  0  3.65485  0  0  0.004471  0  3.892674  0  0  0.005497  0  3.908748  0  0  0.020056  0.004135  0  3.881282  0
C  C24  1  0.47155058  0.88246910  0.37106395  1  0  -0.098541  0  3.724761  0  0  -0.086879  0  3.96636  0  0  -0.096334  0  3.986858  0  0  -0.007841  -0.080667  0  3.95191  0
C  C25  1  0.52844872  0.11753103  0.62893621  1  0  -0.098548  0  3.724685  0  0  -0.086876  0  3.966304  0  0  -0.096331  0  3.986804  0  0  -0.007853  -0.080665  0  3.951858  0
C  C26  1  0.58928704  0.76219055  0.49245239  1  0  -0.012929  0  3.65266  0  0  -0.05583  0  3.914213  0  0  -0.050163  0  3.928183  0  0  -0.054531  -0.059099  0  3.903945  0
C  C27  1  0.41071226  0.23780958  0.50754778  1  0  -0.012962  0  3.652659  0  0  -0.055855  0  3.914201  0  0  -0.050188  0  3.92817  0  0  -0.054539  -0.059133  0  3.903929  0
O  O28  1  0.60809570  0.36564416  0.88959893  1  0  -0.731225  0  2.074003  0  0  -0.672633  0  2.317766  0  0  -0.702661  0  2.306142  0  0  -0.376444  -0.654654  0  2.325199  0
O  O29  1  0.39190668  0.63435197  0.11039916  1  0  -0.731255  0  2.074015  0  0  -0.672633  0  2.317773  0  0  -0.702668  0  2.306149  0  0  -0.376422  -0.654655  0  2.325203  0
O  O30  1  0.83096962  0.50760967  0.71613284  1  0  -0.659189  0  1.96054  0  0  -0.612207  0  2.199991  0  0  -0.640522  0  2.192182  0  0  -0.35087  -0.595918  0  2.204936  0
O  O31  1  0.16902969  0.49239046  0.28386618  1  0  -0.659142  0  1.960524  0  0  -0.612197  0  2.200009  0  0  -0.640516  0  2.192197  0  0  -0.350887  -0.595909  0  2.204955  0
O  O32  1  0.16662596  0.50011124  0.91453850  1  0  -0.804942  0  2.072682  0  0  -0.747786  0  2.338739  0  0  -0.784154  0  2.32616  0  0  -0.434119  -0.729844  0  2.346816  0
O  O33  1  0.83337606  0.49988889  0.08546150  1  0  -0.804926  0  2.072665  0  0  -0.747771  0  2.338727  0  0  -0.784138  0  2.326149  0  0  -0.434118  -0.72983  0  2.346806  0
O  O34  1  0.21609679  0.30685169  0.79596175  1  0  -0.634525  0  1.951799  0  0  -0.585748  0  2.186885  0  0  -0.614385  0  2.178908  0  0  -0.334034  -0.568812  0  2.191681  0
O  O35  1  0.78390524  0.69314844  0.20403825  1  0  -0.634549  0  1.951784  0  0  -0.585761  0  2.186879  0  0  -0.614403  0  2.178902  0  0  -0.334032  -0.568829  0  2.191685  0
O  O36  1  0.08916647  0.12805660  0.27301958  1  0  -0.636302  0  1.935675  0  0  -0.593214  0  2.173328  0  0  -0.621706  0  2.16462  0  0  -0.342416  -0.576483  0  2.178284  0
O  O37  1  0.91083283  0.87194353  0.72698059  1  0  -0.636308  0  1.935814  0  0  -0.593229  0  2.173449  0  0  -0.621726  0  2.164741  0  0  -0.342397  -0.576499  0  2.178406  0
O  O38  1  0.09639444  0.93896750  0.14916513  1  0  -0.824535  0  2.080653  0  0  -0.768856  0  2.352677  0  0  -0.805492  0  2.338695  0  0  -0.44571  -0.750997  0  2.361409  0
O  O39  1  0.90360896  0.06103263  0.85083363  1  0  -0.824572  0  2.080608  0  0  -0.768896  0  2.352612  0  0  -0.805531  0  2.338629  0  0  -0.445708  -0.751037  0  2.361344  0
O  O40  1  0.71040396  0.06852176  0.21701832  1  0  -0.651779  0  2.023842  0  0  -0.60706  0  2.276742  0  0  -0.634684  0  2.265419  0  0  -0.340066  -0.592255  0  2.283385  0
O  O41  1  0.28959682  0.93147704  0.78298228  1  0  -0.651747  0  2.023893  0  0  -0.607012  0  2.276802  0  0  -0.634642  0  2.265482  0  0  -0.340042  -0.592207  0  2.283442  0
O  O42  1  0.43589497  0.11292266  0.10061630  1  0  -0.546868  0  2.156395  0  0  -0.489547  0  2.372883  0  0  -0.513071  0  2.357873  0  0  -0.293097  -0.473735  0  2.383877  0
O  O43  1  0.56410430  0.88707747  0.89938732  1  0  -0.546919  0  2.156403  0  0  -0.489565  0  2.372886  0  0  -0.513073  0  2.357847  0  0  -0.2931  -0.473744  0  2.383851  0
