# generated using pymatgen
data_KInH11(C3Br)3
_symmetry_space_group_name_H-M   'P 1'
_cell_length_a   8.79501712
_cell_length_b   10.16538316
_cell_length_c   15.99667539
_cell_angle_alpha   89.99959868
_cell_angle_beta   99.17303166
_cell_angle_gamma   90.00055106
_symmetry_Int_Tables_number   1
_chemical_formula_structural   KInH11(C3Br)3
_chemical_formula_sum   'K4 In4 H44 C36 Br12'
_cell_volume   1411.88830371
_cell_formula_units_Z   4
loop_
 _symmetry_equiv_pos_site_id
 _symmetry_equiv_pos_as_xyz
  1  'x, y, z'
loop_
 _atom_site_type_symbol
 _atom_site_label
 _atom_site_symmetry_multiplicity
 _atom_site_fract_x
 _atom_site_fract_y
 _atom_site_fract_z
 _atom_site_occupancy
 _atom_site_hle17_bader_spin_density
 _atom_site_hle17_ddec_charge
 _atom_site_hle17_ddec_spin_density
 _atom_site_hle17_ddec_sum_bond_order
 _atom_site_hle17_magmom
 _atom_site_hse06_10hf_bader_spin_density
 _atom_site_hse06_10hf_ddec_charge
 _atom_site_hse06_10hf_ddec_spin_density
 _atom_site_hse06_10hf_ddec_sum_bond_order
 _atom_site_hse06_10hf_magmom
 _atom_site_hse06_bader_spin_density
 _atom_site_hse06_ddec_charge
 _atom_site_hse06_ddec_spin_density
 _atom_site_hse06_ddec_sum_bond_order
 _atom_site_hse06_magmom
 _atom_site_pbe_bader_spin_density
 _atom_site_pbe_cm5_charge
 _atom_site_pbe_ddec_charge
 _atom_site_pbe_ddec_spin_density
 _atom_site_pbe_ddec_sum_bond_order
 _atom_site_pbe_magmom
K  K0  1  0.25474344  0.85497192  0.42401393  1  0  0.885203  0  0.453255  0  0  0.825736  0  0.654199  0  0  0.839051  0  0.634609  0  0  0.405611  0.815548  0  0.668724  0
K  K1  1  0.24525386  0.35496235  0.57598475  1  0  0.885175  0  0.453304  0  0  0.825706  0  0.654266  0  0  0.839023  0  0.634673  0  0  0.405578  0.815513  0  0.668784  0
K  K2  1  0.74526642  0.14501955  0.57598831  1  0  0.885177  0  0.453303  0  0  0.825719  0  0.654229  0  0  0.839034  0  0.634639  0  0  0.405602  0.815526  0  0.668745  0
K  K3  1  0.75473303  0.64503502  0.42400979  1  0  0.885181  0  0.453278  0  0  0.825715  0  0.654232  0  0  0.839029  0  0.634645  0  0  0.4056  0.815525  0  0.668755  0
In  In4  1  0.79262443  0.05740029  0.31279946  1  0  1.101473  0  2.416337  0  0  0.948752  0  2.887144  0  0  1.000424  0  2.851799  0  0  0.36861  0.914222  0  2.909198  0
In  In5  1  0.70737639  0.55738986  0.68720416  1  0  1.101486  0  2.416411  0  0  0.948775  0  2.88722  0  0  1.000449  0  2.851864  0  0  0.368617  0.914242  0  2.909274  0
In  In6  1  0.20736926  0.94260495  0.68720570  1  0  1.101444  0  2.416241  0  0  0.948726  0  2.887026  0  0  1.000391  0  2.851699  0  0  0.368611  0.914201  0  2.909075  0
In  In7  1  0.29262426  0.44260947  0.31279787  1  0  1.101438  0  2.41639  0  0  0.948717  0  2.887204  0  0  1.00039  0  2.851856  0  0  0.36861  0.914191  0  2.909248  0
H  H8  1  0.54449395  0.46278387  0.13554152  1  0  0.089459  0  0.966418  0  0  0.103104  0  1.026996  0  0  0.105736  0  1.02626  0  0  0.092181  0.101038  0  1.027996  0
H  H9  1  0.95551101  0.96277749  0.86445814  1  0  0.089326  0  0.966417  0  0  0.102993  0  1.026983  0  0  0.105623  0  1.026248  0  0  0.092143  0.100929  0  1.027986  0
H  H10  1  0.45550444  0.53721743  0.86445593  1  0  0.089428  0  0.966461  0  0  0.103092  0  1.027014  0  0  0.10573  0  1.026273  0  0  0.092187  0.101023  0  1.028017  0
H  H11  1  0.04449426  0.03722185  0.13554306  1  0  0.089376  0  0.96651  0  0  0.103047  0  1.027052  0  0  0.105681  0  1.026315  0  0  0.092174  0.100982  0  1.028055  0
H  H12  1  0.37593255  0.08570592  0.04077095  1  0  0.085749  0  0.966985  0  0  0.100333  0  1.028418  0  0  0.102424  0  1.028563  0  0  0.095667  0.098895  0  1.028353  0
H  H13  1  0.12407125  0.58570560  0.95922828  1  0  0.085771  0  0.966965  0  0  0.10034  0  1.028407  0  0  0.10243  0  1.028554  0  0  0.095689  0.098901  0  1.028336  0
H  H14  1  0.62406583  0.91429341  0.95922775  1  0  0.08577  0  0.966976  0  0  0.100341  0  1.028416  0  0  0.102431  0  1.028561  0  0  0.095687  0.098899  0  1.028354  0
H  H15  1  0.87593403  0.41429570  0.04077105  1  0  0.085796  0  0.96692  0  0  0.100361  0  1.028382  0  0  0.102461  0  1.028504  0  0  0.095673  0.098899  0  1.028329  0
H  H16  1  0.82705781  0.32876058  0.31400151  1  0  0.089983  0  1.011802  0  0  0.109406  0  1.082271  0  0  0.110257  0  1.082551  0  0  0.075789  0.108677  0  1.082211  0
H  H17  1  0.67294348  0.82875677  0.68599905  1  0  0.089946  0  1.01183  0  0  0.109372  0  1.082289  0  0  0.110224  0  1.082569  0  0  0.075783  0.108645  0  1.082228  0
H  H18  1  0.17293596  0.67124072  0.68599677  1  0  0.089924  0  1.011775  0  0  0.109357  0  1.082255  0  0  0.110209  0  1.08253  0  0  0.075785  0.108626  0  1.082201  0
H  H19  1  0.32706061  0.17124453  0.31400455  1  0  0.089973  0  1.011797  0  0  0.109411  0  1.082245  0  0  0.110262  0  1.082525  0  0  0.075781  0.108683  0  1.082188  0
H  H20  1  0.68021266  0.45012294  0.29545350  1  0  0.069836  0  1.028425  0  0  0.088439  0  1.10259  0  0  0.089224  0  1.102879  0  0  0.067882  0.087857  0  1.102216  0
H  H21  1  0.81979097  0.95011817  0.70454985  1  0  0.069833  0  1.028547  0  0  0.088393  0  1.102737  0  0  0.089177  0  1.103026  0  0  0.067853  0.087816  0  1.102354  0
H  H22  1  0.31978569  0.54987836  0.70454770  1  0  0.069826  0  1.028451  0  0  0.088424  0  1.102615  0  0  0.089207  0  1.102906  0  0  0.067891  0.087851  0  1.102229  0
H  H23  1  0.18020737  0.04988116  0.29545198  1  0  0.069809  0  1.02851  0  0  0.088401  0  1.102683  0  0  0.089185  0  1.102974  0  0  0.067857  0.087825  0  1.102303  0
H  H24  1  0.82606057  0.44316105  0.23079691  1  0  0.113305  0  0.970348  0  0  0.136942  0  1.027776  0  0  0.137882  0  1.028707  0  0  0.091336  0.13633  0  1.026975  0
H  H25  1  0.67394185  0.94315732  0.76920511  1  0  0.113264  0  0.970332  0  0  0.136887  0  1.027763  0  0  0.137828  0  1.028693  0  0  0.091333  0.136281  0  1.026956  0
H  H26  1  0.17393666  0.55683533  0.76920044  1  0  0.113273  0  0.970352  0  0  0.136899  0  1.027796  0  0  0.13784  0  1.028727  0  0  0.091324  0.136292  0  1.026991  0
H  H27  1  0.32606222  0.05684103  0.23079973  1  0  0.113282  0  0.970317  0  0  0.13691  0  1.027751  0  0  0.137851  0  1.028681  0  0  0.091325  0.136302  0  1.026944  0
H  H28  1  0.27088995  0.27736165  0.96871414  1  0  0.106236  0  0.946282  0  0  0.12851  0  1.004284  0  0  0.130186  0  1.003674  0  0  0.090003  0.127277  0  1.00481  0
H  H29  1  0.22911116  0.77736154  0.03128649  1  0  0.106251  0  0.946302  0  0  0.128525  0  1.004306  0  0  0.130213  0  1.003684  0  0  0.089993  0.12729  0  1.004824  0
H  H30  1  0.72910958  0.72263670  0.03128404  1  0  0.106284  0  0.946273  0  0  0.128548  0  1.00428  0  0  0.130227  0  1.003668  0  0  0.090019  0.127314  0  1.004804  0
H  H31  1  0.77089181  0.22263583  0.96871326  1  0  0.106263  0  0.946286  0  0  0.128529  0  1.004292  0  0  0.130208  0  1.00368  0  0  0.090012  0.127295  0  1.00481  0
H  H32  1  0.39999317  0.41251989  0.97128750  1  0  0.102613  0  0.960518  0  0  0.124338  0  1.023107  0  0  0.125566  0  1.022748  0  0  0.088229  0.123434  0  1.023506  0
H  H33  1  0.10000931  0.91251579  0.02871202  1  0  0.10258  0  0.960535  0  0  0.124314  0  1.023111  0  0  0.125543  0  1.022753  0  0  0.088229  0.123412  0  1.023508  0
H  H34  1  0.60000751  0.58747944  0.02871079  1  0  0.102575  0  0.960542  0  0  0.124299  0  1.023132  0  0  0.125529  0  1.022772  0  0  0.088204  0.123393  0  1.023529  0
H  H35  1  0.89999480  0.08748257  0.97128908  1  0  0.10259  0  0.960494  0  0  0.124291  0  1.023117  0  0  0.125518  0  1.022759  0  0  0.088207  0.123388  0  1.023516  0
H  H36  1  0.25823251  0.41095339  0.03849315  1  0  0.108693  0  0.964897  0  0  0.129893  0  1.028099  0  0  0.130766  0  1.029147  0  0  0.09017  0.129256  0  1.027416  0
H  H37  1  0.24177109  0.91095501  0.96150835  1  0  0.108732  0  0.964868  0  0  0.129921  0  1.028076  0  0  0.130794  0  1.029126  0  0  0.090195  0.129284  0  1.027395  0
H  H38  1  0.74176703  0.58904594  0.96150441  1  0  0.108688  0  0.964866  0  0  0.129892  0  1.028056  0  0  0.130765  0  1.029106  0  0  0.090175  0.129257  0  1.02737  0
H  H39  1  0.75823531  0.08904335  0.03849420  1  0  0.10869  0  0.964871  0  0  0.129899  0  1.028051  0  0  0.130772  0  1.029099  0  0  0.090193  0.129262  0  1.027375  0
H  H40  1  0.62718265  0.88989709  0.20529356  1  0  0.086639  0  1.014624  0  0  0.106248  0  1.084103  0  0  0.106939  0  1.084392  0  0  0.073008  0.105501  0  1.084231  0
H  H41  1  0.87281696  0.38989701  0.79470595  1  0  0.086607  0  1.014618  0  0  0.10622  0  1.084108  0  0  0.106909  0  1.0844  0  0  0.073004  0.105476  0  1.084225  0
H  H42  1  0.37281688  0.11010126  0.79470525  1  0  0.08663  0  1.014722  0  0  0.106245  0  1.084191  0  0  0.106939  0  1.084477  0  0  0.073018  0.105499  0  1.084315  0
H  H43  1  0.12718487  0.61010429  0.20529307  1  0  0.086611  0  1.014681  0  0  0.106221  0  1.084167  0  0  0.106912  0  1.084457  0  0  0.073003  0.105477  0  1.084281  0
H  H44  1  0.57248468  0.88919214  0.09401520  1  0  0.109157  0  0.959349  0  0  0.131843  0  1.020843  0  0  0.133158  0  1.020937  0  0  0.090511  0.130677  0  1.021041  0
H  H45  1  0.92751376  0.38918440  0.90598545  1  0  0.109122  0  0.959354  0  0  0.131802  0  1.020852  0  0  0.133117  0  1.020947  0  0  0.090479  0.130638  0  1.021043  0
H  H46  1  0.42751369  0.11081113  0.90598412  1  0  0.109176  0  0.959326  0  0  0.131843  0  1.020839  0  0  0.133158  0  1.020933  0  0  0.090513  0.130681  0  1.021034  0
H  H47  1  0.07248804  0.61081591  0.09401669  1  0  0.109128  0  0.959374  0  0  0.131802  0  1.020875  0  0  0.133116  0  1.02097  0  0  0.090481  0.130639  0  1.021064  0
H  H48  1  0.43048869  0.89910326  0.16013016  1  0  0.113509  0  0.945113  0  0  0.13783  0  1.001321  0  0  0.139457  0  1.000646  0  0  0.08929  0.136563  0  1.001798  0
H  H49  1  0.06951018  0.39910411  0.83987034  1  0  0.113512  0  0.945122  0  0  0.13784  0  1.001323  0  0  0.139467  0  1.000648  0  0  0.089307  0.136573  0  1.001803  0
H  H50  1  0.56950852  0.10089312  0.83986906  1  0  0.113531  0  0.945093  0  0  0.137847  0  1.001303  0  0  0.139475  0  1.000628  0  0  0.08929  0.136579  0  1.001786  0
H  H51  1  0.93049279  0.60089326  0.16012941  1  0  0.113496  0  0.945091  0  0  0.137817  0  1.0013  0  0  0.139443  0  1.000626  0  0  0.089297  0.13655  0  1.001781  0
C  C52  1  0.65161788  0.15710138  0.20935276  1  0  -0.435094  0  3.62205  0  0  -0.393021  0  3.879267  0  0  -0.416392  0  3.917227  0  0  -0.117055  -0.377901  0  3.853774  0
C  C53  1  0.84838515  0.65709591  0.79064560  1  0  -0.435159  0  3.62212  0  0  -0.393073  0  3.879352  0  0  -0.416445  0  3.91731  0  0  -0.117044  -0.377949  0  3.853863  0
C  C54  1  0.34838511  0.84289894  0.79064573  1  0  -0.434998  0  3.622231  0  0  -0.392935  0  3.879414  0  0  -0.416306  0  3.917377  0  0  -0.117013  -0.377818  0  3.853932  0
C  C55  1  0.15161320  0.34290244  0.20935497  1  0  -0.43509  0  3.622269  0  0  -0.39302  0  3.879466  0  0  -0.416391  0  3.917429  0  0  -0.117012  -0.3779  0  3.853982  0
C  C56  1  0.64976503  0.29541395  0.20373724  1  0  0.186938  0  3.816396  0  0  0.210407  0  4.048204  0  0  0.214835  0  4.076997  0  0  -0.010635  0.207534  0  4.028274  0
C  C57  1  0.85023477  0.79540941  0.79626271  1  0  0.186981  0  3.81637  0  0  0.21045  0  4.048157  0  0  0.214882  0  4.076942  0  0  -0.010684  0.207575  0  4.028246  0
C  C58  1  0.35023105  0.70458735  0.79626062  1  0  0.186867  0  3.816558  0  0  0.210337  0  4.048363  0  0  0.214766  0  4.077155  0  0  -0.010665  0.207461  0  4.028446  0
C  C59  1  0.14976818  0.20458992  0.20373891  1  0  0.186979  0  3.816499  0  0  0.210454  0  4.048288  0  0  0.214884  0  4.077076  0  0  -0.010649  0.207575  0  4.02838  0
C  C60  1  0.54775276  0.35534866  0.13858161  1  0  -0.206595  0  3.693293  0  0  -0.232512  0  3.935483  0  0  -0.239967  0  3.95823  0  0  -0.101714  -0.227294  0  3.919528  0
C  C61  1  0.95224417  0.85534327  0.86141968  1  0  -0.206434  0  3.693242  0  0  -0.232369  0  3.935418  0  0  -0.239822  0  3.958158  0  0  -0.10162  -0.227175  0  3.919522  0
C  C62  1  0.45223985  0.64465067  0.86141719  1  0  -0.206493  0  3.693423  0  0  -0.232438  0  3.935562  0  0  -0.239901  0  3.958315  0  0  -0.101709  -0.227216  0  3.91961  0
C  C63  1  0.04776222  0.14465409  0.13858350  1  0  -0.206453  0  3.693521  0  0  -0.232411  0  3.935666  0  0  -0.23987  0  3.958412  0  0  -0.101744  -0.227199  0  3.919735  0
C  C64  1  0.44915659  0.28182651  0.07883533  1  0  0.164897  0  3.788248  0  0  0.192575  0  4.025653  0  0  0.196069  0  4.049473  0  0  -0.008607  0.190422  0  4.009091  0
C  C65  1  0.05084341  0.78182404  0.92116518  1  0  0.164888  0  3.788269  0  0  0.192582  0  4.025653  0  0  0.196078  0  4.049474  0  0  -0.008633  0.190425  0  4.009091  0
C  C66  1  0.55083834  0.71817184  0.92116244  1  0  0.164894  0  3.788388  0  0  0.192614  0  4.025733  0  0  0.19611  0  4.049552  0  0  -0.008641  0.190465  0  4.009157  0
C  C67  1  0.94916415  0.21817333  0.07883686  1  0  0.164763  0  3.788452  0  0  0.1925  0  4.025774  0  0  0.195995  0  4.049593  0  0  -0.008651  0.190343  0  4.009203  0
C  C68  1  0.45406610  0.14501217  0.08567880  1  0  -0.19198  0  3.686754  0  0  -0.219153  0  3.929134  0  0  -0.225442  0  3.950132  0  0  -0.09977  -0.214946  0  3.914788  0
C  C69  1  0.04593484  0.64500875  0.91432054  1  0  -0.191988  0  3.686815  0  0  -0.219137  0  3.9292  0  0  -0.225429  0  3.950201  0  0  -0.099785  -0.214913  0  3.914837  0
C  C70  1  0.54593112  0.85498716  0.91431980  1  0  -0.191972  0  3.686886  0  0  -0.219156  0  3.929252  0  0  -0.225446  0  3.95025  0  0  -0.09974  -0.214936  0  3.914894  0
C  C71  1  0.95407160  0.35498960  0.08567890  1  0  -0.191956  0  3.686886  0  0  -0.219144  0  3.92925  0  0  -0.225434  0  3.950253  0  0  -0.09974  -0.214898  0  3.914881  0
C  C72  1  0.55364309  0.08074314  0.15013368  1  0  0.172116  0  3.829408  0  0  0.193619  0  4.064154  0  0  0.198687  0  4.090754  0  0  -0.01573  0.190284  0  4.046093  0
C  C73  1  0.94635684  0.58073979  0.84986663  1  0  0.172055  0  3.829588  0  0  0.193519  0  4.06439  0  0  0.198587  0  4.090994  0  0  -0.015761  0.190176  0  4.046331  0
C  C74  1  0.44635412  0.91925817  0.84986554  1  0  0.171982  0  3.829718  0  0  0.193516  0  4.064406  0  0  0.198584  0  4.09101  0  0  -0.015765  0.190176  0  4.046347  0
C  C75  1  0.05364612  0.41926053  0.15013436  1  0  0.171986  0  3.829803  0  0  0.19349  0  4.064541  0  0  0.198557  0  4.091149  0  0  -0.015806  0.190146  0  4.046479  0
C  C76  1  0.75177464  0.38294148  0.26445568  1  0  -0.348582  0  3.748461  0  0  -0.426934  0  3.975973  0  0  -0.430061  0  3.986729  0  0  -0.250643  -0.424419  0  3.968276  0
C  C77  1  0.74822487  0.88293775  0.73554573  1  0  -0.348513  0  3.748536  0  0  -0.426817  0  3.976067  0  0  -0.429943  0  3.986822  0  0  -0.250601  -0.424306  0  3.968364  0
C  C78  1  0.24822141  0.61706179  0.73554406  1  0  -0.348451  0  3.748422  0  0  -0.426807  0  3.975962  0  0  -0.429932  0  3.986719  0  0  -0.250617  -0.424301  0  3.968266  0
C  C79  1  0.25177576  0.11706454  0.26445693  1  0  -0.34853  0  3.748564  0  0  -0.426877  0  3.976055  0  0  -0.430005  0  3.986811  0  0  -0.250573  -0.42437  0  3.968356  0
C  C80  1  0.33907914  0.34869455  0.01049630  1  0  -0.33689  0  3.732293  0  0  -0.416972  0  3.96447  0  0  -0.419406  0  3.973428  0  0  -0.239378  -0.415133  0  3.958208  0
C  C81  1  0.16092385  0.84869321  0.98950355  1  0  -0.336919  0  3.73229  0  0  -0.417006  0  3.964464  0  0  -0.419452  0  3.973413  0  0  -0.239387  -0.415166  0  3.958196  0
C  C82  1  0.66091925  0.65130479  0.98950115  1  0  -0.33692  0  3.732265  0  0  -0.417008  0  3.964411  0  0  -0.419446  0  3.97337  0  0  -0.239382  -0.415172  0  3.958145  0
C  C83  1  0.83908255  0.15130612  0.01049901  1  0  -0.336864  0  3.73226  0  0  -0.416944  0  3.964416  0  0  -0.419381  0  3.973376  0  0  -0.239376  -0.415105  0  3.958153  0
C  C84  1  0.54658319  0.93284476  0.15304107  1  0  -0.34461  0  3.72946  0  0  -0.424312  0  3.960841  0  0  -0.427035  0  3.970072  0  0  -0.244658  -0.422099  0  3.954554  0
C  C85  1  0.95341568  0.43284182  0.84696005  1  0  -0.344553  0  3.729517  0  0  -0.424247  0  3.96092  0  0  -0.426969  0  3.970153  0  0  -0.244649  -0.422039  0  3.95464  0
C  C86  1  0.45341402  0.06715457  0.84695878  1  0  -0.344613  0  3.729629  0  0  -0.424314  0  3.960984  0  0  -0.42704  0  3.970214  0  0  -0.244668  -0.422099  0  3.954697  0
C  C87  1  0.04658728  0.56715653  0.15304094  1  0  -0.344473  0  3.729583  0  0  -0.424167  0  3.960955  0  0  -0.426889  0  3.970186  0  0  -0.244592  -0.42196  0  3.95467  0
Br  Br88  1  0.61826364  0.95160731  0.41493731  1  0  -0.615703  0  1.021081  0  0  -0.559148  0  1.320494  0  0  -0.575312  0  1.299673  0  0  -0.254371  -0.5475  0  1.335368  0
Br  Br89  1  0.88172967  0.45160565  0.58506197  1  0  -0.615673  0  1.021014  0  0  -0.559167  0  1.320526  0  0  -0.575333  0  1.299705  0  0  -0.254366  -0.547518  0  1.335387  0
Br  Br90  1  0.38174168  0.04839399  0.58505890  1  0  -0.615756  0  1.020931  0  0  -0.55921  0  1.320341  0  0  -0.575375  0  1.299522  0  0  -0.254426  -0.547561  0  1.335213  0
Br  Br91  1  0.11826062  0.54839762  0.41493787  1  0  -0.615695  0  1.020965  0  0  -0.559173  0  1.320447  0  0  -0.575338  0  1.299625  0  0  -0.254394  -0.547527  0  1.335308  0
Br  Br92  1  0.93828018  0.84473096  0.28034462  1  0  -0.548415  0  0.961481  0  0  -0.49  0  1.226246  0  0  -0.505543  0  1.206372  0  0  -0.199396  -0.47947  0  1.239842  0
Br  Br93  1  0.56172015  0.34472420  0.71965265  1  0  -0.548345  0  0.961484  0  0  -0.489942  0  1.226278  0  0  -0.505484  0  1.206404  0  0  -0.199354  -0.479411  0  1.239869  0
Br  Br94  1  0.06172742  0.15527231  0.71965367  1  0  -0.548357  0  0.961558  0  0  -0.489943  0  1.226341  0  0  -0.505484  0  1.206469  0  0  -0.199359  -0.479417  0  1.239943  0
Br  Br95  1  0.43827364  0.65527514  0.28034376  1  0  -0.548369  0  0.96154  0  0  -0.489965  0  1.226334  0  0  -0.505508  0  1.206465  0  0  -0.199374  -0.479432  0  1.23992  0
Br  Br96  1  0.99882319  0.15961603  0.42844630  1  0  -0.557922  0  1.015558  0  0  -0.505883  0  1.307059  0  0  -0.521459  0  1.288328  0  0  -0.176317  -0.494711  0  1.320088  0
Br  Br97  1  0.50117751  0.65961009  0.57155684  1  0  -0.557936  0  1.015554  0  0  -0.505904  0  1.307067  0  0  -0.521481  0  1.288338  0  0  -0.176326  -0.494731  0  1.3201  0
Br  Br98  1  0.00117518  0.84039314  0.57155240  1  0  -0.557932  0  1.015565  0  0  -0.505887  0  1.307057  0  0  -0.521475  0  1.288351  0  0  -0.17631  -0.494712  0  1.320085  0
Br  Br99  1  0.49881965  0.34039613  0.42844737  1  0  -0.557931  0  1.015604  0  0  -0.505883  0  1.307096  0  0  -0.521472  0  1.288387  0  0  -0.176315  -0.494713  0  1.320129  0
