# generated using pymatgen
data_ZnH17C26N5O9
_symmetry_space_group_name_H-M   'P 1'
_cell_length_a   9.49427424
_cell_length_b   12.28296826
_cell_length_c   12.37472013
_cell_angle_alpha   115.44158120
_cell_angle_beta   94.89162635
_cell_angle_gamma   105.35713750
_symmetry_Int_Tables_number   1
_chemical_formula_structural   ZnH17C26N5O9
_chemical_formula_sum   'Zn2 H34 C52 N10 O18'
_cell_volume   1223.36580536
_cell_formula_units_Z   2
loop_
 _symmetry_equiv_pos_site_id
 _symmetry_equiv_pos_as_xyz
  1  'x, y, z'
loop_
 _atom_site_type_symbol
 _atom_site_label
 _atom_site_symmetry_multiplicity
 _atom_site_fract_x
 _atom_site_fract_y
 _atom_site_fract_z
 _atom_site_occupancy
 _atom_site_pbe_bader_spin_density
 _atom_site_pbe_cm5_charge
 _atom_site_pbe_ddec_charge
 _atom_site_pbe_ddec_spin_density
 _atom_site_pbe_ddec_sum_bond_order
 _atom_site_pbe_magmom
Zn  Zn0  1  0.85807756  0.24389478  0.82755411  1  0  0.699642  0.744908  0  2.37161  0
Zn  Zn1  1  0.14192330  0.75610538  0.17244674  1  0  0.699693  0.744973  0  2.371564  0
H  H2  1  0.61059804  0.06269218  0.60161682  1  0  0.116736  0.091655  0  1.028924  0
H  H3  1  0.38940214  0.93730895  0.39838439  1  0  0.11674  0.091656  0  1.028947  0
H  H4  1  0.01123610  0.77437304  0.47154608  1  0  0.308181  0.276894  0  0.983967  0
H  H5  1  0.98876294  0.22562521  0.52845383  1  0  0.308192  0.276912  0  0.983964  0
H  H6  1  0.57507097  0.85378325  0.41050427  1  0  0.110096  0.120281  0  1.023253  0
H  H7  1  0.42492883  0.14621692  0.58949570  1  0  0.110085  0.120269  0  1.023195  0
H  H8  1  0.08343682  0.52352415  0.29277121  1  0  0.309767  0.286778  0  0.983134  0
H  H9  1  0.91656366  0.47647506  0.70722920  1  0  0.309759  0.28675  0  0.983163  0
H  H10  1  0.77541476  0.75578042  0.39802771  1  0  0.109443  0.113061  0  1.034388  0
H  H11  1  0.22458505  0.24421975  0.60197064  1  0  0.10945  0.11308  0  1.034399  0
H  H12  1  0.03497524  0.08297120  0.74132649  1  0  0.122508  0.114141  0  1.037708  0
H  H13  1  0.96502668  0.91702897  0.25867281  1  0  0.122519  0.114152  0  1.037684  0
H  H14  1  0.68047597  0.75196282  0.68088845  1  0  0.307185  0.360068  0  0.962403  0
H  H15  1  0.31952565  0.24803926  0.31911246  1  0  0.307181  0.360059  0  0.96242  0
H  H16  1  0.45499736  0.95602657  0.73985745  1  0  0.119625  0.149568  0  0.977767  0
H  H17  1  0.54500244  0.04397360  0.26014333  1  0  0.119628  0.149567  0  0.977774  0
H  H18  1  0.49553351  0.58537911  0.52723904  1  0  0.105591  0.122221  0  1.058432  0
H  H19  1  0.50446772  0.41462202  0.47276224  1  0  0.105573  0.122186  0  1.05843  0
H  H20  1  0.07510469  0.64338449  0.46587800  1  0  0.106596  0.110805  0  1.060483  0
H  H21  1  0.92489647  0.35661376  0.53412205  1  0  0.106584  0.110789  0  1.060482  0
H  H22  1  0.01946443  0.20590483  0.27490062  1  0  0.109081  0.114715  0  1.031209  0
H  H23  1  0.98053917  0.79409152  0.72509717  1  0  0.109087  0.114724  0  1.031217  0
H  H24  1  0.76744092  0.02657448  0.89983332  1  0  0.119809  0.095907  0  1.015818  0
H  H25  1  0.23255117  0.97342760  0.10016855  1  0  0.119821  0.095895  0  1.015855  0
H  H26  1  0.84990193  0.00900895  0.08647542  1  0  0.10958  0.119942  0  1.043615  0
H  H27  1  0.15009470  0.99099122  0.91352433  1  0  0.10955  0.119922  0  1.04364  0
H  H28  1  0.00173542  0.41869005  0.07689279  1  0  0.123808  0.114285  0  1.009292  0
H  H29  1  0.99826369  0.58131107  0.92310996  1  0  0.1238  0.11428  0  1.009321  0
H  H30  1  0.29529698  0.62516170  0.85153814  1  0  0.113706  0.123009  0  1.019926  0
H  H31  1  0.70469959  0.37483561  0.14845876  1  0  0.113704  0.122991  0  1.019934  0
H  H32  1  0.73442801  0.59547814  0.90882483  1  0  0.113869  0.122779  0  1.04647  0
H  H33  1  0.26557188  0.40452491  0.09117476  1  0  0.113889  0.122761  0  1.046553  0
H  H34  1  0.34285947  0.26638712  0.80120531  1  0  0.115749  0.129641  0  0.996521  0
H  H35  1  0.65714380  0.73361113  0.19879570  1  0  0.115757  0.129633  0  0.996549  0
C  C36  1  0.69555668  0.01662830  0.58651092  1  0  0.042752  0.069916  0  3.939781  0
C  C37  1  0.30444131  0.98336996  0.41348892  1  0  0.042737  0.069913  0  3.939864  0
C  C38  1  0.67640839  0.90115892  0.48378029  1  0  -0.079071  -0.096984  0  3.983433  0
C  C39  1  0.32359172  0.09883934  0.51621888  1  0  -0.079026  -0.096947  0  3.983478  0
C  C40  1  0.78926474  0.84793174  0.47526574  1  0  -0.066111  -0.116033  0  3.894349  0
C  C41  1  0.21073787  0.15206748  0.52473321  1  0  -0.066128  -0.116045  0  3.894357  0
C  C42  1  0.92266869  0.91219476  0.56707099  1  0  0.107587  0.215251  0  4.024245  0
C  C43  1  0.07733142  0.08780350  0.43292818  1  0  0.107583  0.215273  0  4.024112  0
C  C44  1  0.93442528  0.02843729  0.66770564  1  0  0.038731  -0.020903  0  3.878475  0
C  C45  1  0.06557559  0.97156288  0.33229360  1  0  0.038702  -0.020949  0  3.878396  0
C  C46  1  0.17118946  0.90130175  0.63400523  1  0  0.240796  0.465025  0  4.121215  0
C  C47  1  0.82881208  0.09869746  0.36599526  1  0  0.240805  0.465024  0  4.121199  0
C  C48  1  0.25791511  0.81066373  0.60261520  1  0  -0.019125  -0.016273  0  4.036683  0
C  C49  1  0.74208537  0.18933548  0.39738522  1  0  -0.019116  -0.016263  0  4.036653  0
C  C50  1  0.40650146  0.85657942  0.66852508  1  0  -0.080588  -0.194542  0  3.862466  0
C  C51  1  0.59349834  0.14342075  0.33147489  1  0  -0.080598  -0.194546  0  3.862484  0
C  C52  1  0.49095226  0.77395505  0.64255043  1  0  0.085783  0.326171  0  4.078629  0
C  C53  1  0.50904822  0.22604416  0.35744998  1  0  0.085795  0.326162  0  4.078681  0
C  C54  1  0.42711062  0.64698711  0.54917810  1  0  -0.099197  -0.231418  0  3.921161  0
C  C55  1  0.57288985  0.35301210  0.45082313  1  0  -0.099171  -0.231338  0  3.921122  0
C  C56  1  0.27843800  0.60140350  0.48425241  1  0  -0.019246  -0.002353  0  4.033564  0
C  C57  1  0.72156210  0.39859475  0.51574837  1  0  -0.019253  -0.002391  0  4.033608  0
C  C58  1  0.19284622  0.68248851  0.51242995  1  0  -0.10169  -0.179028  0  3.979669  0
C  C59  1  0.80715464  0.31751166  0.48757090  1  0  -0.101686  -0.179031  0  3.979733  0
C  C60  1  0.21273013  0.46569518  0.38543438  1  0  0.249338  0.496212  0  4.076495  0
C  C61  1  0.78727073  0.53430499  0.61456647  1  0  0.2494  0.496312  0  4.076454  0
C  C62  1  0.01834567  0.32799444  0.19150384  1  0  0.104955  0.206161  0  4.021737  0
C  C63  1  0.98165375  0.67200477  0.80849569  1  0  0.104955  0.206162  0  4.021834  0
C  C64  1  0.97896072  0.21043438  0.19275074  1  0  -0.066126  -0.109478  0  3.89581  0
C  C65  1  0.02104082  0.78956483  0.80724894  1  0  -0.066182  -0.109543  0  3.895959  0
C  C66  1  0.83912198  0.11039431  0.98362777  1  0  0.051746  0.090684  0  3.894163  0
C  C67  1  0.16087184  0.88960681  0.01637461  1  0  0.051683  0.090619  0  3.89427  0
C  C68  1  0.88694120  0.10141572  0.08804028  1  0  -0.073901  -0.092245  0  3.950127  0
C  C69  1  0.11305929  0.89858349  0.91195852  1  0  -0.073847  -0.09221  0  3.950114  0
C  C70  1  0.96748279  0.32987750  0.08314030  1  0  0.044873  -0.010239  0  3.889492  0
C  C71  1  0.03251527  0.67012363  0.91686157  1  0  0.044919  -0.010203  0  3.889449  0
C  C72  1  0.13235830  0.37707051  0.79222320  1  0  0.210322  0.580615  0  4.221183  0
C  C73  1  0.86764180  0.62292775  0.20777678  1  0  0.210358  0.580579  0  4.221152  0
C  C74  1  0.29992131  0.43870249  0.82283584  1  0  -0.008291  -0.015139  0  3.962794  0
C  C75  1  0.70007774  0.56129577  0.17716406  1  0  -0.008273  -0.015077  0  3.96279  0
C  C76  1  0.36394637  0.56696662  0.85173059  1  0  -0.067552  -0.124416  0  3.915595  0
C  C77  1  0.63605163  0.43303164  0.14826763  1  0  -0.067557  -0.124408  0  3.915653  0
C  C78  1  0.51986517  0.62114767  0.88505934  1  0  0.075007  0.061994  0  3.950927  0
C  C79  1  0.48013432  0.37885442  0.11494223  1  0  0.074987  0.062047  0  3.950815  0
C  C80  1  0.61333317  0.55005361  0.88180758  1  0  -0.068003  -0.124541  0  3.926331  0
C  C81  1  0.38666739  0.44994848  0.11819326  1  0  -0.068002  -0.124541  0  3.926343  0
C  C82  1  0.54800984  0.42000314  0.84585252  1  0  -0.012922  -0.017773  0  3.965262  0
C  C83  1  0.45199141  0.57999799  0.15414634  1  0  -0.012943  -0.017812  0  3.965307  0
C  C84  1  0.64290614  0.33681946  0.83000798  1  0  0.196412  0.552579  0  4.222938  0
C  C85  1  0.35709653  0.66318263  0.16999220  1  0  0.196376  0.552511  0  4.2229  0
C  C86  1  0.39187325  0.36622444  0.82208998  1  0  -0.064168  -0.100306  0  3.889999  0
C  C87  1  0.60812791  0.63377382  0.17791008  1  0  -0.064192  -0.100331  0  3.889977  0
N  N88  1  0.82183811  0.07714111  0.67575917  1  0  -0.338406  -0.21603  0  3.657145  0
N  N89  1  0.17816201  0.92285714  0.32423919  1  0  -0.33843  -0.216061  0  3.657112  0
N  N90  1  0.03454737  0.85656367  0.55273999  1  0  -0.399784  -0.382425  0  3.580966  0
N  N91  1  0.96545417  0.14343554  0.44725969  1  0  -0.399805  -0.382461  0  3.580919  0
N  N92  1  0.10340430  0.44534540  0.29302144  1  0  -0.392974  -0.375708  0  3.5842  0
N  N93  1  0.89659686  0.55465286  0.70697861  1  0  -0.39299  -0.375742  0  3.584251  0
N  N94  1  0.88079157  0.22328406  0.98187452  1  0  -0.332255  -0.213494  0  3.611275  0
N  N95  1  0.11920581  0.77671802  0.01812771  1  0  -0.332238  -0.213439  0  3.611247  0
N  N96  1  0.58924209  0.75903916  0.92666960  1  0  0.061442  0.519428  0  4.191548  0
N  N97  1  0.41075349  0.24096101  0.07333008  1  0  0.061406  0.519361  0  4.19152  0
O  O98  1  0.08351626  0.32240865  0.85569467  1  0  -0.312967  -0.522127  0  2.322001  0
O  O99  1  0.91648596  0.67758961  0.14430546  1  0  -0.312947  -0.522099  0  2.321978  0
O  O100  1  0.05319987  0.38077392  0.70724652  1  0  -0.33025  -0.592481  0  2.201263  0
O  O101  1  0.94680054  0.61922242  0.29275347  1  0  -0.33032  -0.592531  0  2.201288  0
O  O102  1  0.58263098  0.21741552  0.78261403  1  0  -0.313389  -0.542587  0  2.156466  0
O  O103  1  0.41737276  0.78258656  0.21738622  1  0  -0.313366  -0.542565  0  2.156302  0
O  O104  1  0.78724730  0.39274443  0.86366073  1  0  -0.328259  -0.536904  0  2.29255  0
O  O105  1  0.21275576  0.60725861  0.13633907  1  0  -0.328256  -0.536854  0  2.292638  0
O  O106  1  0.72839001  0.80189222  0.94784318  1  0  -0.119842  -0.32756  0  1.973894  0
O  O107  1  0.27160595  0.19810891  0.05215532  1  0  -0.119803  -0.327508  0  1.97393  0
O  O108  1  0.50586298  0.82367545  0.93811703  1  0  -0.120361  -0.31549  0  1.908404  0
O  O109  1  0.49413223  0.17632376  0.06188141  1  0  -0.120342  -0.315485  0  1.90844  0
O  O110  1  0.21685260  0.00711571  0.72659887  1  0  -0.273482  -0.451717  0  2.14603  0
O  O111  1  0.78314827  0.99288446  0.27340037  1  0  -0.273487  -0.451715  0  2.146017  0
O  O112  1  0.63453838  0.82042119  0.70812267  1  0  -0.351235  -0.46298  0  2.343844  0
O  O113  1  0.36546286  0.17957994  0.29187781  1  0  -0.351216  -0.462946  0  2.343858  0
O  O114  1  0.25670415  0.37946195  0.38820553  1  0  -0.291517  -0.50351  0  2.188581  0
O  O115  1  0.74329595  0.62053631  0.61179525  1  0  -0.291546  -0.503527  0  2.188635  0
