# generated using pymatgen
data_MnH8(C4N9)2
_symmetry_space_group_name_H-M   'P 1'
_cell_length_a   6.39430201
_cell_length_b   10.03772355
_cell_length_c   12.10631435
_cell_angle_alpha   104.37910749
_cell_angle_beta   89.99971023
_cell_angle_gamma   90.00069964
_symmetry_Int_Tables_number   1
_chemical_formula_structural   MnH8(C4N9)2
_chemical_formula_sum   'Mn2 H16 C16 N36'
_cell_volume   752.69298087
_cell_formula_units_Z   2
loop_
 _symmetry_equiv_pos_site_id
 _symmetry_equiv_pos_as_xyz
  1  'x, y, z'
loop_
 _atom_site_type_symbol
 _atom_site_label
 _atom_site_symmetry_multiplicity
 _atom_site_fract_x
 _atom_site_fract_y
 _atom_site_fract_z
 _atom_site_occupancy
 _atom_site_hle17_ddec_charge
 _atom_site_hle17_ddec_spin_density
 _atom_site_hle17_ddec_sum_bond_order
 _atom_site_hle17_magmom
 _atom_site_hse06_10hf_ddec_charge
 _atom_site_hse06_10hf_ddec_spin_density
 _atom_site_hse06_10hf_ddec_sum_bond_order
 _atom_site_hse06_10hf_magmom
 _atom_site_hse06_ddec_charge
 _atom_site_hse06_ddec_spin_density
 _atom_site_hse06_ddec_sum_bond_order
 _atom_site_hse06_magmom
 _atom_site_pbe_cm5_charge
 _atom_site_pbe_ddec_charge
 _atom_site_pbe_ddec_spin_density
 _atom_site_pbe_ddec_sum_bond_order
 _atom_site_pbe_magmom
Mn  Mn0  1  0.00001573  0.50000013  0.00001124  1  0.993434  4.744681  2.164239  4.625  0.839999  4.654396  2.706326  4.467  0.894968  4.712408  2.637099  4.546  0.643932  0.793785  4.593989  2.760372  4.387
Mn  Mn1  1  0.50001725  0.99998565  0.99999125  1  0.993038  4.744711  2.164544  4.625  0.839633  4.654462  2.706431  4.467  0.894613  4.712463  2.637196  4.546  0.643929  0.793401  4.594057  2.760407  4.387
H  H2  1  0.57258616  0.48880939  0.37156421  1  0.126014  0.000206  0.976876  0.0  0.124883  0.00031  1.055953  0.0  0.128902  0.000243  1.049945  0.0  0.143318  0.121713  0.000366  1.060939  0.0
H  H3  1  0.07256491  0.01121968  0.62844792  1  0.125898  0.000202  0.976792  0.0  0.124809  0.000309  1.05585  0.0  0.128826  0.000243  1.049841  0.0  0.143248  0.12165  0.000366  1.060825  0.0
H  H4  1  0.42744032  0.51120578  0.62844661  1  0.12592  0.000206  0.976718  0.0  0.124808  0.00031  1.055799  0.0  0.128829  0.000242  1.049793  0.0  0.143263  0.121825  0.000366  1.060189  0.0
H  H5  1  0.92742091  0.98878831  0.37155809  1  0.125931  0.000202  0.976742  0.0  0.124793  0.00031  1.055882  0.0  0.128817  0.000243  1.049872  0.0  0.143264  0.121631  0.000366  1.060851  0.0
H  H6  1  0.60279929  0.72749168  0.12756505  1  0.126706  -0.000701  0.954304  0.0  0.126852  -0.00039  1.031562  0.0  0.129651  -0.000471  1.027804  0.0  0.151992  0.124494  -0.000284  1.035036  0.0
H  H7  1  0.10283862  0.77249604  0.87242021  1  0.1268  -0.000708  0.954335  0.0  0.126899  -0.00039  1.031609  0.0  0.1297  -0.000471  1.027859  0.0  0.152028  0.124542  -0.000284  1.035102  0.0
H  H8  1  0.39718966  0.27250607  0.87243466  1  0.126767  -0.000708  0.954238  0.0  0.126865  -0.00039  1.031532  0.0  0.129664  -0.000471  1.02778  0.0  0.151988  0.124683  -0.000284  1.034403  0.0
H  H9  1  0.89715971  0.22750584  0.12757789  1  0.126846  -0.000704  0.954257  0.0  0.126931  -0.00039  1.031557  0.0  0.129735  -0.000472  1.027804  0.0  0.152041  0.124575  -0.000284  1.035022  0.0
H  H10  1  0.10978185  0.60283489  0.28806141  1  0.122389  -0.000397  0.948635  0.0  0.125427  -0.000269  1.020073  0.0  0.128154  -0.000359  1.017368  0.0  0.143786  0.123244  -0.000169  1.022371  0.0
H  H11  1  0.60978096  0.89714969  0.71193557  1  0.122548  -0.000397  0.948558  0.0  0.125468  -0.000268  1.020072  0.0  0.128177  -0.000358  1.017413  0.0  0.143824  0.123293  -0.000168  1.02238  0.0
H  H12  1  0.89022899  0.39716075  0.71194282  1  0.122419  -0.000398  0.948549  0.0  0.125409  -0.000269  1.020022  0.0  0.12814  -0.000358  1.01729  0.0  0.143796  0.123267  -0.000169  1.02227  0.0
H  H13  1  0.39021424  0.10285229  0.28805017  1  0.122635  -0.0004  0.948374  0.0  0.125515  -0.000268  1.019938  0.0  0.128225  -0.000358  1.017276  0.0  0.143818  0.123341  -0.000168  1.022244  0.0
H  H14  1  0.58080812  0.89843435  0.41564132  1  0.1187  -3.4e-05  0.946467  0.0  0.121445  -3e-05  1.020307  0.0  0.124649  -2.5e-05  1.016387  0.0  0.143383  0.119087  -3.3e-05  1.023063  0.0
H  H15  1  0.08083750  0.60158702  0.58436598  1  0.118688  -2.5e-05  0.946512  0.0  0.121419  -2.9e-05  1.020367  0.0  0.124623  -2.5e-05  1.016446  0.0  0.143429  0.119064  -3.3e-05  1.023149  0.0
H  H16  1  0.41917613  0.10157987  0.58435857  1  0.11872  -3e-05  0.946515  0.0  0.121458  -3e-05  1.020362  0.0  0.124664  -2.4e-05  1.01644  0.0  0.143407  0.11915  -3.3e-05  1.022983  0.0
H  H17  1  0.91915771  0.39841478  0.41564120  1  0.118631  -2.7e-05  0.94653  0.0  0.121393  -2.9e-05  1.020339  0.0  0.124597  -2.5e-05  1.016423  0.0  0.143406  0.11904  -3.3e-05  1.023085  0.0
C  C18  1  0.61674176  0.52099333  0.29566608  1  0.140156  0.000308  3.636414  0.001  0.073908  0.000875  3.924638  0.001  0.087843  0.000431  3.933098  0.001  0.159824  0.057714  0.001296  3.914523  0.001
C  C19  1  0.11674282  0.97902316  0.70434092  1  0.140057  0.000335  3.636424  0.001  0.073783  0.000876  3.924686  0.001  0.087711  0.000432  3.933149  0.001  0.159818  0.057637  0.001297  3.914618  0.001
C  C20  1  0.38325814  0.47901054  0.70433989  1  0.140097  0.000302  3.636342  0.001  0.073845  0.000877  3.92457  0.001  0.087769  0.000431  3.933039  0.001  0.159811  0.064893  0.001294  3.918718  0.001
C  C21  1  0.88325081  0.02098283  0.29565888  1  0.140065  0.000338  3.636309  0.001  0.073852  0.000878  3.924499  0.001  0.087765  0.000434  3.93297  0.001  0.159825  0.057713  0.001298  3.914411  0.001
C  C22  1  0.62977701  0.64400911  0.16809989  1  0.172424  0.004342  3.594965  0.005  0.099311  0.007162  3.874025  0.007  0.115609  0.005966  3.883196  0.006  0.179699  0.080936  0.008456  3.863708  0.008
C  C23  1  0.12979799  0.85599622  0.83189728  1  0.172115  0.004391  3.594943  0.005  0.099078  0.007162  3.874105  0.007  0.115358  0.005972  3.883284  0.006  0.17962  0.080765  0.008458  3.863839  0.008
C  C24  1  0.37021819  0.35599071  0.83189779  1  0.172245  0.004383  3.594925  0.005  0.099228  0.007162  3.874074  0.007  0.115517  0.005972  3.883251  0.006  0.179695  0.08815  0.008451  3.868136  0.008
C  C25  1  0.87019878  0.14400870  0.16810642  1  0.172086  0.00436  3.594981  0.005  0.099076  0.007162  3.874158  0.007  0.115348  0.005973  3.883341  0.006  0.179667  0.08077  0.008458  3.863866  0.008
C  C26  1  0.18154954  0.69711929  0.33715534  1  0.145949  -8.6e-05  3.634152  0.0  0.085162  9e-05  3.916182  0.0  0.097091  -7.9e-05  3.927207  0.0  0.160043  0.076586  0.000306  3.911072  0.0
C  C27  1  0.68155669  0.80287510  0.66284102  1  0.145804  -8.6e-05  3.634323  0.0  0.085135  9e-05  3.916375  0.0  0.097072  -7.8e-05  3.927388  0.0  0.16001  0.076551  0.000306  3.911281  0.0
C  C28  1  0.81844253  0.30288256  0.66284606  1  0.145919  -8.5e-05  3.634057  0.0  0.085175  9e-05  3.916124  0.0  0.097119  -8.1e-05  3.927148  0.0  0.160018  0.077042  0.000306  3.909244  0.0
C  C29  1  0.31843851  0.19712784  0.33715235  1  0.145693  -6.2e-05  3.634254  0.0  0.085042  8.9e-05  3.916372  0.0  0.096978  -7.8e-05  3.927387  0.0  0.159962  0.076452  0.000306  3.911272  0.0
C  C30  1  0.42754472  0.85051851  0.40172745  1  0.138797  0.000202  3.668536  0.0  0.075287  0.0003  3.954995  0.0  0.087667  0.000186  3.965704  0.0  0.158154  0.067021  0.000451  3.949283  0.0
C  C31  1  0.92756987  0.64948183  0.59826784  1  0.138934  0.000164  3.668921  0.0  0.075426  0.000299  3.955386  0.0  0.08781  0.000186  3.9661  0.0  0.158175  0.067166  0.00045  3.949692  0.0
C  C32  1  0.57244423  0.14948546  0.59826614  1  0.138738  0.000189  3.668754  0.0  0.075225  0.000299  3.955212  0.0  0.087603  0.000188  3.965924  0.0  0.158144  0.06745  0.00045  3.947556  0.0
C  C33  1  0.07242846  0.35052000  0.40173604  1  0.138957  0.000178  3.668881  0.0  0.075405  0.000298  3.95539  0.0  0.08779  0.000188  3.966103  0.0  0.158144  0.067145  0.00045  3.949665  0.0
N  N34  1  0.75923672  0.53945861  0.13719044  1  -0.248597  0.025625  3.164689  0.013  -0.186532  0.030862  3.458801  0.015  -0.204772  0.027699  3.473253  0.012  -0.221205  -0.173859  0.033559  3.451624  0.017
N  N35  1  0.25925316  0.96054664  0.86280801  1  -0.2484  0.025589  3.164582  0.013  -0.186465  0.030857  3.458815  0.015  -0.204696  0.027696  3.473263  0.012  -0.221216  -0.173786  0.033554  3.451626  0.017
N  N36  1  0.24076786  0.46054935  0.86281887  1  -0.248289  0.025595  3.164319  0.013  -0.186415  0.03086  3.458593  0.015  -0.204643  0.027696  3.473035  0.012  -0.22114  -0.17287  0.033552  3.448331  0.017
N  N37  1  0.74073735  0.03945522  0.13719175  1  -0.248409  0.02562  3.164752  0.013  -0.186521  0.030861  3.459022  0.015  -0.204753  0.027695  3.473474  0.012  -0.221283  -0.173836  0.033557  3.451806  0.017
N  N38  1  0.75095636  0.46134137  0.21713042  1  -0.231517  0.000833  2.945188  0.002  -0.211134  0.002315  3.235384  0.003  -0.221089  0.001674  3.251218  0.003  -0.219452  -0.205225  0.003003  3.22716  0.004
N  N39  1  0.25096703  0.03867569  0.78287537  1  -0.231501  0.000813  2.944831  0.002  -0.211064  0.002316  3.235044  0.003  -0.221018  0.001665  3.25088  0.003  -0.219408  -0.205156  0.003002  3.226816  0.004
N  N40  1  0.24905605  0.53866661  0.78287806  1  -0.231524  0.000835  2.945174  0.002  -0.211062  0.002319  3.235386  0.003  -0.221017  0.001661  3.25122  0.003  -0.219403  -0.204348  0.003001  3.224123  0.004
N  N41  1  0.74902504  0.96132618  0.21712439  1  -0.231617  0.000803  2.945001  0.002  -0.211185  0.002321  3.235228  0.003  -0.221136  0.00166  3.251067  0.003  -0.219402  -0.205279  0.003004  3.226988  0.004
N  N42  1  0.53854055  0.63635948  0.26850194  1  -0.000877  0.000664  3.554334  0.001  0.075097  0.001822  3.778491  0.002  0.06095  0.001291  3.800329  0.001  -0.11416  0.109032  0.0024  3.728362  0.002
N  N43  1  0.03855323  0.86365750  0.73149876  1  -0.00057  0.000651  3.554147  0.001  0.075362  0.001823  3.77834  0.002  0.061243  0.001286  3.800177  0.001  -0.114146  0.109093  0.002399  3.728427  0.002
N  N44  1  0.46145934  0.36364235  0.73150193  1  -0.000796  0.000656  3.554452  0.001  0.075171  0.001819  3.778601  0.002  0.061034  0.001293  3.800446  0.001  -0.114205  0.083826  0.002423  3.764048  0.002
N  N45  1  0.96143884  0.13634746  0.26849917  1  -0.000408  0.000659  3.554162  0.001  0.0755  0.001819  3.778328  0.002  0.061394  0.001294  3.800168  0.001  -0.114124  0.109196  0.002399  3.728464  0.002
N  N46  1  0.39137101  0.72380903  0.32960621  1  -0.005214  0.00041  3.552121  0.0  0.066612  0.000583  3.774769  0.001  0.055655  0.000409  3.79682  0.0  -0.117884  0.066385  0.000793  3.755572  0.001
N  N47  1  0.89138384  0.77619820  0.67039641  1  -0.005314  0.000416  3.551739  0.001  0.066555  0.000581  3.774329  0.001  0.055576  0.00041  3.796388  0.0  -0.117835  0.066396  0.000793  3.755164  0.001
N  N48  1  0.60862888  0.27619692  0.67039854  1  -0.00529  0.000411  3.552192  0.0  0.066569  0.00058  3.774791  0.001  0.055602  0.000411  3.796848  0.0  -0.117857  0.073902  0.000788  3.759864  0.001
N  N49  1  0.10860823  0.22380369  0.32959922  1  -0.005451  0.000408  3.551856  0.0  0.066458  0.00058  3.774444  0.001  0.055469  0.000414  3.796509  0.0  -0.117859  0.066306  0.000793  3.755275  0.001
N  N50  1  0.09410829  0.80201712  0.40903656  1  -0.243292  6.5e-05  2.930985  0.0  -0.221933  0.000156  3.227846  0.0  -0.231052  8.6e-05  3.241175  0.0  -0.235652  -0.215734  0.000253  3.218638  0.0
N  N51  1  0.59412506  0.69797046  0.59095778  1  -0.243356  6.5e-05  2.930869  0.0  -0.22201  0.000155  3.227711  0.0  -0.231129  8.8e-05  3.241032  0.0  -0.235746  -0.215813  0.000253  3.21855  0.0
N  N52  1  0.90588847  0.19798277  0.59095286  1  -0.24328  5.7e-05  2.930667  0.0  -0.221927  0.000153  3.227514  0.0  -0.23105  8.5e-05  3.240841  0.0  -0.235659  -0.215718  0.000253  3.218457  0.0
N  N53  1  0.40587327  0.30203354  0.40903252  1  -0.243344  4.6e-05  2.931005  0.0  -0.221987  0.000157  3.227832  0.0  -0.231107  8.1e-05  3.241154  0.0  -0.235714  -0.215787  0.000253  3.218661  0.0
N  N54  1  0.25017924  0.89984954  0.44919822  1  -0.25898  -5.2e-05  2.96811  0.0  -0.232501  0.00012  3.268207  0.0  -0.243289  5.5e-05  3.282166  0.0  -0.233587  -0.225236  0.000211  3.258579  0.0
N  N55  1  0.75021484  0.60014429  0.55080362  1  -0.258964  -1.5e-05  2.968348  0.0  -0.23249  0.00012  3.268465  0.0  -0.243281  5.7e-05  3.282429  0.0  -0.233485  -0.22523  0.000211  3.258879  0.0
N  N56  1  0.74980657  0.10015546  0.55079642  1  -0.258909  -2.6e-05  2.968198  0.0  -0.232434  0.000124  3.268321  0.0  -0.24322  5.5e-05  3.282283  0.0  -0.233557  -0.225164  0.000211  3.258831  0.0
N  N57  1  0.24978974  0.39985657  0.44919262  1  -0.258888  -2.2e-05  2.968372  0.0  -0.2324  0.000119  3.268491  0.0  -0.243189  5.8e-05  3.282454  0.0  -0.23345  -0.225136  0.000211  3.25889  0.0
N  N58  1  0.21382513  0.42270455  0.11390743  1  -0.523022  0.028476  2.627719  0.015  -0.515549  0.042765  2.931667  0.022  -0.535081  0.032769  2.93663  0.014  -0.265033  -0.499968  0.052888  2.928394  0.031
N  N59  1  0.71388218  0.07724940  0.88609670  1  -0.522614  0.02843  2.629163  0.015  -0.515289  0.042752  2.932987  0.022  -0.534797  0.032756  2.937942  0.014  -0.264941  -0.499736  0.05287  2.929741  0.031
N  N60  1  0.78620135  0.57727252  0.88610113  1  -0.523142  0.028502  2.627823  0.015  -0.515727  0.042784  2.931849  0.022  -0.535256  0.032781  2.936808  0.014  -0.265137  -0.500049  0.052905  2.928205  0.031
N  N61  1  0.28612397  0.92274018  0.11389385  1  -0.52257  0.028466  2.628779  0.015  -0.51521  0.042776  2.932634  0.022  -0.534718  0.032782  2.937594  0.014  -0.264845  -0.499643  0.052894  2.92932  0.031
N  N62  1  0.30362760  0.31569532  0.09075010  1  0.412472  0.00902  4.241878  0.012  0.450481  0.02087  4.519645  0.024  0.467787  0.016487  4.551572  0.02  0.091245  0.438142  0.024764  4.496099  0.027
N  N63  1  0.80359109  0.18426051  0.90923106  1  0.412429  0.009021  4.242652  0.012  0.450719  0.020875  4.520042  0.024  0.468029  0.016493  4.551969  0.02  0.091554  0.438383  0.024768  4.496503  0.027
N  N64  1  0.69640044  0.68427770  0.90924853  1  0.412798  0.009025  4.241711  0.012  0.450826  0.020877  4.519448  0.024  0.468138  0.016496  4.55137  0.02  0.091515  0.438494  0.024772  4.49592  0.027
N  N65  1  0.19640411  0.81572796  0.09076835  1  0.412448  0.009022  4.242296  0.012  0.450648  0.02088  4.519859  0.024  0.467958  0.016497  4.551783  0.02  0.091512  0.438313  0.024775  4.496263  0.027
N  N66  1  0.39471404  0.21036010  0.06926282  1  -0.488669  0.058747  2.676849  0.043  -0.47659  0.065222  2.979191  0.041  -0.495932  0.0574  2.984576  0.035  -0.246401  -0.460986  0.074703  2.975427  0.049
N  N67  1  0.89461992  0.28965522  0.93070586  1  -0.489204  0.058805  2.676236  0.043  -0.477309  0.065252  2.978572  0.041  -0.496675  0.057428  2.983965  0.035  -0.246881  -0.461692  0.074737  2.974828  0.049
N  N68  1  0.60530618  0.78961710  0.93072925  1  -0.489016  0.058741  2.676858  0.043  -0.476907  0.06523  2.979125  0.041  -0.496255  0.057406  2.984502  0.035  -0.246664  -0.461304  0.074713  2.975376  0.049
N  N69  1  0.10536590  0.71033728  0.06930431  1  -0.489241  0.05878  2.676319  0.043  -0.4773  0.065239  2.978704  0.041  -0.496664  0.05741  2.984092  0.035  -0.246956  -0.461692  0.074725  2.974923  0.049
