# generated using pymatgen
data_MgH9C5O8
_symmetry_space_group_name_H-M   'P 1'
_cell_length_a   5.01898582
_cell_length_b   11.19608663
_cell_length_c   14.39454991
_cell_angle_alpha   90.00006803
_cell_angle_beta   89.99981150
_cell_angle_gamma   99.91936903
_symmetry_Int_Tables_number   1
_chemical_formula_structural   MgH9C5O8
_chemical_formula_sum   'Mg4 H36 C20 O32'
_cell_volume   796.78122219
_cell_formula_units_Z   4
loop_
 _symmetry_equiv_pos_site_id
 _symmetry_equiv_pos_as_xyz
  1  'x, y, z'
loop_
 _atom_site_type_symbol
 _atom_site_label
 _atom_site_symmetry_multiplicity
 _atom_site_fract_x
 _atom_site_fract_y
 _atom_site_fract_z
 _atom_site_occupancy
 _atom_site_pbe_bader_spin_density
 _atom_site_pbe_cm5_charge
 _atom_site_pbe_ddec_charge
 _atom_site_pbe_ddec_spin_density
 _atom_site_pbe_ddec_sum_bond_order
 _atom_site_pbe_magmom
Mg  Mg0  1  0.91217624  0.85049230  0.85731949  1  0  0.810012  1.437079  0  1.308658  0
Mg  Mg1  1  0.58782764  0.64950853  0.35732062  1  0  0.80999  1.437  0  1.308808  0
Mg  Mg2  1  0.08782301  0.14950712  0.14267902  1  0  0.809985  1.436963  0  1.30891  0
Mg  Mg3  1  0.41217662  0.35049362  0.64267928  1  0  0.80999  1.437002  0  1.308815  0
H  H4  1  0.81565473  0.62227622  0.10974275  1  0  0.109632  0.113287  0  1.017379  0
H  H5  1  0.68434980  0.87772531  0.60975024  1  0  0.109615  0.113256  0  1.017316  0
H  H6  1  0.18433087  0.37771864  0.89025229  1  0  0.109606  0.11317  0  1.017425  0
H  H7  1  0.31565815  0.12228138  0.39025383  1  0  0.109603  0.11318  0  1.017386  0
H  H8  1  0.24734092  0.03713364  0.96035224  1  0  0.304545  0.396745  0  0.939104  0
H  H9  1  0.25266340  0.46286647  0.46035139  1  0  0.304574  0.39679  0  0.93907  0
H  H10  1  0.75265800  0.96286488  0.03964975  1  0  0.304589  0.396856  0  0.938987  0
H  H11  1  0.74734286  0.53713569  0.53964852  1  0  0.304551  0.396753  0  0.939108  0
H  H12  1  0.37053025  0.91797319  0.94361360  1  0  0.304948  0.385735  0  0.961694  0
H  H13  1  0.12946831  0.58202522  0.44361323  1  0  0.304965  0.385736  0  0.961679  0
H  H14  1  0.62946435  0.08202441  0.05638769  1  0  0.304947  0.385726  0  0.961691  0
H  H15  1  0.87053328  0.41797511  0.55638528  1  0  0.304968  0.385752  0  0.961672  0
H  H16  1  0.27888776  0.93195484  0.71746765  1  0  0.305403  0.401281  0  0.935194  0
H  H17  1  0.22111489  0.56804338  0.21746716  1  0  0.305436  0.401362  0  0.935076  0
H  H18  1  0.72111782  0.06804550  0.28253295  1  0  0.305424  0.401327  0  0.935119  0
H  H19  1  0.77888768  0.43195424  0.78253274  1  0  0.305396  0.40127  0  0.935212  0
H  H20  1  0.13037116  0.80157062  0.68582375  1  0  0.295127  0.382904  0  0.967135  0
H  H21  1  0.36963544  0.69842669  0.18582391  1  0  0.295146  0.382868  0  0.96717  0
H  H22  1  0.86963408  0.19842882  0.31417615  1  0  0.295116  0.382826  0  0.967227  0
H  H23  1  0.63036480  0.30157002  0.81417599  1  0  0.29509  0.382826  0  0.967238  0
H  H24  1  0.60296444  0.66811924  0.75131766  1  0  0.319628  0.415021  0  0.88955  0
H  H25  1  0.89704209  0.83188060  0.25131722  1  0  0.319622  0.415028  0  0.889541  0
H  H26  1  0.39703682  0.33188018  0.24868085  1  0  0.319649  0.415045  0  0.889512  0
H  H27  1  0.10296548  0.16811974  0.74868130  1  0  0.31964  0.415028  0  0.88954  0
H  H28  1  0.44725241  0.78095902  0.76405109  1  0  0.301485  0.397286  0  0.940133  0
H  H29  1  0.05275146  0.71903834  0.26405093  1  0  0.301477  0.397272  0  0.940154  0
H  H30  1  0.55275050  0.21903950  0.23594742  1  0  0.301462  0.397265  0  0.940162  0
H  H31  1  0.94724911  0.28095928  0.73594828  1  0  0.301466  0.39729  0  0.940125  0
H  H32  1  0.68656806  0.02083311  0.76059305  1  0  0.295594  0.38458  0  0.964623  0
H  H33  1  0.81343599  0.47916751  0.26059214  1  0  0.295619  0.384653  0  0.964514  0
H  H34  1  0.31343320  0.97916632  0.23940616  1  0  0.29557  0.384597  0  0.964609  0
H  H35  1  0.18656594  0.52083373  0.73940707  1  0  0.295594  0.384621  0  0.964572  0
H  H36  1  0.73209674  0.07279516  0.86090532  1  0  0.304095  0.399598  0  0.924448  0
H  H37  1  0.76790637  0.42720554  0.36090441  1  0  0.304104  0.399585  0  0.92447  0
H  H38  1  0.26790384  0.92720245  0.13909459  1  0  0.304074  0.39957  0  0.924492  0
H  H39  1  0.23209988  0.57279662  0.63909479  1  0  0.304079  0.39959  0  0.92447  0
C  C40  1  0.50445600  0.75827712  0.02608980  1  0  0.243212  0.638152  0  4.123215  0
C  C41  1  0.99554099  0.74172342  0.52609126  1  0  0.243178  0.638137  0  4.123183  0
C  C42  1  0.49553758  0.24171776  0.97390941  1  0  0.243224  0.638233  0  4.123021  0
C  C43  1  0.00446029  0.25828144  0.47390934  1  0  0.243234  0.638175  0  4.123044  0
C  C44  1  0.49664007  0.62482387  0.00989056  1  0  0.000398  -0.03778  0  3.917328  0
C  C45  1  0.00335624  0.87517869  0.50989269  1  0  0.000311  -0.037907  0  3.9176  0
C  C46  1  0.50335088  0.37517462  0.99011074  1  0  0.000378  -0.037812  0  3.917291  0
C  C47  1  0.99664272  0.12482526  0.49011208  1  0  0.000393  -0.037801  0  3.917299  0
C  C48  1  0.67506435  0.56869011  0.06179132  1  0  -0.077756  -0.107601  0  3.936458  0
C  C49  1  0.82493698  0.93131229  0.56179592  1  0  -0.077632  -0.107393  0  3.936465  0
C  C50  1  0.32492393  0.43130657  0.93820719  1  0  -0.077694  -0.107404  0  3.936354  0
C  C51  1  0.17507330  0.06869531  0.43821023  1  0  -0.077683  -0.107398  0  3.936318  0
C  C52  1  0.31798935  0.55515918  0.94720371  1  0  -0.010546  -0.060107  0  3.940238  0
C  C53  1  0.18201052  0.94484286  0.44720570  1  0  -0.010562  -0.06013  0  3.940298  0
C  C54  1  0.68199926  0.44483840  0.05279758  1  0  -0.010514  -0.060084  0  3.940258  0
C  C55  1  0.81799275  0.05516201  0.55279907  1  0  -0.010602  -0.060245  0  3.940399  0
C  C56  1  0.11657840  0.61069997  0.89169465  1  0  0.223535  0.604344  0  4.205898  0
C  C57  1  0.38341969  0.88930654  0.39169705  1  0  0.223632  0.604455  0  4.205737  0
C  C58  1  0.88341322  0.38930034  0.10830456  1  0  0.223503  0.604317  0  4.205947  0
C  C59  1  0.61658727  0.11070286  0.60830563  1  0  0.223536  0.604466  0  4.205855  0
O  O60  1  0.63206018  0.83613810  0.96888965  1  0  -0.332175  -0.652998  0  2.321352  0
O  O61  1  0.86794101  0.66386373  0.46888909  1  0  -0.332087  -0.652905  0  2.321402  0
O  O62  1  0.36792675  0.16385495  0.03111025  1  0  -0.332208  -0.653029  0  2.321271  0
O  O63  1  0.13206727  0.33614386  0.53111012  1  0  -0.332192  -0.652988  0  2.321294  0
O  O64  1  0.08047419  0.71509123  0.91616022  1  0  -0.341837  -0.628282  0  2.3304  0
O  O65  1  0.41952729  0.78490897  0.41616180  1  0  -0.341873  -0.628318  0  2.330116  0
O  O66  1  0.91951939  0.28490364  0.08383621  1  0  -0.341803  -0.628269  0  2.330363  0
O  O67  1  0.58047264  0.21509227  0.58383880  1  0  -0.341854  -0.628327  0  2.330389  0
O  O68  1  0.39983917  0.78987974  0.09999493  1  0  -0.29581  -0.534211  0  2.209085  0
O  O69  1  0.10016725  0.71012021  0.59999680  1  0  -0.29584  -0.534262  0  2.208926  0
O  O70  1  0.60015607  0.21011424  0.90000428  1  0  -0.295781  -0.534248  0  2.209064  0
O  O71  1  0.89984566  0.28988378  0.40000380  1  0  -0.29582  -0.53426  0  2.20906  0
O  O72  1  0.99561652  0.55222047  0.82317305  1  0  -0.321936  -0.584744  0  2.241699  0
O  O73  1  0.50438237  0.94778214  0.32317524  1  0  -0.321972  -0.584798  0  2.241809  0
O  O74  1  0.00438041  0.44777804  0.17682199  1  0  -0.321911  -0.584738  0  2.241817  0
O  O75  1  0.49562023  0.05222091  0.67682535  1  0  -0.321888  -0.584731  0  2.241694  0
O  O76  1  0.21231929  0.95672140  0.93026629  1  0  -0.62852  -0.843161  0  2.085108  0
O  O77  1  0.28768139  0.54327700  0.43026502  1  0  -0.628563  -0.84319  0  2.085129  0
O  O78  1  0.78767531  0.04327620  0.06973639  1  0  -0.628553  -0.843232  0  2.085094  0
O  O79  1  0.71231754  0.45672152  0.56973211  1  0  -0.628545  -0.843177  0  2.085072  0
O  O80  1  0.18205970  0.85365293  0.74273001  1  0  -0.59057  -0.831424  0  2.114378  0
O  O81  1  0.31794305  0.64634622  0.24272949  1  0  -0.59062  -0.831477  0  2.114331  0
O  O82  1  0.81794588  0.14634741  0.25727059  1  0  -0.590587  -0.831376  0  2.114477  0
O  O83  1  0.68205587  0.35365229  0.75727042  1  0  -0.590539  -0.831352  0  2.114441  0
O  O84  1  0.62330081  0.75205368  0.77236801  1  0  -0.61274  -0.850412  0  2.069063  0
O  O85  1  0.87670353  0.74794618  0.27236891  1  0  -0.612724  -0.850394  0  2.069065  0
O  O86  1  0.37670443  0.24794575  0.22762980  1  0  -0.612727  -0.850389  0  2.069065  0
O  O87  1  0.12329772  0.25205325  0.72762960  1  0  -0.612721  -0.8504  0  2.069054  0
O  O88  1  0.79906961  0.01581214  0.81774100  1  0  -0.605764  -0.825328  0  2.021424  0
O  O89  1  0.70093623  0.48418944  0.31774231  1  0  -0.605771  -0.825335  0  2.021346  0
O  O90  1  0.20093330  0.98418639  0.18225821  1  0  -0.605693  -0.825261  0  2.021422  0
O  O91  1  0.29906404  0.51581270  0.68225898  1  0  -0.605735  -0.825322  0  2.021375  0
