# generated using pymatgen
data_NiH12(CO)8
_symmetry_space_group_name_H-M   'P 1'
_cell_length_a   8.46753396
_cell_length_b   8.80329162
_cell_length_c   8.80328603
_cell_angle_alpha   99.40528408
_cell_angle_beta   109.39209909
_cell_angle_gamma   109.39218127
_symmetry_Int_Tables_number   1
_chemical_formula_structural   NiH12(CO)8
_chemical_formula_sum   'Ni2 H24 C16 O16'
_cell_volume   555.56853902
_cell_formula_units_Z   2
loop_
 _symmetry_equiv_pos_site_id
 _symmetry_equiv_pos_as_xyz
  1  'x, y, z'
loop_
 _atom_site_type_symbol
 _atom_site_label
 _atom_site_symmetry_multiplicity
 _atom_site_fract_x
 _atom_site_fract_y
 _atom_site_fract_z
 _atom_site_occupancy
 _atom_site_pbe_cm5_charge
 _atom_site_pbe_ddec_charge
 _atom_site_pbe_ddec_spin_density
 _atom_site_pbe_ddec_sum_bond_order
 _atom_site_pbe_magmom
Ni  Ni0  1  0.25000050  0.91633475  0.08366599  1  0.60198  0.980286  -0.03124  2.215816  -0.031
Ni  Ni1  1  0.75000023  0.08366424  0.91633531  1  0.602002  0.980427  -0.031352  2.215638  -0.031
H  H2  1  0.49525955  0.62943719  0.86308418  1  0.103701  0.106533  0.000181  1.028965  0.0
H  H3  1  0.00474093  0.13691680  0.37056192  1  0.103698  0.10654  0.000181  1.028951  0.0
H  H4  1  0.50474108  0.37056435  0.13691525  1  0.103707  0.106524  0.000181  1.028973  0.0
H  H5  1  0.99525798  0.86308092  0.62943859  1  0.103704  0.106554  0.000181  1.02893  0.0
H  H6  1  0.57907936  0.44527302  0.68650189  1  0.10701  0.110821  -4.4e-05  1.012267  0.0
H  H7  1  0.92091949  0.31349838  0.55472522  1  0.107019  0.110843  -4.4e-05  1.012305  0.0
H  H8  1  0.42092012  0.55472597  0.31349901  1  0.107021  0.110849  -4.3e-05  1.01231  0.0
H  H9  1  0.07907942  0.68649935  0.44527528  1  0.10702  0.110864  -4.3e-05  1.012273  0.0
H  H10  1  0.18308840  0.14395057  0.92413774  1  0.309936  0.417094  -0.001691  0.893887  -0.002
H  H11  1  0.31691060  0.07586172  0.85604854  1  0.309941  0.417092  -0.001691  0.893892  -0.002
H  H12  1  0.81691063  0.85604463  0.07586125  1  0.309973  0.417208  -0.001697  0.893727  -0.002
H  H13  1  0.68308943  0.92413853  0.14395502  1  0.30999  0.417259  -0.001697  0.893665  -0.002
H  H14  1  0.14710075  0.65756569  0.20741134  1  0.293136  0.395151  -0.001406  0.946311  -0.002
H  H15  1  0.35289876  0.79258772  0.34243423  1  0.293111  0.395106  -0.001406  0.946363  -0.002
H  H16  1  0.85289671  0.34243713  0.79258387  1  0.293158  0.395216  -0.00141  0.946225  -0.002
H  H17  1  0.64710428  0.20741638  0.65756299  1  0.293164  0.395223  -0.00141  0.946212  -0.002
H  H18  1  0.90140397  0.83121510  0.87676408  1  0.295221  0.38015  5e-06  0.965056  0.0
H  H19  1  0.59859747  0.12323743  0.16878602  1  0.295229  0.380151  5e-06  0.965054  0.0
H  H20  1  0.09859063  0.16878137  0.12323256  1  0.295221  0.380124  7e-06  0.96508  0.0
H  H21  1  0.40140987  0.87676790  0.83121848  1  0.295224  0.38015  7e-06  0.965052  0.0
H  H22  1  0.95283817  0.67851299  0.91671357  1  0.28925  0.372217  0.000278  0.979002  0.0
H  H23  1  0.54716259  0.08328784  0.32148695  1  0.289256  0.372207  0.000278  0.979021  0.0
H  H24  1  0.04715800  0.32148980  0.08328690  1  0.289238  0.37223  0.00028  0.978979  0.0
H  H25  1  0.45284307  0.91671373  0.67851069  1  0.289245  0.372258  0.00028  0.978929  0.0
C  C26  1  0.15288491  0.59392346  0.82493137  1  0.227637  0.586974  0.001966  4.153171  0.0
C  C27  1  0.34711548  0.17506871  0.40607628  1  0.22766  0.587015  0.001966  4.153147  0.0
C  C28  1  0.84711869  0.40608188  0.17506852  1  0.227607  0.586903  0.00196  4.153134  0.0
C  C29  1  0.65288153  0.82493031  0.59391816  1  0.227651  0.587012  0.00196  4.153075  0.0
C  C30  1  0.20313125  0.48278129  0.71995404  1  -0.015425  -0.039715  0.004667  3.976713  0.004
C  C31  1  0.29686867  0.28004622  0.51721849  1  -0.01543  -0.039729  0.004667  3.976635  0.004
C  C32  1  0.79686812  0.51722024  0.28004611  1  -0.015414  -0.039652  0.004652  3.976621  0.004
C  C33  1  0.70313082  0.71995279  0.48278015  1  -0.015441  -0.039803  0.004651  3.976693  0.004
C  C34  1  0.38863318  0.51984581  0.75659912  1  -0.084609  -0.090831  0.00065  3.957452  0.0
C  C35  1  0.11136577  0.24340227  0.48015402  1  -0.084585  -0.090795  0.00065  3.957375  0.0
C  C36  1  0.61136688  0.48015446  0.24340105  1  -0.084593  -0.090796  0.000649  3.957413  0.0
C  C37  1  0.88863245  0.75659671  0.51984762  1  -0.084593  -0.090747  0.000649  3.957325  0.0
C  C38  1  0.43520974  0.41756224  0.65747323  1  -0.081413  -0.089436  0.001124  3.958001  0.001
C  C39  1  0.06478778  0.34252768  0.58243729  1  -0.081427  -0.089467  0.001124  3.95811  0.001
C  C40  1  0.56478848  0.58243675  0.34252727  1  -0.081415  -0.089448  0.001121  3.958038  0.001
C  C41  1  0.93521169  0.65747131  0.41756361  1  -0.081441  -0.089573  0.001121  3.957999  0.001
O  O42  1  0.27209415  0.74690253  0.90576911  1  -0.297972  -0.553669  0.051595  2.392617  0.054
O  O43  1  0.22790576  0.09423159  0.25309734  1  -0.297982  -0.553675  0.051595  2.392588  0.054
O  O44  1  0.72790339  0.25309772  0.09423251  1  -0.297931  -0.553644  0.051465  2.392481  0.054
O  O45  1  0.77209566  0.90576615  0.74690284  1  -0.297945  -0.553667  0.051463  2.392479  0.054
O  O46  1  0.99595083  0.53439080  0.82864962  1  -0.294768  -0.527309  -0.001325  2.268276  -0.001
O  O47  1  0.50404828  0.17135075  0.46560919  1  -0.294778  -0.52732  -0.001325  2.26828  -0.001
O  O48  1  0.00404867  0.46560822  0.17134789  1  -0.294719  -0.527219  -0.001326  2.268349  -0.001
O  O49  1  0.49595166  0.82865205  0.53439136  1  -0.294761  -0.527282  -0.001326  2.268312  -0.001
O  O50  1  0.95590860  0.79059756  0.97235453  1  -0.565308  -0.754319  -0.002965  2.144616  -0.004
O  O51  1  0.54409363  0.02764618  0.20940440  1  -0.565316  -0.754309  -0.002966  2.144636  -0.004
O  O52  1  0.04407047  0.20939505  0.02764328  1  -0.565314  -0.754353  -0.002689  2.144739  -0.003
O  O53  1  0.45592942  0.97235791  0.79060608  1  -0.565315  -0.754383  -0.002688  2.14471  -0.003
O  O54  1  0.24999959  0.07101411  0.92898501  1  -0.576898  -0.798057  -0.031175  2.186147  -0.031
O  O55  1  0.74999951  0.92897852  0.07102152  1  -0.576984  -0.798389  -0.031283  2.185899  -0.031
O  O56  1  0.25000131  0.76795342  0.23204377  1  -0.597905  -0.809594  -0.0436  2.212761  -0.047
O  O57  1  0.75000108  0.23205196  0.76794892  1  -0.598027  -0.809799  -0.043715  2.212496  -0.047
