# generated using pymatgen
data_CdNiH12(CN)7
_symmetry_space_group_name_H-M   'P 1'
_cell_length_a   7.32478790
_cell_length_b   11.59618123
_cell_length_c   11.73157193
_cell_angle_alpha   87.04190958
_cell_angle_beta   103.20430525
_cell_angle_gamma   100.13434413
_symmetry_Int_Tables_number   1
_chemical_formula_structural   CdNiH12(CN)7
_chemical_formula_sum   'Cd2 Ni2 H24 C14 N14'
_cell_volume   954.92580624
_cell_formula_units_Z   2
loop_
 _symmetry_equiv_pos_site_id
 _symmetry_equiv_pos_as_xyz
  1  'x, y, z'
loop_
 _atom_site_type_symbol
 _atom_site_label
 _atom_site_symmetry_multiplicity
 _atom_site_fract_x
 _atom_site_fract_y
 _atom_site_fract_z
 _atom_site_occupancy
 _atom_site_pbe_bader_charge
 _atom_site_pbe_bader_spin_density
 _atom_site_pbe_cm5_charge
 _atom_site_pbe_ddec_charge
 _atom_site_pbe_ddec_spin_density
 _atom_site_pbe_ddec_sum_bond_order
 _atom_site_pbe_magmom
Cd  Cd0  1  0.14052237  0.23894245  0.21598369  1  1.233344  0  0.801155  0.851742  0  2.354866  0
Cd  Cd1  1  0.85946028  0.76104691  0.78401501  1  1.233295  0  0.801187  0.851935  0  2.354359  0
Ni  Ni2  1  0.49999132  0.99998818  0.00001707  1  0.643556  0  0.395798  0.128887  0  3.88302  0
Ni  Ni3  1  0.99997899  0.49999549  0.49999296  1  0.631097  0  0.388344  0.134074  0  3.882988  0
H  H4  1  0.30826428  0.04530503  0.31587570  1  0.420689  0  0.302763  0.284555  0  0.93894  0
H  H5  1  0.15299101  0.05351610  0.39588502  1  0.413864  0  0.305326  0.289048  0  0.931942  0
H  H6  1  0.50682827  0.10599499  0.50313068  1  0.026172  0  0.092302  0.054939  0  0.995638  0
H  H7  1  0.34864112  0.20325949  0.51352100  1  0.084122  0  0.10859  0.095336  0  0.984423  0
H  H8  1  0.59722268  0.22705184  0.33238698  1  0.039414  0  0.103837  0.086343  0  0.974303  0
H  H9  1  0.65181280  0.30516266  0.46523761  1  0.088411  0  0.099554  0.0688  0  0.999165  0
H  H10  1  0.37917740  0.39359711  0.39653295  1  0.436866  0  0.29169  0.286347  0  0.957518  0
H  H11  1  0.49420187  0.40775551  0.29198414  1  0.428738  0  0.298614  0.292201  0  0.937941  0
H  H12  1  0.87885718  0.30594736  0.02264517  1  0.437034  0  0.304974  0.288412  0  0.930429  0
H  H13  1  0.07964216  0.31763852  0.97833149  1  0.412869  0  0.306131  0.291898  0  0.924348  0
H  H14  1  0.99477329  0.48713951  0.13073775  1  0.064007  0  0.105965  0.085596  0  0.986592  0
H  H15  1  0.20273405  0.50224348  0.07462365  1  0.065973  0  0.108215  0.084322  0  0.952898  0
H  H16  1  0.69172713  0.95469983  0.68413186  1  0.420091  0  0.302747  0.284436  0  0.938974  0
H  H17  1  0.84701511  0.94648067  0.60413766  1  0.414003  0  0.305409  0.289044  0  0.932098  0
H  H18  1  0.49317007  0.89401672  0.49688384  1  0.026042  0  0.092314  0.054929  0  0.995687  0
H  H19  1  0.65136139  0.79676266  0.48647699  1  0.084379  0  0.108602  0.095447  0  0.984417  0
H  H20  1  0.40276765  0.77293288  0.66760356  1  0.039208  0  0.103865  0.086377  0  0.974368  0
H  H21  1  0.34819428  0.69483947  0.53474421  1  0.08868  0  0.099534  0.068758  0  0.999227  0
H  H22  1  0.62084859  0.60641978  0.60344222  1  0.436797  0  0.291761  0.28645  0  0.957367  0
H  H23  1  0.50578340  0.59222032  0.70796901  1  0.429687  0  0.298635  0.292327  0  0.937955  0
H  H24  1  0.12116251  0.69408100  0.97734172  1  0.437321  0  0.304821  0.288157  0  0.930716  0
H  H25  1  0.92039715  0.68235985  0.02167662  1  0.412452  0  0.306246  0.291962  0  0.924269  0
H  H26  1  0.00522927  0.51287392  0.86924156  1  0.063879  0  0.105926  0.085428  0  0.986454  0
H  H27  1  0.79730621  0.49776807  0.92540154  1  0.065545  0  0.108152  0.084159  0  0.952734  0
C  C28  1  0.40186144  0.11143727  0.06136751  1  0.797795  0  0.007248  0.043056  0  3.870186  0
C  C29  1  0.73514929  0.05296190  0.09273788  1  0.808353  0  0.010838  0.047458  0  3.863771  0
C  C30  1  0.96886800  0.40432781  0.37568905  1  0.794882  0  0.015545  0.051604  0  3.868047  0
C  C31  1  0.21434349  0.43655443  0.56888182  1  0.739649  0  -0.021545  -0.026116  0  3.936659  0
C  C32  1  0.41340128  0.16437945  0.45224810  1  0.280827  0  -0.072431  0.000213  0  3.927317  0
C  C33  1  0.53373711  0.26234948  0.39659254  1  0.262615  0  -0.074693  -0.000619  0  3.907538  0
C  C34  1  0.04853760  0.46891957  0.05445202  1  0.256817  0  -0.073778  -0.015058  0  3.95427  0
C  C35  1  0.59811151  0.88853743  0.93866058  1  0.797894  0  0.007234  0.043028  0  3.869848  0
C  C36  1  0.26483435  0.94702276  0.90728833  1  0.807722  0  0.010895  0.047413  0  3.863727  0
C  C37  1  0.03112856  0.59567204  0.62429801  1  0.794871  0  0.01565  0.051939  0  3.868075  0
C  C38  1  0.78561228  0.56344529  0.43110159  1  0.739614  0  -0.021518  -0.026266  0  3.937002  0
C  C39  1  0.58659570  0.83563099  0.54775514  1  0.280531  0  -0.072477  8e-05  0  3.92714  0
C  C40  1  0.46625569  0.73764725  0.60340337  1  0.262634  0  -0.074663  -0.000576  0  3.907423  0
C  C41  1  0.95152750  0.53109906  0.94554787  1  0.283711  0  -0.073642  -0.014394  0  3.953718  0
N  N42  1  0.33982132  0.18206899  0.10214620  1  -1.350264  0  -0.381141  -0.393434  0  3.21627  0
N  N43  1  0.88514677  0.08866219  0.15138814  1  -1.352522  0  -0.385038  -0.388678  0  3.230971  0
N  N44  1  0.95393528  0.34038765  0.29828707  1  -1.359589  0  -0.391341  -0.404359  0  3.221798  0
N  N45  1  0.35272664  0.39666402  0.60874743  1  -1.316909  0  -0.38776  -0.401094  0  2.955909  0
N  N46  1  0.25934958  0.10108436  0.36186818  1  -1.124826  0  -0.622191  -0.573682  0  3.356431  0
N  N47  1  0.41510002  0.34700777  0.33535577  1  -1.114046  0  -0.626622  -0.569171  0  3.314112  0
N  N48  1  0.02046038  0.34099092  0.04278290  1  -1.124455  0  -0.618342  -0.561335  0  3.361365  0
N  N49  1  0.66013911  0.81790985  0.89785946  1  -1.350494  0  -0.381176  -0.393496  0  3.215789  0
N  N50  1  0.11485390  0.91133338  0.84861922  1  -1.351923  0  -0.385066  -0.38865  0  3.230778  0
N  N51  1  0.04608627  0.65960546  0.70171070  1  -1.359411  0  -0.391401  -0.404649  0  3.221826  0
N  N52  1  0.64723466  0.60333831  0.39125898  1  -1.317126  0  -0.387755  -0.400939  0  2.95643  0
N  N53  1  0.74064728  0.89891422  0.63814710  1  -1.124299  0  -0.622271  -0.573582  0  3.356488  0
N  N54  1  0.58490601  0.65298369  0.66463026  1  -1.115006  0  -0.626737  -0.569445  0  3.313859  0
N  N55  1  0.97957205  0.65901988  0.95721550  1  -1.12458  0  -0.618282  -0.561157  0  3.36159  0
