# generated using pymatgen
data_AgH6C9S(NO)3
_symmetry_space_group_name_H-M   'P 1'
_cell_length_a   6.40174908
_cell_length_b   12.30153273
_cell_length_c   13.38854928
_cell_angle_alpha   90.00033627
_cell_angle_beta   90.00097650
_cell_angle_gamma   95.59832445
_symmetry_Int_Tables_number   1
_chemical_formula_structural   AgH6C9S(NO)3
_chemical_formula_sum   'Ag4 H24 C36 S4 N12 O12'
_cell_volume   1049.33694879
_cell_formula_units_Z   4
loop_
 _symmetry_equiv_pos_site_id
 _symmetry_equiv_pos_as_xyz
  1  'x, y, z'
loop_
 _atom_site_type_symbol
 _atom_site_label
 _atom_site_symmetry_multiplicity
 _atom_site_fract_x
 _atom_site_fract_y
 _atom_site_fract_z
 _atom_site_occupancy
 _atom_site_hle17_bader_spin_density
 _atom_site_hle17_ddec_charge
 _atom_site_hle17_ddec_spin_density
 _atom_site_hle17_ddec_sum_bond_order
 _atom_site_hle17_magmom
 _atom_site_hse06_10hf_bader_spin_density
 _atom_site_hse06_10hf_ddec_charge
 _atom_site_hse06_10hf_ddec_spin_density
 _atom_site_hse06_10hf_ddec_sum_bond_order
 _atom_site_hse06_10hf_magmom
 _atom_site_hse06_bader_spin_density
 _atom_site_hse06_ddec_charge
 _atom_site_hse06_ddec_spin_density
 _atom_site_hse06_ddec_sum_bond_order
 _atom_site_hse06_magmom
 _atom_site_pbe_bader_spin_density
 _atom_site_pbe_cm5_charge
 _atom_site_pbe_ddec_charge
 _atom_site_pbe_ddec_spin_density
 _atom_site_pbe_ddec_sum_bond_order
 _atom_site_pbe_magmom
Ag  Ag0  1  0.20779446  0.94260014  0.83298396  1  0  0.522655  0  1.410409  0  0  0.38439  0  1.824446  0  0  0.40732  0  1.791767  0  0  0.473006  0.368814  0  1.847734  0
Ag  Ag1  1  0.79220903  0.55740225  0.33298467  1  0  0.522628  0  1.41039  0  0  0.384359  0  1.824419  0  0  0.407291  0  1.791748  0  0  0.472979  0.36878  0  1.847704  0
Ag  Ag2  1  0.79219876  0.05739856  0.16701671  1  0  0.522607  0  1.410443  0  0  0.384369  0  1.824484  0  0  0.407301  0  1.79181  0  0  0.472975  0.368791  0  1.847769  0
Ag  Ag3  1  0.20780016  0.44259783  0.66701451  1  0  0.522671  0  1.410372  0  0  0.384395  0  1.824442  0  0  0.407328  0  1.791766  0  0  0.473003  0.368815  0  1.847728  0
H  H4  1  0.33209945  0.32373577  0.03639031  1  0  0.147441  0  0.951195  0  0  0.157749  0  1.004699  0  0  0.161825  0  1.002627  0  0  0.121067  0.154756  0  1.006505  0
H  H5  1  0.66787859  0.17626661  0.53638408  1  0  0.147468  0  0.951198  0  0  0.157775  0  1.00471  0  0  0.16185  0  1.002639  0  0  0.121114  0.154778  0  1.006521  0
H  H6  1  0.66792335  0.67626245  0.96360738  1  0  0.147392  0  0.951194  0  0  0.157687  0  1.004734  0  0  0.161763  0  1.002663  0  0  0.121036  0.154693  0  1.006541  0
H  H7  1  0.33210122  0.82373476  0.46361361  1  0  0.147416  0  0.951093  0  0  0.157711  0  1.004643  0  0  0.161789  0  1.002564  0  0  0.121041  0.154714  0  1.006454  0
H  H8  1  0.29939443  0.21295929  0.14715655  1  0  0.118885  0  0.952016  0  0  0.128844  0  1.010907  0  0  0.131903  0  1.009561  0  0  0.112574  0.126636  0  1.012041  0
H  H9  1  0.70055700  0.28704460  0.64715416  1  0  0.118922  0  0.95198  0  0  0.128851  0  1.010916  0  0  0.131895  0  1.009595  0  0  0.112554  0.126681  0  1.012001  0
H  H10  1  0.70058910  0.78704448  0.85284114  1  0  0.118821  0  0.952033  0  0  0.128751  0  1.010974  0  0  0.131819  0  1.009619  0  0  0.112532  0.126542  0  1.012108  0
H  H11  1  0.29945686  0.71295540  0.35284651  1  0  0.118917  0  0.95204  0  0  0.128865  0  1.010959  0  0  0.131911  0  1.009637  0  0  0.112552  0.126695  0  1.012044  0
H  H12  1  0.25143341  0.82868382  0.04221667  1  0  0.095673  0  0.949537  0  0  0.105411  0  1.009211  0  0  0.10815  0  1.007442  0  0  0.115246  0.103391  0  1.010586  0
H  H13  1  0.74859077  0.67131957  0.54221920  1  0  0.095668  0  0.949556  0  0  0.105387  0  1.00925  0  0  0.108126  0  1.007479  0  0  0.115243  0.103373  0  1.010609  0
H  H14  1  0.74857327  0.17131876  0.95778325  1  0  0.095667  0  0.949571  0  0  0.105444  0  1.009201  0  0  0.108187  0  1.007428  0  0  0.115248  0.103423  0  1.01058  0
H  H15  1  0.25141491  0.32867892  0.45778147  1  0  0.095652  0  0.949559  0  0  0.105391  0  1.009229  0  0  0.108132  0  1.007455  0  0  0.115233  0.103372  0  1.0106  0
H  H16  1  0.31560396  0.87477106  0.22520080  1  0  0.115671  0  0.934591  0  0  0.127186  0  0.98961  0  0  0.129923  0  0.988924  0  0  0.110846  0.125243  0  0.990185  0
H  H17  1  0.68440595  0.62523514  0.72520079  1  0  0.115704  0  0.934612  0  0  0.127237  0  0.989585  0  0  0.129965  0  0.988902  0  0  0.110837  0.125293  0  0.99016  0
H  H18  1  0.68438931  0.12523419  0.77479988  1  0  0.115706  0  0.934592  0  0  0.127271  0  0.989529  0  0  0.129987  0  0.988861  0  0  0.110821  0.125327  0  0.990104  0
H  H19  1  0.31560129  0.37476333  0.27479988  1  0  0.115701  0  0.934632  0  0  0.127273  0  0.989549  0  0  0.12999  0  0.988882  0  0  0.110827  0.125329  0  0.990124  0
H  H20  1  0.32696724  0.06876593  0.27781644  1  0  0.114074  0  0.915432  0  0  0.128958  0  0.962518  0  0  0.130898  0  0.961779  0  0  0.117473  0.127538  0  0.963249  0
H  H21  1  0.67300241  0.43124021  0.77781459  1  0  0.114039  0  0.915449  0  0  0.128924  0  0.962552  0  0  0.13087  0  0.961798  0  0  0.117465  0.127502  0  0.963285  0
H  H22  1  0.67301513  0.93123949  0.72218200  1  0  0.114082  0  0.915523  0  0  0.128981  0  0.962588  0  0  0.130922  0  0.961849  0  0  0.117456  0.12756  0  0.963319  0
H  H23  1  0.32700794  0.56875821  0.22218608  1  0  0.114121  0  0.91547  0  0  0.129059  0  0.962499  0  0  0.131005  0  0.961745  0  0  0.117496  0.127634  0  0.963241  0
H  H24  1  0.29482487  0.44746653  0.89169027  1  0  0.1009  0  0.962335  0  0  0.108538  0  1.024347  0  0  0.111947  0  1.020216  0  0  0.123136  0.105896  0  1.027467  0
H  H25  1  0.70515960  0.05253647  0.39168612  1  0  0.100922  0  0.962393  0  0  0.108555  0  1.02437  0  0  0.111968  0  1.020246  0  0  0.123122  0.10596  0  1.027435  0
H  H26  1  0.70520943  0.55253397  0.10830816  1  0  0.101004  0  0.962216  0  0  0.108562  0  1.024354  0  0  0.112037  0  1.020127  0  0  0.12311  0.105894  0  1.027502  0
H  H27  1  0.29480737  0.94746346  0.60831231  1  0  0.100897  0  0.962345  0  0  0.108532  0  1.024362  0  0  0.11194  0  1.020226  0  0  0.123136  0.105891  0  1.027479  0
C  C28  1  0.28929029  0.28959424  0.96355690  1  0  -0.150262  0  3.614313  0  0  -0.168906  0  3.857686  0  0  -0.177628  0  3.874712  0  0  -0.06307  -0.163661  0  3.846865  0
C  C29  1  0.71069227  0.21040945  0.46355650  1  0  -0.150213  0  3.614244  0  0  -0.168951  0  3.857583  0  0  -0.177667  0  3.874603  0  0  -0.063105  -0.163708  0  3.846777  0
C  C30  1  0.71072262  0.71040824  0.03644079  1  0  -0.150053  0  3.614238  0  0  -0.168626  0  3.857568  0  0  -0.177352  0  3.874621  0  0  -0.062989  -0.16338  0  3.846739  0
C  C31  1  0.28929608  0.78958850  0.53644342  1  0  -0.150163  0  3.613966  0  0  -0.168845  0  3.857321  0  0  -0.177566  0  3.87435  0  0  -0.063033  -0.163602  0  3.846505  0
C  C32  1  0.25549478  0.17710206  0.94599483  1  0  0.240347  0  3.706531  0  0  0.232661  0  3.950631  0  0  0.243635  0  3.967355  0  0  0.144949  0.225254  0  3.939405  0
C  C33  1  0.74449075  0.32290348  0.44599377  1  0  0.240392  0  3.706436  0  0  0.232921  0  3.950303  0  0  0.243881  0  3.967016  0  0  0.14501  0.225509  0  3.939082  0
C  C34  1  0.74450216  0.82289903  0.05400434  1  0  0.240332  0  3.706532  0  0  0.232669  0  3.950668  0  0  0.243618  0  3.967385  0  0  0.145006  0.225261  0  3.939445  0
C  C35  1  0.25550930  0.67709757  0.55400690  1  0  0.240417  0  3.706489  0  0  0.232837  0  3.95045  0  0  0.243799  0  3.967166  0  0  0.144994  0.225426  0  3.939231  0
C  C36  1  0.29165987  0.12717079  0.12667978  1  0  -0.133551  0  3.69594  0  0  -0.156084  0  3.955471  0  0  -0.160043  0  3.971248  0  0  -0.075606  -0.153803  0  3.945918  0
C  C37  1  0.70830486  0.37283388  0.62667802  1  0  -0.133525  0  3.69602  0  0  -0.155992  0  3.955614  0  0  -0.159965  0  3.971381  0  0  -0.075526  -0.153742  0  3.946048  0
C  C38  1  0.70832407  0.87283461  0.87331865  1  0  -0.13327  0  3.695925  0  0  -0.155724  0  3.95546  0  0  -0.159716  0  3.971225  0  0  -0.075481  -0.153443  0  3.945906  0
C  C39  1  0.29170393  0.62716457  0.37332340  1  0  -0.133456  0  3.696059  0  0  -0.155971  0  3.955644  0  0  -0.159946  0  3.971416  0  0  -0.075488  -0.15372  0  3.946079  0
C  C40  1  0.26702680  0.91272573  0.06938494  1  0  0.118864  0  3.684634  0  0  0.085268  0  3.94522  0  0  0.090036  0  3.963363  0  0  0.040182  0.08209  0  3.933011  0
C  C41  1  0.73298361  0.58727793  0.56938617  1  0  0.118806  0  3.684696  0  0  0.085202  0  3.945279  0  0  0.089972  0  3.963421  0  0  0.040127  0.082027  0  3.933074  0
C  C42  1  0.73297190  0.08727615  0.93061573  1  0  0.118835  0  3.684794  0  0  0.085185  0  3.945408  0  0  0.089952  0  3.963546  0  0  0.040129  0.082008  0  3.933198  0
C  C43  1  0.26702207  0.41272056  0.43061600  1  0  0.118798  0  3.68473  0  0  0.085187  0  3.945332  0  0  0.089955  0  3.963471  0  0  0.04011  0.082011  0  3.933124  0
C  C44  1  0.29949304  0.93817968  0.16994818  1  0  -0.084287  0  3.705984  0  0  -0.104144  0  3.970775  0  0  -0.108023  0  3.988372  0  0  -0.076756  -0.101801  0  3.959558  0
C  C45  1  0.70050579  0.56182822  0.66994854  1  0  -0.084409  0  3.706127  0  0  -0.104268  0  3.970922  0  0  -0.108137  0  3.988508  0  0  -0.076794  -0.101928  0  3.95971  0
C  C46  1  0.70049908  0.06182723  0.83005250  1  0  -0.084356  0  3.706066  0  0  -0.104247  0  3.9709  0  0  -0.108106  0  3.988491  0  0  -0.076762  -0.101904  0  3.959683  0
C  C47  1  0.29949989  0.43817028  0.33005288  1  0  -0.084362  0  3.706098  0  0  -0.10426  0  3.97093  0  0  -0.108121  0  3.988524  0  0  -0.076744  -0.101917  0  3.959714  0
C  C48  1  0.30969526  0.04731705  0.19919423  1  0  -0.017345  0  3.735472  0  0  -0.033538  0  3.99583  0  0  -0.029621  0  4.008524  0  0  -0.069883  -0.036575  0  3.988487  0
C  C49  1  0.69027718  0.45268899  0.69919124  1  0  -0.017191  0  3.735614  0  0  -0.033379  0  3.995898  0  0  -0.029463  0  4.0086  0  0  -0.069823  -0.036417  0  3.988564  0
C  C50  1  0.69028400  0.95268843  0.80080570  1  0  -0.017466  0  3.735699  0  0  -0.033667  0  3.996026  0  0  -0.029753  0  4.008726  0  0  -0.069883  -0.036705  0  3.988684  0
C  C51  1  0.30973473  0.54730940  0.30080944  1  0  -0.017337  0  3.735552  0  0  -0.033566  0  3.99589  0  0  -0.029649  0  4.008588  0  0  -0.069885  -0.036606  0  3.988558  0
C  C52  1  0.26574351  0.09536917  0.02648326  1  0  0.16115  0  3.75176  0  0  0.157085  0  3.994061  0  0  0.161339  0  4.013882  0  0  0.11788  0.154179  0  3.980912  0
C  C53  1  0.73424183  0.40463605  0.52648390  1  0  0.161157  0  3.75175  0  0  0.156882  0  3.994209  0  0  0.161202  0  4.013936  0  0  0.117879  0.153974  0  3.981073  0
C  C54  1  0.73424936  0.90463445  0.97351517  1  0  0.16117  0  3.75169  0  0  0.156972  0  3.994179  0  0  0.16129  0  4.013917  0  0  0.117923  0.154066  0  3.981031  0
C  C55  1  0.26575958  0.59536415  0.47351827  1  0  0.160981  0  3.75186  0  0  0.156818  0  3.994249  0  0  0.161138  0  4.013978  0  0  0.117829  0.15391  0  3.981114  0
C  C56  1  0.20581236  0.21197929  0.77892834  1  0  0.215528  0  3.703416  0  0  0.204551  0  3.961274  0  0  0.214171  0  3.977081  0  0  0.240119  0.197883  0  3.950772  0
C  C57  1  0.79417627  0.28802085  0.27892997  1  0  0.215389  0  3.703567  0  0  0.204418  0  3.961452  0  0  0.214042  0  3.97726  0  0  0.240031  0.197749  0  3.950952  0
C  C58  1  0.79418438  0.78802099  0.22107233  1  0  0.215616  0  3.703205  0  0  0.204651  0  3.961067  0  0  0.214266  0  3.976871  0  0  0.240152  0.197983  0  3.950567  0
C  C59  1  0.20582494  0.71197854  0.72107220  1  0  0.215542  0  3.703304  0  0  0.204553  0  3.961143  0  0  0.214178  0  3.976951  0  0  0.240117  0.197885  0  3.950644  0
C  C60  1  0.27235621  0.35903494  0.88323358  1  0  0.1898  0  3.615684  0  0  0.156302  0  3.863167  0  0  0.167106  0  3.876369  0  0  0.06916  0.149084  0  3.854548  0
C  C61  1  0.72762500  0.14096538  0.38323284  1  0  0.189595  0  3.615737  0  0  0.156165  0  3.863188  0  0  0.166962  0  3.876392  0  0  0.069148  0.148915  0  3.854545  0
C  C62  1  0.72766564  0.64096576  0.11676262  1  0  0.18952  0  3.615691  0  0  0.155988  0  3.863308  0  0  0.166753  0  3.87647  0  0  0.069053  0.14879  0  3.854701  0
C  C63  1  0.27234799  0.85903363  0.61676708  1  0  0.18974  0  3.615585  0  0  0.15624  0  3.86306  0  0  0.167047  0  3.876259  0  0  0.069123  0.149021  0  3.854442  0
S  S64  1  0.18063841  0.15394473  0.65342524  1  0  1.213081  0  5.770073  0  0  1.116086  0  6.303007  0  0  1.16508  0  6.276745  0  0  0.494237  1.08224  0  6.319536  0
S  S65  1  0.81935095  0.34605138  0.15342753  1  0  1.212919  0  5.770581  0  0  1.115981  0  6.303464  0  0  1.164968  0  6.277218  0  0  0.494098  1.082131  0  6.319987  0
S  S66  1  0.81935577  0.84605149  0.34657544  1  0  1.212975  0  5.77055  0  0  1.115968  0  6.303493  0  0  1.164964  0  6.277237  0  0  0.4942  1.082118  0  6.320026  0
S  S67  1  0.18065628  0.65394709  0.84657389  1  0  1.212943  0  5.770657  0  0  1.115972  0  6.30355  0  0  1.164965  0  6.277303  0  0  0.49418  1.082121  0  6.320081  0
N  N68  1  0.21543708  0.13974715  0.85247130  1  0  -0.376655  0  3.242576  0  0  -0.317759  0  3.505953  0  0  -0.335686  0  3.52205  0  0  -0.311535  -0.305671  0  3.495329  0
N  N69  1  0.78455432  0.36025284  0.35247165  1  0  -0.376617  0  3.242415  0  0  -0.317771  0  3.505738  0  0  -0.335714  0  3.521851  0  0  -0.311528  -0.305684  0  3.495121  0
N  N70  1  0.78455479  0.86025238  0.14752863  1  0  -0.376713  0  3.242393  0  0  -0.317853  0  3.505829  0  0  -0.335775  0  3.521928  0  0  -0.311576  -0.305766  0  3.495206  0
N  N71  1  0.21545000  0.63974650  0.64752753  1  0  -0.376713  0  3.242327  0  0  -0.317834  0  3.505693  0  0  -0.335783  0  3.521807  0  0  -0.311576  -0.305748  0  3.49508  0
N  N72  1  0.25124736  0.98937361  0.99926289  1  0  -0.314428  0  3.261354  0  0  -0.247434  0  3.536884  0  0  -0.262676  0  3.553923  0  0  -0.328113  -0.236796  0  3.525293  0
N  N73  1  0.74875505  0.51063002  0.49926381  1  0  -0.314436  0  3.261463  0  0  -0.247363  0  3.537012  0  0  -0.262628  0  3.554038  0  0  -0.328108  -0.236718  0  3.525395  0
N  N74  1  0.74874978  0.01062830  0.00073629  1  0  -0.314489  0  3.26152  0  0  -0.247425  0  3.537077  0  0  -0.26269  0  3.5541  0  0  -0.328119  -0.23677  0  3.525434  0
N  N75  1  0.25124576  0.48936774  0.50073687  1  0  -0.314373  0  3.261455  0  0  -0.247345  0  3.537011  0  0  -0.262609  0  3.554036  0  0  -0.328096  -0.236694  0  3.525378  0
N  N76  1  0.22845763  0.32097582  0.78989754  1  0  -0.335275  0  3.261441  0  0  -0.25968  0  3.535485  0  0  -0.278567  0  3.550117  0  0  -0.328562  -0.246909  0  3.525576  0
N  N77  1  0.77152872  0.17902225  0.28989742  1  0  -0.335089  0  3.261481  0  0  -0.259569  0  3.53554  0  0  -0.278456  0  3.550173  0  0  -0.32853  -0.2468  0  3.525645  0
N  N78  1  0.77155644  0.67902500  0.21010015  1  0  -0.335231  0  3.261404  0  0  -0.259586  0  3.535428  0  0  -0.278476  0  3.550081  0  0  -0.328536  -0.246815  0  3.525511  0
N  N79  1  0.22845788  0.82097492  0.71010250  1  0  -0.335266  0  3.26151  0  0  -0.259642  0  3.535512  0  0  -0.278526  0  3.550141  0  0  -0.328553  -0.246872  0  3.525605  0
O  O80  1  0.39474615  0.12403228  0.63604876  1  0  -0.650694  0  1.934894  0  0  -0.606256  0  2.178676  0  0  -0.628815  0  2.165329  0  0  -0.341764  -0.589741  0  2.186963  0
O  O81  1  0.60525334  0.37598196  0.13605043  1  0  -0.650687  0  1.935024  0  0  -0.606249  0  2.178797  0  0  -0.628813  0  2.165454  0  0  -0.341716  -0.589727  0  2.187074  0
O  O82  1  0.60525039  0.87596718  0.36395341  1  0  -0.650679  0  1.934921  0  0  -0.606231  0  2.178705  0  0  -0.628794  0  2.165366  0  0  -0.34175  -0.589721  0  2.186998  0
O  O83  1  0.39476057  0.62402460  0.86394950  1  0  -0.650646  0  1.935071  0  0  -0.606217  0  2.178889  0  0  -0.628777  0  2.165538  0  0  -0.341712  -0.589697  0  2.187171  0
O  O84  1  0.11971890  0.24169930  0.58919571  1  0  -0.655123  0  2.058621  0  0  -0.607291  0  2.330625  0  0  -0.628664  0  2.316301  0  0  -0.343784  -0.591869  0  2.339738  0
O  O85  1  0.88024902  0.25829263  0.08919953  1  0  -0.655042  0  2.058704  0  0  -0.607277  0  2.330734  0  0  -0.628654  0  2.316421  0  0  -0.343733  -0.591861  0  2.339871  0
O  O86  1  0.88027177  0.75829533  0.41080272  1  0  -0.655079  0  2.058802  0  0  -0.607266  0  2.330832  0  0  -0.628636  0  2.3165  0  0  -0.343736  -0.591843  0  2.339944  0
O  O87  1  0.11975605  0.74170342  0.91080338  1  0  -0.655069  0  2.058688  0  0  -0.607312  0  2.330773  0  0  -0.628665  0  2.316405  0  0  -0.343773  -0.591893  0  2.339896  0
O  O88  1  0.02212931  0.06060883  0.66119296  1  0  -0.63647  0  1.962305  0  0  -0.591929  0  2.208088  0  0  -0.613609  0  2.194899  0  0  -0.340788  -0.576172  0  2.21636  0
O  O89  1  0.97788512  0.43937729  0.16119622  1  0  -0.63637  0  1.962545  0  0  -0.591854  0  2.208326  0  0  -0.613533  0  2.195136  0  0  -0.340756  -0.576092  0  2.216595  0
O  O90  1  0.97786642  0.93938737  0.33881070  1  0  -0.636423  0  1.962502  0  0  -0.591862  0  2.20827  0  0  -0.613542  0  2.195085  0  0  -0.340816  -0.576106  0  2.216549  0
O  O91  1  0.02213452  0.56061442  0.83880744  1  0  -0.636389  0  1.962505  0  0  -0.59184  0  2.208277  0  0  -0.613521  0  2.195086  0  0  -0.340779  -0.57608  0  2.216549  0
