# generated using pymatgen
data_Zn2H11C18N3O7
_symmetry_space_group_name_H-M   'P 1'
_cell_length_a   11.13496871
_cell_length_b   11.13415230
_cell_length_c   19.88631775
_cell_angle_alpha   97.59131790
_cell_angle_beta   100.64803863
_cell_angle_gamma   115.70674881
_symmetry_Int_Tables_number   1
_chemical_formula_structural   Zn2H11C18N3O7
_chemical_formula_sum   'Zn8 H44 C72 N12 O28'
_cell_volume   2119.55883795
_cell_formula_units_Z   4
loop_
 _symmetry_equiv_pos_site_id
 _symmetry_equiv_pos_as_xyz
  1  'x, y, z'
loop_
 _atom_site_type_symbol
 _atom_site_label
 _atom_site_symmetry_multiplicity
 _atom_site_fract_x
 _atom_site_fract_y
 _atom_site_fract_z
 _atom_site_occupancy
 _atom_site_pbe_bader_charge
 _atom_site_pbe_bader_spin_density
 _atom_site_pbe_cm5_charge
 _atom_site_pbe_ddec_charge
 _atom_site_pbe_ddec_spin_density
 _atom_site_pbe_ddec_sum_bond_order
 _atom_site_pbe_magmom
Zn  Zn0  1  0.69613663  0.94619023  0.75004015  1  1.384327  0  0.660595  1.007791  0  2.297337  0
Zn  Zn1  1  0.30386218  0.05381053  0.24996041  1  1.384363  0  0.66061  1.00779  0  2.297276  0
Zn  Zn2  1  0.44314840  0.88272524  0.62464285  1  1.285537  0  0.700701  0.887708  0  2.367954  0
Zn  Zn3  1  0.75815619  0.81855669  0.87542001  1  1.288637  0  0.700371  0.888545  0  2.365138  0
Zn  Zn4  1  0.55685311  0.11727661  0.37535733  1  1.285555  0  0.700699  0.887668  0  2.36796  0
Zn  Zn5  1  0.24184271  0.18144325  0.12458065  1  1.288641  0  0.700345  0.888507  0  2.36518  0
Zn  Zn6  1  0.43140018  0.68125979  0.74999058  1  1.298082  0  0.67125  0.979744  0  2.285187  0
Zn  Zn7  1  0.56859882  0.31873934  0.25001017  1  1.298093  0  0.671262  0.979748  0  2.285114  0
H  H8  1  0.43776593  0.89980669  0.75671500  1  0.648357  0  0.287405  0.391782  0  0.932685  0
H  H9  1  0.64341405  0.68112084  0.74335250  1  0.646552  0  0.288043  0.392392  0  0.931755  0
H  H10  1  0.56223417  0.10019284  0.24328377  1  0.648334  0  0.287397  0.391761  0  0.932709  0
H  H11  1  0.35658756  0.31888165  0.25664882  1  0.646482  0  0.288032  0.392378  0  0.931768  0
H  H12  1  0.88001258  0.80898338  0.62192445  1  0.111827  0  0.120111  0.142022  0  0.97536  0
H  H13  1  0.68664924  0.25781499  0.87812431  1  0.140749  0  0.120284  0.142364  0  0.975081  0
H  H14  1  0.11998882  0.19101615  0.37807664  1  0.111845  0  0.120097  0.142026  0  0.97534  0
H  H15  1  0.31335236  0.74218605  0.12187597  1  0.140773  0  0.120255  0.14237  0  0.975102  0
H  H16  1  0.50147209  0.63324301  0.45537861  1  0.123898  0  0.111687  0.119769  0  1.024432  0
H  H17  1  0.67769287  0.04603764  0.04476670  1  0.129274  0  0.111429  0.119421  0  1.02513  0
H  H18  1  0.49852942  0.36675884  0.54462157  1  0.123898  0  0.111686  0.11975  0  1.024477  0
H  H19  1  0.32230674  0.95396431  0.95523364  1  0.129246  0  0.111416  0.1194  0  1.025194  0
H  H20  1  0.85351713  0.60062704  0.41553948  1  0.134279  0  0.110313  0.12372  0  1.034864  0
H  H21  1  0.68542967  0.43819603  0.08457522  1  0.135768  0  0.110283  0.123423  0  1.034513  0
H  H22  1  0.14648307  0.39937313  0.58446042  1  0.134266  0  0.110298  0.123672  0  1.034901  0
H  H23  1  0.31456902  0.56180264  0.91542317  1  0.135762  0  0.1103  0.123432  0  1.034423  0
H  H24  1  0.09961559  0.53831769  0.69586905  1  0.119917  0  0.108408  0.117039  0  1.020324  0
H  H25  1  0.34279162  0.40366535  0.80415079  1  0.136054  0  0.107818  0.116645  0  1.018981  0
H  H26  1  0.90038250  0.46167962  0.30413078  1  0.119907  0  0.108398  0.117015  0  1.020329  0
H  H27  1  0.65720489  0.59633419  0.19584952  1  0.136041  0  0.10783  0.116649  0  1.018955  0
H  H28  1  0.94426202  0.32651356  0.72815016  1  0.09821  0  0.108555  0.116122  0  0.99808  0
H  H29  1  0.09866556  0.21621867  0.77182270  1  0.098886  0  0.109205  0.116648  0  0.998282  0
H  H30  1  0.05573448  0.67348597  0.27185015  1  0.098248  0  0.108567  0.116136  0  0.998015  0
H  H31  1  0.90133403  0.78377868  0.22817760  1  0.098869  0  0.109192  0.116649  0  0.998224  0
H  H32  1  0.61637480  0.24347051  0.54731432  1  0.128067  0  0.103631  0.10907  0  1.038191  0
H  H33  1  0.19601156  0.06890824  0.95269839  1  0.106952  0  0.104676  0.110372  0  1.03715  0
H  H34  1  0.38362532  0.75653194  0.45268652  1  0.128199  0  0.10365  0.109102  0  1.038106  0
H  H35  1  0.80399033  0.93109034  0.04730217  1  0.106935  0  0.104665  0.110375  0  1.03718  0
H  H36  1  0.76600419  0.45109122  0.51433872  1  0.101998  0  0.101641  0.10803  0  1.039187  0
H  H37  1  0.43660641  0.25156234  0.98579080  1  0.104535  0  0.101615  0.10765  0  1.039919  0
H  H38  1  0.23399511  0.54890859  0.48566130  1  0.102004  0  0.10165  0.108055  0  1.039161  0
H  H39  1  0.56339619  0.74843823  0.01420944  1  0.104545  0  0.101596  0.107654  0  1.039953  0
H  H40  1  0.12370242  0.00130471  0.53641672  1  0.082226  0  0.106818  0.155162  0  0.984029  0
H  H41  1  0.96472664  0.58684056  0.96354787  1  0.068793  0  0.107039  0.155217  0  0.984238  0
H  H42  1  0.87629977  0.99869454  0.46358311  1  0.082165  0  0.106801  0.15514  0  0.984081  0
H  H43  1  0.03527527  0.41316116  0.03645168  1  0.068785  0  0.107026  0.155216  0  0.984237  0
H  H44  1  0.11672782  0.89885503  0.45761635  1  0.077733  0  0.110177  0.163499  0  0.972779  0
H  H45  1  0.94120057  0.65874928  0.04238272  1  0.070962  0  0.110278  0.163584  0  0.97343  0
H  H46  1  0.88327388  0.10114519  0.54238401  1  0.077726  0  0.110167  0.163488  0  0.972807  0
H  H47  1  0.05880034  0.34125289  0.95761686  1  0.070936  0  0.110275  0.163575  0  0.973564  0
H  H48  1  0.27744483  0.00068126  0.52322391  1  0.121719  0  0.114987  0.174301  0  0.969988  0
H  H49  1  0.97746675  0.75385211  0.97678090  1  0.07141  0  0.114772  0.173491  0  0.971388  0
H  H50  1  0.72255745  0.99931717  0.47677602  1  0.121747  0  0.115011  0.174316  0  0.970001  0
H  H51  1  0.02253356  0.24615038  0.02321809  1  0.071264  0  0.114795  0.17351  0  0.971375  0
C  C52  1  0.04230685  0.63295377  0.58663196  1  0.917346  0  0.233627  0.231071  0  3.988068  0
C  C53  1  0.54633804  0.45553883  0.91338471  1  0.934607  0  0.233775  0.231509  0  3.985081  0
C  C54  1  0.95769354  0.36704476  0.41336812  1  0.917353  0  0.233636  0.23109  0  3.988109  0
C  C55  1  0.45366257  0.54446266  0.08661560  1  0.934621  0  0.233818  0.23159  0  3.985085  0
C  C56  1  0.14200638  0.82149232  0.54913558  1  0.979623  0  0.246021  0.359855  0  3.937589  0
C  C57  1  0.77233533  0.59268105  0.95087519  1  1.01694  0  0.243618  0.357741  0  3.935348  0
C  C58  1  0.85799351  0.17850571  0.45086400  1  0.979621  0  0.245964  0.359829  0  3.937633  0
C  C59  1  0.22766527  0.40731899  0.04912408  1  1.01695  0  0.243631  0.357799  0  3.935287  0
C  C60  1  0.88180586  0.70879931  0.52096554  1  0.196028  0  0.084443  0.155796  0  4.047427  0
C  C61  1  0.68772813  0.36070783  0.97910016  1  0.236918  0  0.085314  0.156214  0  4.048663  0
C  C62  1  0.11819354  0.29119967  0.47903457  1  0.195766  0  0.08446  0.155859  0  4.047406  0
C  C63  1  0.31227138  0.63929348  0.02089905  1  0.23707  0  0.085276  0.156252  0  4.048742  0
C  C64  1  0.82327501  0.75637624  0.56706207  1  -0.001738  0  -0.069952  -0.15892  0  3.909495  0
C  C65  1  0.68900382  0.25598184  0.93300007  1  -0.027327  0  -0.070224  -0.158786  0  3.91472  0
C  C66  1  0.17672588  0.24362279  0.43293852  1  -0.001472  0  -0.069963  -0.158991  0  3.90956  0
C  C67  1  0.31099977  0.74401828  0.06700014  1  -0.027314  0  -0.070208  -0.158911  0  3.914808  0
C  C68  1  0.68663322  0.73260353  0.54281888  1  -0.010841  0  -0.008413  -0.010901  0  3.959942  0
C  C69  1  0.68950399  0.14361917  0.95727238  1  0.019029  0  -0.009731  -0.015807  0  3.966234  0
C  C70  1  0.31336799  0.26739764  0.45718203  1  -0.010859  0  -0.008412  -0.010888  0  3.959964  0
C  C71  1  0.31049430  0.85637964  0.04272664  1  0.019031  0  -0.009709  -0.015738  0  3.966175  0
C  C72  1  0.60976378  0.65826420  0.47376381  1  0.007344  0  -0.064328  -0.09657  0  3.895101  0
C  C73  1  0.68439258  0.13595541  0.02636899  1  -0.034456  0  -0.061958  -0.091744  0  3.893066  0
C  C74  1  0.39023742  0.34173697  0.52623710  1  0.007333  0  -0.064323  -0.096526  0  3.895075  0
C  C75  1  0.31560513  0.86404517  0.97363047  1  -0.03416  0  -0.061939  -0.091743  0  3.892982  0
C  C76  1  0.67013665  0.61239715  0.42769359  1  0.028688  0  -0.009622  -0.006994  0  3.944836  0
C  C77  1  0.68480212  0.24253542  0.07243994  1  0.013998  0  -0.010997  -0.010076  0  3.949296  0
C  C78  1  0.32986306  0.38760398  0.57230685  1  0.028661  0  -0.009615  -0.006988  0  3.944766  0
C  C79  1  0.31519648  0.75746407  0.92755836  1  0.013439  0  -0.010996  -0.009984  0  3.949159  0
C  C80  1  0.80826559  0.64007769  0.45103636  1  -0.007709  0  -0.074557  -0.166262  0  3.925705  0
C  C81  1  0.68921187  0.35732525  0.04907589  1  -0.040013  0  -0.073653  -0.164984  0  3.926164  0
C  C82  1  0.19173551  0.35992284  0.54896341  1  -0.007692  0  -0.074539  -0.166228  0  3.925723  0
C  C83  1  0.31078534  0.64267483  0.95092307  1  -0.039742  0  -0.073665  -0.165039  0  3.92609  0
C  C84  1  0.62697867  0.78851651  0.59260784  1  1.601265  0  0.217045  0.589983  0  4.187488  0
C  C85  1  0.69560662  0.03414228  0.90746388  1  1.587681  0  0.219163  0.592057  0  4.184711  0
C  C86  1  0.37302193  0.21148498  0.40739247  1  1.601281  0  0.21704  0.589917  0  4.187324  0
C  C87  1  0.30439088  0.96585680  0.09253640  1  1.587401  0  0.219144  0.591995  0  4.184812  0
C  C88  1  0.58396665  0.52007503  0.35570763  1  1.550425  0  0.20283  0.570491  0  4.220117  0
C  C89  1  0.66436858  0.22837726  0.14441709  1  1.582402  0  0.204009  0.574353  0  4.220475  0
C  C90  1  0.41603165  0.47992523  0.64429243  1  1.55045  0  0.202845  0.570505  0  4.220087  0
C  C91  1  0.33562772  0.77162246  0.85558200  1  1.581914  0  0.203966  0.5743  0  4.220586  0
C  C92  1  0.94361803  0.51057135  0.60343788  1  -0.028768  0  -0.007517  0.015169  0  4.023155  0
C  C93  1  0.40718617  0.34005318  0.89662765  1  -0.019759  0  -0.007423  0.014963  0  4.021701  0
C  C94  1  0.05638127  0.48942845  0.39656215  1  -0.028755  0  -0.007544  0.015165  0  4.023161  0
C  C95  1  0.59281494  0.65994735  0.10337212  1  -0.019777  0  -0.00742  0.014964  0  4.021692  0
C  C96  1  0.99331355  0.47375705  0.66372191  1  -0.030072  0  -0.080957  -0.106214  0  3.941568  0
C  C97  1  0.31024945  0.32949188  0.83629560  1  0.012938  0  -0.080187  -0.105348  0  3.942124  0
C  C98  1  0.00668666  0.52624312  0.33627799  1  -0.030066  0  -0.080962  -0.106224  0  3.941581  0
C  C99  1  0.68974995  0.67050711  0.16370452  1  0.012925  0  -0.080199  -0.10539  0  3.942041  0
C  C100  1  0.90725300  0.35607424  0.68171826  1  0.003462  0  -0.078104  -0.086087  0  3.959181  0
C  C101  1  0.17457411  0.22547490  0.81824355  1  -0.077563  0  -0.078347  -0.086021  0  3.962426  0
C  C102  1  0.09274770  0.64392497  0.31828110  1  0.003454  0  -0.078106  -0.08605  0  3.959132  0
C  C103  1  0.82542539  0.77452327  0.18175666  1  -0.078139  0  -0.078316  -0.085957  0  3.96221  0
C  C104  1  0.77049985  0.27295250  0.64010901  1  -0.004781  0  -0.015706  -0.030494  0  3.963853  0
C  C105  1  0.13296119  0.13030732  0.85986041  1  -0.05831  0  -0.015815  -0.032814  0  3.964338  0
C  C106  1  0.22950045  0.72704685  0.35989099  1  -0.014355  0  -0.015717  -0.030563  0  3.96396  0
C  C107  1  0.86703940  0.86969103  0.14014090  1  -0.057611  0  -0.015799  -0.032797  0  3.964282  0
C  C108  1  0.72164630  0.30911183  0.58021464  1  -0.048243  0  -0.083014  -0.085737  0  3.963487  0
C  C109  1  0.22886289  0.14129017  0.91980642  1  -0.005407  0  -0.083868  -0.08562  0  3.961065  0
C  C110  1  0.27835359  0.69088620  0.41978494  1  -0.048433  0  -0.083033  -0.08575  0  3.963419  0
C  C111  1  0.77113941  0.85870972  0.08019454  1  -0.005513  0  -0.083868  -0.085625  0  3.961061  0
C  C112  1  0.80679007  0.42714445  0.56182487  1  -0.052831  0  -0.088191  -0.115566  0  3.960207  0
C  C113  1  0.36527549  0.24484130  0.93825811  1  -0.062358  0  -0.087821  -0.115224  0  3.958412  0
C  C114  1  0.19320963  0.57285668  0.43817557  1  -0.05284  0  -0.088171  -0.115558  0  3.960224  0
C  C115  1  0.63472670  0.75515796  0.06174172  1  -0.062334  0  -0.0878  -0.115239  0  3.958486  0
C  C116  1  0.67946786  0.14519675  0.65944868  1  1.542881  0  0.217594  0.592532  0  4.177767  0
C  C117  1  0.98579648  0.02014111  0.84053532  1  1.586463  0  0.219655  0.597874  0  4.175113  0
C  C118  1  0.32053503  0.85480283  0.34055288  1  1.552482  0  0.217519  0.592413  0  4.177895  0
C  C119  1  0.01420302  0.97985851  0.15946593  1  1.586558  0  0.219613  0.597811  0  4.175231  0
C  C120  1  0.16589146  0.93686245  0.51466028  1  -0.069861  0  -0.219929  -0.468162  0  3.932721  0
C  C121  1  0.92213245  0.65085124  0.98533401  1  -0.030598  0  -0.219545  -0.467399  0  3.933525  0
C  C122  1  0.83411083  0.06313599  0.48533965  1  -0.06986  0  -0.219917  -0.468142  0  3.93285  0
C  C123  1  0.07786795  0.34915043  0.01466507  1  -0.030435  0  -0.219543  -0.467394  0  3.933649  0
N  N124  1  0.01570790  0.71894812  0.54853793  1  -1.220315  0  -0.207183  -0.11805  0  3.669258  0
N  N125  1  0.67036865  0.46701710  0.95147997  1  -1.201756  0  -0.20805  -0.117985  0  3.671213  0
N  N126  1  0.98429279  0.28105109  0.45146143  1  -1.220331  0  -0.207141  -0.118042  0  3.669249  0
N  N127  1  0.32963135  0.53298326  0.04851870  1  -1.201901  0  -0.208036  -0.117991  0  3.671165  0
N  N128  1  0.17758983  0.68048113  0.60882773  1  -0.661213  0  -0.217403  -0.230269  0  3.215156  0
N  N129  1  0.57170559  0.56866467  0.89118685  1  -0.677107  0  -0.217686  -0.230746  0  3.212845  0
N  N130  1  0.82241015  0.31951608  0.39117194  1  -0.661161  0  -0.21739  -0.230279  0  3.215171  0
N  N131  1  0.42829352  0.43133677  0.10881299  1  -0.676985  0  -0.217701  -0.230745  0  3.212952  0
N  N132  1  0.23847807  0.79772760  0.58586539  1  -0.798146  0  -0.249022  -0.261441  0  3.550985  0
N  N133  1  0.71190580  0.65249625  0.91414941  1  -0.812954  0  -0.246834  -0.25936  0  3.545732  0
N  N134  1  0.76152181  0.20227043  0.41413419  1  -0.798166  0  -0.24901  -0.261431  0  3.551063  0
N  N135  1  0.28809440  0.34750392  0.08585049  1  -0.813036  0  -0.246848  -0.259454  0  3.545774  0
O  O136  1  0.70707758  0.85985226  0.65256496  1  -1.188048  0  -0.304713  -0.547538  0  2.352282  0
O  O137  1  0.70735075  0.05454232  0.84757507  1  -1.178191  0  -0.306388  -0.548235  0  2.350472  0
O  O138  1  0.29292533  0.14015046  0.34743560  1  -1.188025  0  -0.304726  -0.547506  0  2.352259  0
O  O139  1  0.29264884  0.94545503  0.15242523  1  -1.178116  0  -0.306406  -0.548226  0  2.3505  0
O  O140  1  0.50061888  0.76335983  0.56981414  1  -1.175837  0  -0.316823  -0.544122  0  2.316775  0
O  O141  1  0.69306029  0.93043666  0.93018742  1  -1.169928  0  -0.317639  -0.544351  0  2.314893  0
O  O142  1  0.49938231  0.23663988  0.43018572  1  -1.175843  0  -0.316829  -0.544117  0  2.316762  0
O  O143  1  0.30693581  0.06956155  0.06981248  1  -1.169724  0  -0.317623  -0.544314  0  2.314907  0
O  O144  1  0.65611182  0.49445869  0.31703817  1  -1.173605  0  -0.336811  -0.57986  0  2.346235  0
O  O145  1  0.67758386  0.33926308  0.18308492  1  -1.170608  0  -0.338066  -0.581956  0  2.346742  0
O  O146  1  0.34388758  0.50554175  0.68296298  1  -1.173651  0  -0.336816  -0.579897  0  2.346224  0
O  O147  1  0.32241625  0.66073791  0.81691488  1  -1.170577  0  -0.338035  -0.581937  0  2.346769  0
O  O148  1  0.45518224  0.47159695  0.33941344  1  -1.129199  0  -0.316739  -0.531209  0  2.099469  0
O  O149  1  0.63190435  0.11582207  0.16068276  1  -1.159013  0  -0.315811  -0.531747  0  2.100541  0
O  O150  1  0.54481576  0.52840263  0.66058734  1  -1.129185  0  -0.316735  -0.531188  0  2.099494  0
O  O151  1  0.36808706  0.88417766  0.83931555  1  -1.158597  0  -0.315788  -0.531712  0  2.100543  0
O  O152  1  0.72672466  0.12304706  0.71643915  1  -1.173084  0  -0.305377  -0.539063  0  2.342306  0
O  O153  1  0.90664710  0.01068353  0.78362502  1  -1.172056  0  -0.306749  -0.541635  0  2.342315  0
O  O154  1  0.27327425  0.87695434  0.28356255  1  -1.17303  0  -0.305364  -0.53906  0  2.34218  0
O  O155  1  0.09335241  0.98931609  0.21637623  1  -1.172022  0  -0.306778  -0.54165  0  2.342322  0
O  O156  1  0.55935773  0.06735514  0.61534852  1  -1.170584  0  -0.331663  -0.561467  0  2.318741  0
O  O157  1  0.95200409  0.94406388  0.88462164  1  -1.174348  0  -0.333313  -0.565257  0  2.318767  0
O  O158  1  0.44064296  0.93264408  0.38465084  1  -1.17062  0  -0.331605  -0.56133  0  2.318758  0
O  O159  1  0.04799590  0.05593479  0.11537907  1  -1.174483  0  -0.333292  -0.565226  0  2.318856  0
O  O160  1  0.47253029  0.86030085  0.72213566  1  -1.25722  0  -0.566957  -0.872567  0  2.327685  0
O  O161  1  0.63833391  0.75036655  0.77790559  1  -1.258953  0  -0.566103  -0.872534  0  2.327586  0
O  O162  1  0.52747091  0.13969886  0.27786421  1  -1.257209  0  -0.566953  -0.87253  0  2.327699  0
O  O163  1  0.36166450  0.24963435  0.22209560  1  -1.258903  0  -0.566093  -0.87251  0  2.327595  0
