# generated using pymatgen
data_ZnH13C22O5
_symmetry_space_group_name_H-M   'P 1'
_cell_length_a   11.63732980
_cell_length_b   13.20868845
_cell_length_c   15.82005871
_cell_angle_alpha   90.11076069
_cell_angle_beta   90.06076633
_cell_angle_gamma   78.17190888
_symmetry_Int_Tables_number   1
_chemical_formula_structural   ZnH13C22O5
_chemical_formula_sum   'Zn4 H52 C88 O20'
_cell_volume   2380.12376906
_cell_formula_units_Z   4
loop_
 _symmetry_equiv_pos_site_id
 _symmetry_equiv_pos_as_xyz
  1  'x, y, z'
loop_
 _atom_site_type_symbol
 _atom_site_label
 _atom_site_symmetry_multiplicity
 _atom_site_fract_x
 _atom_site_fract_y
 _atom_site_fract_z
 _atom_site_occupancy
 _atom_site_pbe_bader_charge
 _atom_site_pbe_bader_spin_density
 _atom_site_pbe_cm5_charge
 _atom_site_pbe_ddec_charge
 _atom_site_pbe_ddec_spin_density
 _atom_site_pbe_ddec_sum_bond_order
 _atom_site_pbe_magmom
Zn  Zn0  1  0.92260849  0.17988548  0.49774768  1  1.320914  0  0.666916  0.920873  0  2.301085  0
Zn  Zn1  1  0.07834729  0.31699742  0.49850822  1  1.319235  0  0.665933  0.920498  0  2.303635  0
Zn  Zn2  1  0.91929092  0.68123094  0.50281478  1  1.317134  0  0.665657  0.920574  0  2.29659  0
Zn  Zn3  1  0.07881109  0.81470617  0.50150637  1  1.314781  0  0.664522  0.914955  0  2.298289  0
H  H4  1  0.74920440  0.08983825  0.46857022  1  0.619996  0  0.341954  0.414915  0  0.844302  0
H  H5  1  0.73866198  0.27937077  0.73438909  1  0.110587  0  0.102569  0.103868  0  1.023038  0
H  H6  1  0.65172192  0.36831083  0.86530534  1  0.077993  0  0.094815  0.097678  0  1.048499  0
H  H7  1  0.76783588  0.43908520  0.99897919  1  0.101734  0  0.105164  0.114274  0  0.99317  0
H  H8  1  0.86705222  0.00333932  0.46827499  1  0.653054  0  0.299893  0.397101  0  0.940133  0
H  H9  1  0.72105872  0.28972257  0.27107494  1  0.091542  0  0.100777  0.100765  0  1.01949  0
H  H10  1  0.63714987  0.37664703  0.13851718  1  0.066083  0  0.095072  0.097698  0  1.053409  0
H  H11  1  0.27855363  0.21021101  0.72743566  1  0.062056  0  0.104062  0.105258  0  1.017391  0
H  H12  1  0.36597051  0.12101352  0.85808090  1  0.093468  0  0.095336  0.098925  0  1.052374  0
H  H13  1  0.23433717  0.06044430  0.99814564  1  0.069238  0  0.105502  0.114412  0  0.99177  0
H  H14  1  0.27465201  0.21072557  0.27069425  1  0.086865  0  0.099338  0.099793  0  1.022842  0
H  H15  1  0.35767874  0.12538603  0.13713759  1  0.063232  0  0.093665  0.096194  0  1.05333  0
H  H16  1  0.25186779  0.40583433  0.46902269  1  0.618116  0  0.34135  0.414883  0  0.844904  0
H  H17  1  0.13490154  0.49355224  0.46858355  1  0.661911  0  0.299303  0.398468  0  0.939811  0
H  H18  1  0.80923208  0.12908289  0.81029491  1  0.070082  0  0.101804  0.104816  0  1.008413  0
H  H19  1  0.89710122  0.04123634  0.67943425  1  0.106613  0  0.104677  0.114328  0  1.017468  0
H  H20  1  0.57679014  0.16670908  0.78506532  1  0.044561  0  0.105047  0.10928  0  1.005868  0
H  H21  1  0.19950508  0.36210693  0.80578132  1  0.052122  0  0.100692  0.102237  0  1.011442  0
H  H22  1  0.10753712  0.45146582  0.67709297  1  0.118584  0  0.104938  0.11557  0  1.01658  0
H  H23  1  0.43135868  0.33010745  0.78484344  1  0.093882  0  0.10481  0.108252  0  1.006777  0
H  H24  1  0.19937355  0.36525507  0.19494316  1  0.089664  0  0.103495  0.107689  0  1.003822  0
H  H25  1  0.10823149  0.45590114  0.32259922  1  0.132226  0  0.101826  0.10864  0  1.053057  0
H  H26  1  0.42935876  0.32997809  0.21556146  1  0.064653  0  0.102047  0.104271  0  1.011414  0
H  H27  1  0.81105853  0.12702651  0.19222528  1  0.062552  0  0.104269  0.108925  0  0.997327  0
H  H28  1  0.90205540  0.03621534  0.31991682  1  0.13404  0  0.103129  0.109505  0  1.0549  0
H  H29  1  0.57442006  0.16659732  0.21582675  1  0.0641  0  0.102487  0.10432  0  1.009057  0
H  H30  1  0.80740605  0.55005142  0.44051001  1  0.624301  0  0.320678  0.397025  0  0.896009  0
H  H31  1  0.72309682  0.78937752  0.72580148  1  0.058693  0  0.101938  0.103954  0  1.015437  0
H  H32  1  0.64011260  0.87430696  0.85989665  1  0.082796  0  0.093259  0.095327  0  1.054314  0
H  H33  1  0.76863765  0.93703147  0.00013842  1  0.078398  0  0.10551  0.114469  0  0.991611  0
H  H34  1  0.86586199  0.50410251  0.52704200  1  0.665636  0  0.298854  0.396405  0  0.941022  0
H  H35  1  0.72915892  0.78351723  0.26826914  1  0.061683  0  0.101796  0.10219  0  1.022801  0
H  H36  1  0.64205677  0.87304905  0.13765945  1  0.082278  0  0.095392  0.098529  0  1.050105  0
H  H37  1  0.26701117  0.71075758  0.73113262  1  0.092676  0  0.098763  0.097621  0  1.023572  0
H  H38  1  0.35218723  0.62486956  0.86372459  1  0.056584  0  0.093722  0.09613  0  1.051064  0
H  H39  1  0.23273336  0.55707247  0.99958750  1  0.095071  0  0.104852  0.113978  0  0.994394  0
H  H40  1  0.26507932  0.71623078  0.26475442  1  0.112473  0  0.103263  0.10454  0  1.021728  0
H  H41  1  0.35178645  0.62683033  0.13376833  1  0.077807  0  0.095561  0.097623  0  1.047914  0
H  H42  1  0.24544651  0.89683896  0.55083576  1  0.62325  0  0.336457  0.411405  0  0.851062  0
H  H43  1  0.13667276  0.98896962  0.53536218  1  0.661694  0  0.298129  0.394382  0  0.943439  0
H  H44  1  0.79967720  0.63207886  0.80309160  1  0.066073  0  0.10347  0.105847  0  1.005689  0
H  H45  1  0.89181326  0.54166606  0.67568627  1  0.131583  0  0.105877  0.116419  0  1.035714  0
H  H46  1  0.56973325  0.66511623  0.78288791  1  0.058452  0  0.105764  0.110092  0  1.003171  0
H  H47  1  0.18690963  0.87207534  0.80934027  1  0.050844  0  0.104555  0.109412  0  0.99825  0
H  H48  1  0.09610112  0.96236603  0.68139953  1  0.135647  0  0.102793  0.107776  0  1.0601  0
H  H49  1  0.42548115  0.82882997  0.78286076  1  0.088409  0  0.103365  0.106255  0  1.007695  0
H  H50  1  0.19492183  0.86772387  0.18991668  1  0.056962  0  0.101977  0.104093  0  1.00817  0
H  H51  1  0.10651045  0.95572111  0.32034047  1  0.109032  0  0.105276  0.116105  0  1.013185  0
H  H52  1  0.42664233  0.83135086  0.21371246  1  0.089725  0  0.104731  0.108935  0  1.006107  0
H  H53  1  0.80965223  0.62922477  0.18933430  1  0.079999  0  0.104279  0.108812  0  1.000707  0
H  H54  1  0.90345512  0.53728725  0.31611864  1  0.088063  0  0.103625  0.107429  0  1.032234  0
H  H55  1  0.57146294  0.66754298  0.21387888  1  0.055324  0  0.103416  0.107227  0  1.007401  0
C  C56  1  0.87501429  0.35012189  0.61943212  1  1.51175  0  0.222308  0.594846  0  4.148583  0
C  C57  1  0.81947710  0.40487518  0.69603797  1  -0.021642  0  -0.024199  -0.05524  0  3.983293  0
C  C58  1  0.75235751  0.35632505  0.75035502  1  -0.052139  0  -0.083103  -0.080221  0  3.975972  0
C  C59  1  0.70389159  0.40622591  0.82339323  1  -0.078835  0  -0.093139  -0.138874  0  3.975494  0
C  C60  1  0.87660568  0.35137326  0.37727943  1  1.551293  0  0.208525  0.580146  0  4.198035  0
C  C61  1  0.81681531  0.40801467  0.30228838  1  -0.083251  0  -0.024907  -0.044466  0  3.987365  0
C  C62  1  0.74089920  0.36361462  0.25223437  1  -0.1201  0  -0.085011  -0.083231  0  3.978903  0
C  C63  1  0.69394267  0.41250514  0.17838296  1  0.082144  0  -0.09178  -0.133059  0  3.971059  0
C  C64  1  0.12557193  0.14756698  0.62000293  1  1.536219  0  0.220701  0.588615  0  4.158752  0
C  C65  1  0.18247977  0.09209986  0.69586898  1  -0.057893  0  -0.027302  -0.057706  0  3.996526  0
C  C66  1  0.25836580  0.13646346  0.74624719  1  0.077037  0  -0.08134  -0.076802  0  3.971144  0
C  C67  1  0.30705024  0.08644145  0.81910218  1  -0.145077  0  -0.09241  -0.137414  0  3.969488  0
C  C68  1  0.12510470  0.14485021  0.37871500  1  1.547477  0  0.21539  0.601994  0  4.162962  0
C  C69  1  0.18456150  0.08920890  0.30331937  1  0.003334  0  -0.019648  -0.035057  0  3.969628  0
C  C70  1  0.25672475  0.13597379  0.25206758  1  -0.040285  0  -0.088247  -0.092942  0  3.988747  0
C  C71  1  0.30324139  0.08801093  0.17761238  1  -0.050237  0  -0.096307  -0.139549  0  3.985451  0
C  C72  1  0.71893750  0.00719693  0.84383519  1  -0.038672  0  -0.005689  0.077085  0  4.014068  0
C  C73  1  0.79052730  0.05444130  0.79196250  1  -0.062562  0  -0.091303  -0.140597  0  3.987346  0
C  C74  1  0.84014975  0.00539194  0.71895811  1  -0.070323  0  -0.083525  -0.081653  0  3.965842  0
C  C75  1  0.66933939  0.05762967  0.92311819  1  -0.025092  0  -0.002846  0.03251  0  3.986593  0
C  C76  1  0.70554665  0.01060174  0.00036587  1  -0.017582  0  -0.086782  -0.175508  0  3.976961  0
C  C77  1  0.58779926  0.15329548  0.92201398  1  -0.064834  0  -0.008007  0.022015  0  4.003887  0
C  C78  1  0.54478171  0.20058947  0.00044235  1  -0.035999  0  -0.00016  0.000682  0  3.930693  0
C  C79  1  0.54414089  0.20296268  0.84469514  1  0.01899  0  -0.089714  -0.13005  0  4.015431  0
C  C80  1  0.28249553  0.48750311  0.84349941  1  -0.02911  0  -0.005486  0.076522  0  4.005078  0
C  C81  1  0.21432128  0.43868730  0.78964947  1  -0.108384  0  -0.090577  -0.136939  0  3.979201  0
C  C82  1  0.16253184  0.48854211  0.71756399  1  0.019822  0  -0.082299  -0.081405  0  3.961956  0
C  C83  1  0.33345668  0.43718380  0.92251399  1  -0.045338  0  -0.000994  0.035274  0  3.978686  0
C  C84  1  0.29695153  0.48417456  0.99984880  1  0.00371  0  -0.087048  -0.177212  0  3.979761  0
C  C85  1  0.41635308  0.34220369  0.92167336  1  0.014236  0  -0.00775  0.02282  0  3.99909  0
C  C86  1  0.45889079  0.29509262  0.00027264  1  -0.024318  0  0.001131  0.001047  0  3.929327  0
C  C87  1  0.46224781  0.29328649  0.84456315  1  -0.08722  0  -0.088305  -0.125626  0  4.01492  0
C  C88  1  0.28298551  0.48946287  0.15597846  1  -0.032572  0  0.000186  0.087743  0  3.990947  0
C  C89  1  0.21515999  0.44171068  0.21059163  1  -0.02842  0  -0.089696  -0.134362  0  3.972753  0
C  C90  1  0.16425112  0.49253502  0.28265008  1  -0.111207  0  -0.088921  -0.097863  0  3.981486  0
C  C91  1  0.33352457  0.43781126  0.07735388  1  -0.035143  0  -0.003467  0.0285  0  3.982231  0
C  C92  1  0.41573409  0.34241106  0.07870676  1  0.027407  0  -0.009476  0.020467  0  4.005079  0
C  C93  1  0.46084274  0.29324200  0.15587570  1  -0.078282  0  -0.090429  -0.129587  0  4.021929  0
C  C94  1  0.71960645  0.00644065  0.15655492  1  -0.12683  0  0.000876  0.087837  0  3.994303  0
C  C95  1  0.79192769  0.05219373  0.20927772  1  0.009313  0  -0.088809  -0.133285  0  3.969563  0
C  C96  1  0.84277682  0.00131193  0.28128307  1  -0.105071  0  -0.087917  -0.097334  0  3.978497  0
C  C97  1  0.66937669  0.05772493  0.07775044  1  0.009155  0  -0.004374  0.027456  0  3.985229  0
C  C98  1  0.58756973  0.15329188  0.07891579  1  -0.026752  0  -0.008343  0.021571  0  4.005171  0
C  C99  1  0.54283831  0.20291359  0.15604504  1  -0.038129  0  -0.09028  -0.127647  0  4.017463  0
C  C100  1  0.87615074  0.85373472  0.62010336  1  1.576392  0  0.213544  0.59199  0  4.181137  0
C  C101  1  0.81640343  0.90940920  0.69528458  1  0.013358  0  -0.019726  -0.033462  0  3.971164  0
C  C102  1  0.74236728  0.86331204  0.74542570  1  -0.030674  0  -0.085394  -0.089557  0  3.98188  0
C  C103  1  0.69612511  0.91091991  0.82009285  1  -0.055493  0  -0.096611  -0.14083  0  3.986764  0
C  C104  1  0.87631195  0.84817611  0.37873635  1  1.539425  0  0.219661  0.591073  0  4.155307  0
C  C105  1  0.82014532  0.90403891  0.30277474  1  -0.00407  0  -0.027034  -0.058734  0  3.996605  0
C  C106  1  0.74704258  0.85854986  0.25076491  1  -0.086543  0  -0.08298  -0.079196  0  3.977834  0
C  C107  1  0.69858432  0.90874062  0.17794386  1  0.068553  0  -0.091941  -0.135056  0  3.969204  0
C  C108  1  0.12202554  0.64257597  0.62100522  1  1.562313  0  0.215844  0.598931  0  4.171053  0
C  C109  1  0.18156868  0.58683639  0.69625683  1  -0.03619  0  -0.01941  -0.034982  0  3.969743  0
C  C110  1  0.25167669  0.63481644  0.74853325  1  -0.046568  0  -0.087697  -0.089421  0  3.986641  0
C  C111  1  0.29926644  0.58658221  0.82250250  1  -0.023532  0  -0.096266  -0.140443  0  3.985214  0
C  C112  1  0.12626435  0.64740877  0.37885221  1  1.556904  0  0.218916  0.588687  0  4.158454  0
C  C113  1  0.18228288  0.59185575  0.30251582  1  -0.006291  0  -0.028435  -0.057929  0  3.993119  0
C  C114  1  0.25058931  0.63959876  0.24850851  1  -0.089528  0  -0.081368  -0.07749  0  3.971291  0
C  C115  1  0.29899036  0.58938300  0.17557085  1  -0.057823  0  -0.091802  -0.134658  0  3.968882  0
C  C116  1  0.71843872  0.50667765  0.84262404  1  -0.029186  0  0.000155  0.084492  0  3.99535  0
C  C117  1  0.78530635  0.55506222  0.78778758  1  -0.087586  0  -0.088017  -0.134515  0  3.967855  0
C  C118  1  0.83658177  0.50447167  0.71577717  1  0.018803  0  -0.080264  -0.074255  0  3.942367  0
C  C119  1  0.66743173  0.55835690  0.92114786  1  -0.037522  0  -0.002815  0.031557  0  3.977983  0
C  C120  1  0.70391982  0.51216891  0.99876012  1  -0.028011  0  -0.087045  -0.176986  0  3.977451  0
C  C121  1  0.58497209  0.65364326  0.91985467  1  0.077207  0  -0.007602  0.021732  0  3.998021  0
C  C122  1  0.54225046  0.70136958  0.99833465  1  -0.046558  0  0.001207  0.001858  0  3.929868  0
C  C123  1  0.53920675  0.70227515  0.84263887  1  -0.089279  0  -0.08698  -0.124154  0  4.006757  0
C  C124  1  0.28319095  0.99030778  0.84212537  1  -0.021671  0  0.001118  0.088804  0  3.996376  0
C  C125  1  0.20825128  0.94561060  0.79095390  1  -0.056114  0  -0.088227  -0.132614  0  3.973117  0
C  C126  1  0.15743928  0.99622632  0.71888616  1  -0.035215  0  -0.088304  -0.101166  0  3.985807  0
C  C127  1  0.33314810  0.93915717  0.92104495  1  0.02813  0  -0.003752  0.028544  0  3.985193  0
C  C128  1  0.29711138  0.98667421  0.99829184  1  -0.065346  0  -0.087189  -0.176498  0  3.976219  0
C  C129  1  0.41395088  0.84310239  0.91982627  1  -0.011829  0  -0.008469  0.021369  0  4.007144  0
C  C130  1  0.45658954  0.79602519  0.99834614  1  0.000948  0  2.5e-05  0.000646  0  3.931462  0
C  C131  1  0.45759826  0.79284892  0.84264466  1  -0.060479  0  -0.088798  -0.128003  0  4.015188  0
C  C132  1  0.28272365  0.99059529  0.15487841  1  -0.016898  0  -0.00548  0.076823  0  4.009818  0
C  C133  1  0.21241279  0.94299317  0.20760591  1  -0.039579  0  -0.090082  -0.137007  0  3.981744  0
C  C134  1  0.16242031  0.99230619  0.28045565  1  -0.074097  0  -0.082116  -0.081121  0  3.959371  0
C  C135  1  0.33271926  0.93974420  0.07573274  1  -0.036415  0  -0.002703  0.033277  0  3.981197  0
C  C136  1  0.41400196  0.84381525  0.07680977  1  -0.020381  0  -0.008556  0.019724  0  4.001122  0
C  C137  1  0.45838798  0.79452823  0.15409561  1  -0.111732  0  -0.08773  -0.124942  0  4.012501  0
C  C138  1  0.71693177  0.50886927  0.15526086  1  -0.055374  0  -0.001958  0.081921  0  3.99913  0
C  C139  1  0.79011772  0.55476762  0.20705969  1  -0.074375  0  -0.087858  -0.129392  0  3.97241  0
C  C140  1  0.84162813  0.50378408  0.27882572  1  0.002608  0  -0.089535  -0.105479  0  3.990644  0
C  C141  1  0.66714628  0.55931297  0.07598113  1  -0.063635  0  -0.004068  0.029518  0  3.98653  0
C  C142  1  0.58493288  0.65455176  0.07695792  1  0.039746  0  -0.008609  0.020737  0  4.008278  0
C  C143  1  0.54000610  0.70400164  0.15413668  1  -0.02077  0  -0.090894  -0.131339  0  4.018502  0
O  O144  1  0.86223829  0.25823352  0.60528928  1  -1.15381  0  -0.30496  -0.528904  0  2.304885  0
O  O145  1  0.82419337  0.06877290  0.49722243  1  -1.216169  0  -0.549727  -0.700477  0  2.095584  0
O  O146  1  0.93529102  0.39852504  0.57144602  1  -1.179294  0  -0.312112  -0.578842  0  2.387587  0
O  O147  1  0.82723683  0.28642121  0.41488308  1  -1.165363  0  -0.325924  -0.563367  0  2.281353  0
O  O148  1  0.97496974  0.37338040  0.39740861  1  -1.168499  0  -0.315462  -0.562966  0  2.384846  0
O  O149  1  0.13810868  0.23954163  0.60662184  1  -1.155368  0  -0.303779  -0.525742  0  2.305868  0
O  O150  1  0.06494209  0.09911626  0.57225897  1  -1.170185  0  -0.310529  -0.572166  0  2.383044  0
O  O151  1  0.17370223  0.21046014  0.41665027  1  -1.16617  0  -0.327004  -0.569623  0  2.277809  0
O  O152  1  0.02645211  0.12317938  0.39823399  1  -1.168482  0  -0.314562  -0.55713  0  2.366693  0
O  O153  1  0.17700909  0.42784664  0.49760713  1  -1.224603  0  -0.550486  -0.702537  0  2.096562  0
O  O154  1  0.82568048  0.79031338  0.58110935  1  -1.161975  0  -0.321575  -0.550652  0  2.282163  0
O  O155  1  0.82303107  0.56932501  0.49822951  1  -1.237605  0  -0.558146  -0.699911  0  2.086419  0
O  O156  1  0.97641750  0.87292205  0.60184661  1  -1.173836  0  -0.314485  -0.559497  0  2.376383  0
O  O157  1  0.86368354  0.75617052  0.39189419  1  -1.160753  0  -0.30588  -0.531989  0  2.301906  0
O  O158  1  0.93660861  0.89636119  0.42708709  1  -1.185522  0  -0.31022  -0.574229  0  2.384027  0
O  O159  1  0.17248170  0.70619199  0.58237342  1  -1.166345  0  -0.327209  -0.570209  0  2.282719  0
O  O160  1  0.02208185  0.62301002  0.60209099  1  -1.166355  0  -0.311805  -0.549076  0  2.360853  0
O  O161  1  0.13897800  0.73944196  0.39212105  1  -1.15232  0  -0.303825  -0.522  0  2.296464  0
O  O162  1  0.06619352  0.59938316  0.42714186  1  -1.201008  0  -0.313928  -0.590851  0  2.397053  0
O  O163  1  0.18258224  0.92198553  0.51074461  1  -1.227023  0  -0.551021  -0.696732  0  2.075773  0
