# generated using pymatgen
data_ZnH4C13N(ClO2)2
_symmetry_space_group_name_H-M   'P 1'
_cell_length_a   11.11870504
_cell_length_b   14.83660598
_cell_length_c   16.04909128
_cell_angle_alpha   90.25173066
_cell_angle_beta   88.23575070
_cell_angle_gamma   89.96035326
_symmetry_Int_Tables_number   1
_chemical_formula_structural   ZnH4C13N(ClO2)2
_chemical_formula_sum   'Zn2 H8 C26 N2 Cl4 O8'
_cell_volume   2646.23835389
_cell_formula_units_Z   2
loop_
 _symmetry_equiv_pos_site_id
 _symmetry_equiv_pos_as_xyz
  1  'x, y, z'
loop_
 _atom_site_type_symbol
 _atom_site_label
 _atom_site_symmetry_multiplicity
 _atom_site_fract_x
 _atom_site_fract_y
 _atom_site_fract_z
 _atom_site_occupancy
 _atom_site_pbe_bader_charge
 _atom_site_pbe_bader_spin_density
 _atom_site_pbe_cm5_charge
 _atom_site_pbe_ddec_charge
 _atom_site_pbe_ddec_spin_density
 _atom_site_pbe_ddec_sum_bond_order
 _atom_site_pbe_magmom
Zn  Zn0  1  0.50005147  0.40974220  0.49971761  1  1.310466  0  0.689942  0.899481  0  2.427616  0
Zn  Zn1  1  0.50000211  0.59705358  0.50022364  1  1.320295  0  0.678513  0.886851  0  2.398064  0
H  H2  1  0.11344437  0.62120950  0.48335066  1  0.132926  0  0.110959  0.127989  0  0.98092  0
H  H3  1  0.88668457  0.62155485  0.51612518  1  0.139827  0  0.111258  0.128172  0  0.980965  0
H  H4  1  0.50672925  0.35184660  0.92131310  1  0.046075  0  0.109407  0.11246  0  0.984263  0
H  H5  1  0.47590202  0.35164532  0.07578645  1  0.093412  0  0.109619  0.112909  0  0.984267  0
H  H6  1  0.49367513  0.64179167  0.07858669  1  0.066592  0  0.109443  0.112621  0  0.984441  0
H  H7  1  0.52317591  0.64207993  0.92405452  1  0.089235  0  0.109169  0.11203  0  0.983841  0
H  H8  1  0.62026608  0.92020257  0.60390808  1  0.146282  0  0.133554  0.156681  0  0.952205  0
H  H9  1  0.37968546  0.91889782  0.39612235  1  0.149417  0  0.133851  0.157099  0  0.952985  0
C  C10  1  0.53616810  0.50229573  0.65859042  1  1.651112  0  0.216659  0.672062  0  4.233133  0
C  C11  1  0.49997988  0.81474887  0.50024835  1  0.859178  0  0.248755  0.293227  0  3.889735  0
C  C12  1  0.72956445  0.50312880  0.46982084  1  1.63117  0  0.209483  0.588078  0  4.194598  0
C  C13  1  0.27050047  0.50328815  0.53010829  1  1.629679  0  0.209472  0.589032  0  4.192557  0
C  C14  1  0.06470013  0.56057864  0.50327865  1  -0.026718  0  -0.090653  -0.105374  0  3.997709  0
C  C15  1  0.93538929  0.56062752  0.49630636  1  0.035472  0  -0.090456  -0.104846  0  3.997641  0
C  C16  1  0.13547358  0.49617529  0.53566421  1  0.029618  0  0.004721  0.0041  0  3.963772  0
C  C17  1  0.86459610  0.49583659  0.46421348  1  0.027865  0  0.00435  0.004312  0  3.964152  0
C  C18  1  0.48649542  0.41493308  0.04214726  1  -0.055892  0  -0.077733  -0.118822  0  3.959831  0
C  C19  1  0.50386433  0.41505229  0.95616618  1  0.054175  0  -0.077796  -0.118062  0  3.960002  0
C  C20  1  0.48279943  0.49672453  0.08749487  1  0.095683  0  0.004263  0.134022  0  4.1076  0
C  C21  1  0.46396629  0.50184437  0.34132517  1  1.649727  0  0.216733  0.672569  0  4.233031  0
C  C22  1  0.51698378  0.49698927  0.91238509  1  0.100922  0  0.004555  0.133754  0  4.109155  0
C  C23  1  0.49637631  0.57863780  0.04369190  1  0.01953  0  -0.077583  -0.118021  0  3.961581  0
C  C24  1  0.51304192  0.57878752  0.95774662  1  -0.072151  0  -0.078257  -0.118225  0  3.961918  0
C  C25  1  0.46907156  0.49726144  0.17549626  1  -0.479836  0  -0.034613  -0.057987  0  4.103794  0
C  C26  1  0.53086311  0.49780445  0.82440351  1  -0.47973  0  -0.034213  -0.057218  0  4.103323  0
C  C27  1  0.53882260  0.50028607  0.74851842  1  0.179168  0  -0.045963  -0.177937  0  3.959829  0
C  C28  1  0.46119067  0.49962060  0.25140539  1  0.179003  0  -0.04609  -0.178204  0  3.960695  0
C  C29  1  0.56799276  0.05063974  0.55843091  1  0.107988  0  0.042744  0.142981  0  4.045779  0
C  C30  1  0.43201840  0.04986940  0.44115056  1  0.18121  0  0.042457  0.143091  0  4.045386  0
C  C31  1  0.49998312  0.09799756  0.49970892  1  0.179295  0  0.011138  -0.057677  0  4.026762  0
C  C32  1  0.43183013  0.95609043  0.44111577  1  0.01537  0  -0.064817  -0.176218  0  3.897034  0
C  C33  1  0.56814392  0.95686370  0.55879747  1  0.041477  0  -0.064772  -0.175963  0  3.895887  0
C  C34  1  0.49998772  0.91065265  0.50004262  1  0.096317  0  0.030259  0.10507  0  4.08243  0
C  C35  1  0.50005762  0.19338911  0.49951636  1  0.849253  0  0.22985  0.295317  0  3.978056  0
N  N36  1  0.49993640  0.73656539  0.50040424  1  -1.136211  0  -0.249775  -0.250811  0  3.068071  0
N  N37  1  0.50010454  0.27154585  0.49945198  1  -1.067637  0  -0.248443  -0.244131  0  3.079573  0
Cl  Cl38  1  0.07873825  0.40121117  0.58352241  1  -0.185496  0  -0.025508  -0.067704  0  1.578292  0
Cl  Cl39  1  0.92133555  0.40021763  0.41668181  1  -0.188255  0  -0.025604  -0.068029  0  1.579333  0
Cl  Cl40  1  0.65008315  0.10923584  0.62881137  1  -0.117836  0  0.059385  -0.000955  0  1.439133  0
Cl  Cl41  1  0.34988002  0.10760912  0.37060506  1  -0.117139  0  0.05917  -0.001349  0  1.438482  0
O  O42  1  0.55624376  0.42821064  0.62025990  1  -1.139397  0  -0.318281  -0.547619  0  2.237429  0
O  O43  1  0.44376280  0.42793681  0.37927782  1  -1.136548  0  -0.31829  -0.5478  0  2.236609  0
O  O44  1  0.51143675  0.57828487  0.62611572  1  -1.137489  0  -0.319668  -0.551921  0  2.251137  0
O  O45  1  0.48887589  0.57787920  0.37420104  1  -1.136393  0  -0.31992  -0.55241  0  2.251041  0
O  O46  1  0.67116826  0.43107319  0.45685409  1  -1.156394  0  -0.320815  -0.545049  0  2.361514  0
O  O47  1  0.32883404  0.43118759  0.54270995  1  -1.154568  0  -0.320731  -0.545039  0  2.358658  0
O  O48  1  0.68525686  0.57983323  0.48923940  1  -1.159196  0  -0.319915  -0.548092  0  2.294224  0
O  O49  1  0.31483123  0.57985514  0.51102287  1  -1.160858  0  -0.319812  -0.548447  0  2.294068  0
