# generated using pymatgen
data_CdH20C22(NO)4
_symmetry_space_group_name_H-M   'P 1'
_cell_length_a   9.89239975
_cell_length_b   10.61929351
_cell_length_c   11.76696421
_cell_angle_alpha   110.78860838
_cell_angle_beta   98.96919307
_cell_angle_gamma   109.50773581
_symmetry_Int_Tables_number   1
_chemical_formula_structural   CdH20C22(NO)4
_chemical_formula_sum   'Cd2 H40 C44 N8 O8'
_cell_volume   1035.14346979
_cell_formula_units_Z   2
loop_
 _symmetry_equiv_pos_site_id
 _symmetry_equiv_pos_as_xyz
  1  'x, y, z'
loop_
 _atom_site_type_symbol
 _atom_site_label
 _atom_site_symmetry_multiplicity
 _atom_site_fract_x
 _atom_site_fract_y
 _atom_site_fract_z
 _atom_site_occupancy
 _atom_site_hle17_bader_spin_density
 _atom_site_hle17_ddec_charge
 _atom_site_hle17_ddec_spin_density
 _atom_site_hle17_ddec_sum_bond_order
 _atom_site_hle17_magmom
 _atom_site_hse06_10hf_bader_spin_density
 _atom_site_hse06_10hf_ddec_charge
 _atom_site_hse06_10hf_ddec_spin_density
 _atom_site_hse06_10hf_ddec_sum_bond_order
 _atom_site_hse06_10hf_magmom
 _atom_site_hse06_bader_spin_density
 _atom_site_hse06_ddec_charge
 _atom_site_hse06_ddec_spin_density
 _atom_site_hse06_ddec_sum_bond_order
 _atom_site_hse06_magmom
 _atom_site_pbe_bader_spin_density
 _atom_site_pbe_cm5_charge
 _atom_site_pbe_ddec_charge
 _atom_site_pbe_ddec_spin_density
 _atom_site_pbe_ddec_sum_bond_order
 _atom_site_pbe_magmom
Cd  Cd0  1  0.54298342  0.67239107  0.91859322  1  0  1.13182  0  1.6726  0  0  0.936395  0  2.117  0  0  0.992995  0  2.06563  0  0  0.781756  0.895123  0  2.153252  0
Cd  Cd1  1  0.45701519  0.32761035  0.08140624  1  0  1.131775  0  1.672586  0  0  0.936345  0  2.116979  0  0  0.992947  0  2.065609  0  0  0.781739  0.895076  0  2.153226  0
H  H2  1  0.18165813  0.47743078  0.15771108  1  0  0.125872  0  0.968054  0  0  0.142969  0  1.03057  0  0  0.144763  0  1.031415  0  0  0.088988  0.141694  0  1.030097  0
H  H3  1  0.81833902  0.52256731  0.84228457  1  0  0.125873  0  0.968083  0  0  0.142973  0  1.03059  0  0  0.144766  0  1.031437  0  0  0.08897  0.141697  0  1.030114  0
H  H4  1  0.28816622  0.67518264  0.23416314  1  0  0.136591  0  0.933683  0  0  0.157499  0  0.988263  0  0  0.160053  0  0.987909  0  0  0.096124  0.155619  0  0.988655  0
H  H5  1  0.71182790  0.32481544  0.76583723  1  0  0.136661  0  0.933704  0  0  0.157561  0  0.988272  0  0  0.160115  0  0.987915  0  0  0.096163  0.155683  0  0.988663  0
H  H6  1  0.12661016  0.59307010  0.10005003  1  0  0.130955  0  0.933096  0  0  0.153219  0  0.988468  0  0  0.155422  0  0.988148  0  0  0.096723  0.151626  0  0.98888  0
H  H7  1  0.87338748  0.40692909  0.89994773  1  0  0.131002  0  0.933074  0  0  0.153259  0  0.988443  0  0  0.155459  0  0.988127  0  0  0.096732  0.15166  0  0.988861  0
H  H8  1  0.74957073  0.06337564  0.80131127  1  0  0.128031  0  0.943688  0  0  0.150842  0  0.998736  0  0  0.152775  0  0.998837  0  0  0.09368  0.149524  0  0.99879  0
H  H9  1  0.25042998  0.93662355  0.19868688  1  0  0.128045  0  0.94368  0  0  0.150857  0  0.998716  0  0  0.152789  0  0.99882  0  0  0.093687  0.149537  0  0.998771  0
H  H10  1  0.58000655  0.07836563  0.82066768  1  0  0.143055  0  0.972151  0  0  0.158797  0  1.034974  0  0  0.162474  0  1.032253  0  0  0.091824  0.15593  0  1.037495  0
H  H11  1  0.41999464  0.92163467  0.17933089  1  0  0.143058  0  0.972143  0  0  0.158787  0  1.034983  0  0  0.162464  0  1.032261  0  0  0.091828  0.15592  0  1.037506  0
H  H12  1  0.58646055  0.96861336  0.66699213  1  0  0.126132  0  0.946661  0  0  0.144424  0  1.008446  0  0  0.146677  0  1.008361  0  0  0.091345  0.143037  0  1.008192  0
H  H13  1  0.41354018  0.03138583  0.33300773  1  0  0.126114  0  0.946617  0  0  0.144423  0  1.008386  0  0  0.146676  0  1.008299  0  0  0.091344  0.143038  0  1.008133  0
H  H14  1  0.65965124  0.04910143  0.10742775  1  0  0.116677  0  0.96721  0  0  0.122354  0  1.03384  0  0  0.126288  0  1.029477  0  0  0.135171  0.118717  0  1.038066  0
H  H15  1  0.34035147  0.95089998  0.89257392  1  0  0.116776  0  0.967059  0  0  0.122409  0  1.033732  0  0  0.126352  0  1.029368  0  0  0.135197  0.118772  0  1.037958  0
H  H16  1  0.11600872  0.10434949  0.19502083  1  0  0.12893  0  1.004745  0  0  0.133674  0  1.070814  0  0  0.137807  0  1.067963  0  0  0.118128  0.130131  0  1.073766  0
H  H17  1  0.88399452  0.89565081  0.80497970  1  0  0.128912  0  1.004779  0  0  0.133622  0  1.070893  0  0  0.137755  0  1.068042  0  0  0.118104  0.130076  0  1.073849  0
H  H18  1  0.92072986  0.80135816  0.06576325  1  0  0.105024  0  0.948836  0  0  0.116652  0  1.005478  0  0  0.119537  0  1.00362  0  0  0.116004  0.11441  0  1.006956  0
H  H19  1  0.07927235  0.19864213  0.93423545  1  0  0.105062  0  0.948847  0  0  0.11668  0  1.005499  0  0  0.119569  0  1.003636  0  0  0.116016  0.114437  0  1.006984  0
H  H20  1  0.76149517  0.28365925  0.12324171  1  0  0.120364  0  0.96917  0  0  0.128532  0  1.032744  0  0  0.131849  0  1.030835  0  0  0.108776  0.126056  0  1.034264  0
H  H21  1  0.23850559  0.71633994  0.87676325  1  0  0.120394  0  0.969202  0  0  0.128561  0  1.032785  0  0  0.131877  0  1.030879  0  0  0.10879  0.126081  0  1.034309  0
H  H22  1  0.84571840  0.55143793  0.24135096  1  0  0.088763  0  0.976963  0  0  0.097506  0  1.043383  0  0  0.099758  0  1.043001  0  0  0.098282  0.095932  0  1.043511  0
H  H23  1  0.15428083  0.44856014  0.75864920  1  0  0.088806  0  0.976918  0  0  0.097502  0  1.043385  0  0  0.099754  0  1.043004  0  0  0.098289  0.095927  0  1.043513  0
H  H24  1  0.24385270  0.57998888  0.48040188  1  0  0.088442  0  0.957257  0  0  0.099627  0  1.018739  0  0  0.102085  0  1.01822  0  0  0.101178  0.098057  0  1.01864  0
H  H25  1  0.75615047  0.42001363  0.51959766  1  0  0.088455  0  0.957161  0  0  0.09963  0  1.018652  0  0  0.102091  0  1.01813  0  0  0.10117  0.098059  0  1.018558  0
H  H26  1  0.15371466  0.31028387  0.36792426  1  0  0.097629  0  0.983854  0  0  0.106098  0  1.052112  0  0  0.108751  0  1.051023  0  0  0.101782  0.104438  0  1.052168  0
H  H27  1  0.84629151  0.68972087  0.63207722  1  0  0.097659  0  0.983859  0  0  0.106152  0  1.052083  0  0  0.108805  0  1.050995  0  0  0.101805  0.10449  0  1.052143  0
H  H28  1  0.24907595  0.78202135  0.61174821  1  0  0.097209  0  0.957415  0  0  0.107953  0  1.019359  0  0  0.110535  0  1.018717  0  0  0.103466  0.10607  0  1.019796  0
H  H29  1  0.75092881  0.21798005  0.38825457  1  0  0.097207  0  0.957468  0  0  0.107953  0  1.019421  0  0  0.110524  0  1.018805  0  0  0.103475  0.106078  0  1.019842  0
H  H30  1  0.36571058  0.05548215  0.70567350  1  0  0.106325  0  0.968822  0  0  0.115344  0  1.035021  0  0  0.117855  0  1.034148  0  0  0.108564  0.113424  0  1.035869  0
H  H31  1  0.63429055  0.94452038  0.29432663  1  0  0.106307  0  0.968807  0  0  0.115326  0  1.035019  0  0  0.117835  0  1.034148  0  0  0.108561  0.113408  0  1.035866  0
H  H32  1  0.09453937  0.03945912  0.37222335  1  0  0.096924  0  0.97579  0  0  0.104806  0  1.04442  0  0  0.107296  0  1.044276  0  0  0.102162  0.103428  0  1.043831  0
H  H33  1  0.90545938  0.96053785  0.62777553  1  0  0.096965  0  0.975792  0  0  0.104843  0  1.044419  0  0  0.107333  0  1.044276  0  0  0.102189  0.103463  0  1.043831  0
H  H34  1  0.98658035  0.76729537  0.27352069  1  0  0.09037  0  0.963797  0  0  0.10022  0  1.029365  0  0  0.102795  0  1.028336  0  0  0.101462  0.09842  0  1.030088  0
H  H35  1  0.01342046  0.23270160  0.72648100  1  0  0.090362  0  0.963805  0  0  0.100198  0  1.029389  0  0  0.102773  0  1.028361  0  0  0.101449  0.098397  0  1.03011  0
H  H36  1  0.33579711  0.28881669  0.79784049  1  0  0.108736  0  0.961854  0  0  0.11276  0  1.036199  0  0  0.115905  0  1.032175  0  0  0.136068  0.110569  0  1.038856  0
H  H37  1  0.66420306  0.71118361  0.20215795  1  0  0.108709  0  0.961845  0  0  0.11274  0  1.036186  0  0  0.115885  0  1.032166  0  0  0.136061  0.11055  0  1.038847  0
H  H38  1  0.48439594  0.54861765  0.60511708  1  0  0.10862  0  0.978555  0  0  0.117112  0  1.040628  0  0  0.119476  0  1.039973  0  0  0.116863  0.115392  0  1.040945  0
H  H39  1  0.51559863  0.45138155  0.39487945  1  0  0.108647  0  0.978568  0  0  0.11715  0  1.040612  0  0  0.119508  0  1.039983  0  0  0.116867  0.11543  0  1.040929  0
H  H40  1  0.33828877  0.24978261  0.42522131  1  0  0.124079  0  1.000151  0  0  0.129261  0  1.067531  0  0  0.133482  0  1.064288  0  0  0.118997  0.126262  0  1.069854  0
H  H41  1  0.66170636  0.75021547  0.57477663  1  0  0.124075  0  1.000114  0  0  0.129261  0  1.067498  0  0  0.133483  0  1.064252  0  0  0.119005  0.126266  0  1.069815  0
C  C42  1  0.31855997  0.56483760  0.05316932  1  0  0.745275  0  3.866979  0  0  0.702411  0  4.163348  0  0  0.736749  0  4.155969  0  0  0.200008  0.678882  0  4.167423  0
C  C43  1  0.68143911  0.43516493  0.94683055  1  0  0.745231  0  3.867006  0  0  0.70236  0  4.16339  0  0  0.736691  0  4.15602  0  0  0.199999  0.678831  0  4.167463  0
C  C44  1  0.22345368  0.57724521  0.14214131  1  0  -0.454303  0  3.676388  0  0  -0.528586  0  3.908867  0  0  -0.536495  0  3.912876  0  0  -0.251113  -0.523011  0  3.906127  0
C  C45  1  0.77654343  0.42275510  0.85785845  1  0  -0.454438  0  3.676541  0  0  -0.528706  0  3.909016  0  0  -0.536612  0  3.913023  0  0  -0.251136  -0.523131  0  3.906277  0
C  C46  1  0.58550391  0.86723603  0.79642860  1  0  0.720767  0  3.879266  0  0  0.681376  0  4.172454  0  0  0.714489  0  4.166745  0  0  0.189008  0.658801  0  4.17519  0
C  C47  1  0.41449626  0.13276427  0.20356984  1  0  0.720734  0  3.879293  0  0  0.681372  0  4.172447  0  0  0.714476  0  4.166744  0  0  0.189009  0.658792  0  4.175188  0
C  C48  1  0.62629472  0.00277923  0.77040105  1  0  -0.456211  0  3.663412  0  0  -0.529762  0  3.894874  0  0  -0.537112  0  3.896855  0  0  -0.254448  -0.524462  0  3.893574  0
C  C49  1  0.37370592  0.99722218  0.22959696  1  0  -0.45617  0  3.66332  0  0  -0.52974  0  3.894776  0  0  -0.537082  0  3.896757  0  0  -0.254435  -0.524435  0  3.893477  0
C  C50  1  0.75537495  0.01980309  0.11158176  1  0  0.170004  0  3.606634  0  0  0.11172  0  3.869065  0  0  0.125373  0  3.8813  0  0  0.142741  0.103243  0  3.860761  0
C  C51  1  0.24462728  0.98019721  0.88841949  1  0  0.169835  0  3.606477  0  0  0.111618  0  3.868871  0  0  0.125256  0  3.881118  0  0  0.142701  0.103145  0  3.860563  0
C  C52  1  0.99330120  0.04623704  0.16175221  1  0  -0.075873  0  3.65885  0  0  -0.113061  0  3.918203  0  0  -0.111978  0  3.935856  0  0  -0.005885  -0.113582  0  3.906657  0
C  C53  1  0.00669953  0.95376214  0.83824849  1  0  -0.0759  0  3.658752  0  0  -0.113041  0  3.918099  0  0  -0.111961  0  3.935753  0  0  -0.005868  -0.113554  0  3.906551  0
C  C54  1  0.89668058  0.89839172  0.09568743  1  0  0.001989  0  3.758795  0  0  -0.033145  0  4.028363  0  0  -0.031344  0  4.048607  0  0  -0.006198  -0.033768  0  4.014088  0
C  C55  1  0.10332007  0.10160969  0.90431228  1  0  0.001939  0  3.758853  0  0  -0.033195  0  4.028417  0  0  -0.031395  0  4.048661  0  0  -0.006223  -0.033821  0  4.014147  0
C  C56  1  0.95213678  0.27870498  0.23776770  1  0  0.175977  0  3.78845  0  0  0.167995  0  4.035515  0  0  0.173275  0  4.05793  0  0  0.09462  0.164157  0  4.021024  0
C  C57  1  0.04786641  0.72129754  0.76223609  1  0  0.175935  0  3.788393  0  0  0.167999  0  4.035412  0  0  0.173278  0  4.057829  0  0  0.0946  0.164156  0  4.020924  0
C  C58  1  0.86616067  0.34775414  0.20259416  1  0  -0.147148  0  3.737075  0  0  -0.168648  0  3.990096  0  0  -0.172285  0  4.010371  0  0  -0.090358  -0.1665  0  3.977002  0
C  C59  1  0.13384158  0.65224616  0.79740964  1  0  -0.147275  0  3.737047  0  0  -0.168782  0  3.990022  0  0  -0.172421  0  4.010302  0  0  -0.090426  -0.166625  0  3.976925  0
C  C60  1  0.91565272  0.50052725  0.26956490  1  0  -0.087934  0  3.728206  0  0  -0.105166  0  3.97362  0  0  -0.107445  0  3.995944  0  0  -0.086134  -0.103739  0  3.958428  0
C  C61  1  0.08434801  0.49947194  0.73043666  1  0  -0.087895  0  3.728127  0  0  -0.105078  0  3.973541  0  0  -0.107358  0  3.995868  0  0  -0.086096  -0.103646  0  3.958334  0
C  C62  1  0.05220055  0.58856247  0.37046889  1  0  0.038748  0  3.793407  0  0  0.052282  0  4.024111  0  0  0.051324  0  4.049153  0  0  -0.009803  0.053081  0  4.007132  0
C  C63  1  0.94780169  0.41143783  0.62953407  1  0  0.038749  0  3.793328  0  0  0.052254  0  4.02404  0  0  0.051298  0  4.049079  0  0  -0.009817  0.053047  0  4.007068  0
C  C64  1  0.13610458  0.51618285  0.40417693  1  0  -0.088805  0  3.743603  0  0  -0.107044  0  3.989688  0  0  -0.109193  0  4.011556  0  0  -0.083181  -0.105576  0  3.974634  0
C  C65  1  0.86389765  0.48381744  0.59582432  1  0  -0.088771  0  3.743399  0  0  -0.107002  0  3.989518  0  0  -0.109153  0  4.011385  0  0  -0.083155  -0.105535  0  3.974468  0
C  C66  1  0.08670979  0.36332503  0.33954782  1  0  -0.138618  0  3.745654  0  0  -0.158872  0  3.99764  0  0  -0.162204  0  4.018261  0  0  -0.091008  -0.156962  0  3.983759  0
C  C67  1  0.91329442  0.63667749  0.66045440  1  0  -0.138708  0  3.74573  0  0  -0.158987  0  3.997684  0  0  -0.162321  0  4.018312  0  0  -0.091019  -0.157071  0  3.983802  0
C  C68  1  0.11043009  0.75197808  0.43366901  1  0  0.04876  0  3.778682  0  0  0.065033  0  4.006999  0  0  0.065325  0  4.031033  0  0  -0.006592  0.064549  0  3.99112  0
C  C69  1  0.88957064  0.24802111  0.56633255  1  0  0.048797  0  3.778609  0  0  0.065126  0  4.006874  0  0  0.06542  0  4.030903  0  0  -0.006543  0.064643  0  3.990996  0
C  C70  1  0.21574460  0.83692797  0.55719810  1  0  -0.095667  0  3.733105  0  0  -0.115829  0  3.981105  0  0  -0.118066  0  4.002207  0  0  -0.087189  -0.113886  0  3.966429  0
C  C71  1  0.78425709  0.16307344  0.44280344  1  0  -0.095726  0  3.733114  0  0  -0.11593  0  3.981145  0  0  -0.11817  0  4.002245  0  0  -0.087253  -0.113989  0  3.966479  0
C  C72  1  0.28080577  0.99138921  0.61176526  1  0  -0.143544  0  3.753856  0  0  -0.164945  0  4.006556  0  0  -0.168008  0  4.027625  0  0  -0.091338  -0.16273  0  3.991647  0
C  C73  1  0.71919686  0.00861442  0.38823626  1  0  -0.143458  0  3.753698  0  0  -0.16486  0  4.006385  0  0  -0.167921  0  4.027452  0  0  -0.091293  -0.162649  0  3.991483  0
C  C74  1  0.23951917  0.06440805  0.54416395  1  0  0.170208  0  3.795335  0  0  0.16237  0  4.04114  0  0  0.166935  0  4.063831  0  0  0.089998  0.159799  0  4.025238  0
C  C75  1  0.76048156  0.93559114  0.45583675  1  0  0.170141  0  3.795262  0  0  0.16234  0  4.04102  0  0  0.166907  0  4.063711  0  0  0.08999  0.159778  0  4.02511  0
C  C76  1  0.13018012  0.98301850  0.42397858  1  0  -0.139117  0  3.77077  0  0  -0.159075  0  4.02537  0  0  -0.162359  0  4.047092  0  0  -0.090463  -0.157216  0  4.010535  0
C  C77  1  0.86982061  0.01698069  0.57602213  1  0  -0.139149  0  3.770811  0  0  -0.159116  0  4.025402  0  0  -0.162401  0  4.047124  0  0  -0.090473  -0.157258  0  4.010564  0
C  C78  1  0.06777082  0.82874322  0.36939694  1  0  -0.100105  0  3.740468  0  0  -0.11986  0  3.988343  0  0  -0.122527  0  4.009993  0  0  -0.08741  -0.118562  0  3.974358  0
C  C79  1  0.93222937  0.17125708  0.63060406  1  0  -0.1001  0  3.740472  0  0  -0.119854  0  3.988333  0  0  -0.122521  0  4.00998  0  0  -0.087407  -0.118555  0  3.974343  0
C  C80  1  0.35839171  0.31973977  0.72204365  1  0  0.173418  0  3.627749  0  0  0.111206  0  3.894241  0  0  0.125881  0  3.905838  0  0  0.145149  0.101619  0  3.886036  0
C  C81  1  0.64160743  0.68026053  0.27795466  1  0  0.173421  0  3.62772  0  0  0.111198  0  3.894231  0  0  0.125872  0  3.905829  0  0  0.145138  0.101608  0  3.886035  0
C  C82  1  0.43005577  0.44884750  0.61644351  1  0  0.005335  0  3.746633  0  0  -0.02787  0  4.007473  0  0  -0.025632  0  4.028066  0  0  -0.003389  -0.028572  0  3.992183  0
C  C83  1  0.56993983  0.55115170  0.38355485  1  0  0.005089  0  3.74679  0  0  -0.028122  0  4.00766  0  0  -0.025892  0  4.028252  0  0  -0.003492  -0.028825  0  3.992369  0
C  C84  1  0.35753856  0.30275160  0.52785169  1  0  -0.074931  0  3.654053  0  0  -0.111081  0  3.907704  0  0  -0.110179  0  3.924692  0  0  -0.003816  -0.11159  0  3.895787  0
C  C85  1  0.64245752  0.69724870  0.47214709  1  0  -0.074839  0  3.653981  0  0  -0.110992  0  3.907624  0  0  -0.110088  0  3.924616  0  0  -0.003798  -0.111502  0  3.895703  0
N  N86  1  0.74968655  0.88356830  0.06535223  1  0  -0.388662  0  3.265376  0  0  -0.31083  0  3.546619  0  0  -0.332696  0  3.565185  0  0  -0.358349  -0.295973  0  3.533324  0
N  N87  1  0.25031465  0.11643200  0.93464719  1  0  -0.388687  0  3.265363  0  0  -0.310859  0  3.546589  0  0  -0.332728  0  3.565163  0  0  -0.358335  -0.296  0  3.533288  0
N  N88  1  0.90221563  0.12240608  0.17150308  1  0  -0.089193  0  3.589036  0  0  0.00089  0  3.799724  0  0  -0.014052  0  3.825688  0  0  -0.224458  0.010561  0  3.782473  0
N  N89  1  0.09778913  0.87759533  0.82849970  1  0  -0.088942  0  3.588749  0  0  0.001087  0  3.799438  0  0  -0.013845  0  3.825387  0  0  -0.224432  0.010752  0  3.782193  0
N  N90  1  0.42968871  0.45772559  0.73632747  1  0  -0.387375  0  3.277912  0  0  -0.303999  0  3.55777  0  0  -0.326218  0  3.574606  0  0  -0.355925  -0.288899  0  3.545372  0
N  N91  1  0.57030941  0.54227471  0.26366986  1  0  -0.387258  0  3.277953  0  0  -0.303886  0  3.557807  0  0  -0.326104  0  3.574647  0  0  -0.355853  -0.288785  0  3.545411  0
N  N92  1  0.31274177  0.22188868  0.59628536  1  0  -0.085583  0  3.601454  0  0  0.005349  0  3.810431  0  0  -0.009076  0  3.835664  0  0  -0.223503  0.014848  0  3.793258  0
N  N93  1  0.68725541  0.77810940  0.40371369  1  0  -0.085522  0  3.60143  0  0  0.005406  0  3.810387  0  0  -0.009019  0  3.835621  0  0  -0.223486  0.014903  0  3.793215  0
O  O94  1  0.39228638  0.68385628  0.04429323  1  0  -0.662684  0  1.984946  0  0  -0.58977  0  2.234547  0  0  -0.61964  0  2.222783  0  0  -0.335692  -0.568445  0  2.242011  0
O  O95  1  0.60771421  0.31614735  0.95570889  1  0  -0.662632  0  1.98496  0  0  -0.589714  0  2.234565  0  0  -0.61958  0  2.222801  0  0  -0.335692  -0.568392  0  2.24203  0
O  O96  1  0.31942180  0.44002201  0.99107814  1  0  -0.695395  0  1.981766  0  0  -0.634411  0  2.238939  0  0  -0.66123  0  2.226181  0  0  -0.345709  -0.61515  0  2.247014  0
O  O97  1  0.68057373  0.55997941  0.00892007  1  0  -0.69536  0  1.981655  0  0  -0.634403  0  2.238898  0  0  -0.661219  0  2.226146  0  0  -0.345719  -0.615141  0  2.246969  0
O  O98  1  0.48468880  0.84132033  0.85152567  1  0  -0.66224  0  1.947931  0  0  -0.596906  0  2.18526  0  0  -0.626058  0  2.176155  0  0  -0.336097  -0.576049  0  2.191391  0
O  O99  1  0.51531138  0.15867997  0.14847362  1  0  -0.662232  0  1.947934  0  0  -0.596916  0  2.185237  0  0  -0.626055  0  2.176133  0  0  -0.336115  -0.576054  0  2.191368  0
O  O100  1  0.65512663  0.78503228  0.76469786  1  0  -0.677666  0  1.932738  0  0  -0.617818  0  2.159062  0  0  -0.644127  0  2.150001  0  0  -0.340809  -0.598733  0  2.165264  0
O  O101  1  0.34487306  0.21496691  0.23530016  1  0  -0.677643  0  1.932742  0  0  -0.617807  0  2.159041  0  0  -0.64412  0  2.149999  0  0  -0.340813  -0.598728  0  2.165251  0
