# generated using pymatgen
data_NiH42C32S4(NO)2
_symmetry_space_group_name_H-M   'P 1'
_cell_length_a   11.24016688
_cell_length_b   11.85252949
_cell_length_c   17.06360601
_cell_angle_alpha   107.25541630
_cell_angle_beta   109.21393722
_cell_angle_gamma   90.00545490
_symmetry_Int_Tables_number   1
_chemical_formula_structural   NiH42C32S4(NO)2
_chemical_formula_sum   'Ni2 H84 C64 S8 N4 O4'
_cell_volume   2037.97083377
_cell_formula_units_Z   2
loop_
 _symmetry_equiv_pos_site_id
 _symmetry_equiv_pos_as_xyz
  1  'x, y, z'
loop_
 _atom_site_type_symbol
 _atom_site_label
 _atom_site_symmetry_multiplicity
 _atom_site_fract_x
 _atom_site_fract_y
 _atom_site_fract_z
 _atom_site_occupancy
 _atom_site_pbe_bader_charge
 _atom_site_pbe_bader_spin_density
 _atom_site_pbe_cm5_charge
 _atom_site_pbe_ddec_charge
 _atom_site_pbe_ddec_spin_density
 _atom_site_pbe_ddec_sum_bond_order
 _atom_site_pbe_magmom
Ni  Ni0  1  0.94379784  0.50005094  0.99994831  1  0.802293  -1.284932  0.441694  0.325351  -1.586569  3.053678  -1.275
Ni  Ni1  1  0.99750208  0.00002514  0.00001030  1  0.810673  -1.293632  0.437502  0.326372  -1.595167  3.001792  -1.284
H  H2  1  0.74896754  0.13834445  0.78277467  1  0.085713  -0.002868  0.089187  0.042611  -0.002343  1.066054  0.0
H  H3  1  0.96624092  0.86170416  0.21720748  1  0.093898  -0.002839  0.089403  0.042875  -0.002331  1.066562  0.0
H  H4  1  0.43589515  0.24121374  0.59997856  1  0.002314  -0.000177  0.084811  0.07815  -7.8e-05  1.022159  0.0
H  H5  1  0.83623703  0.75868414  0.40013481  1  0.009796  -0.000172  0.084565  0.078001  -7.6e-05  1.022234  0.0
H  H6  1  0.59171182  0.31256249  0.64061674  1  0.06855  -0.000225  0.08865  0.090141  -0.000146  1.016786  0.0
H  H7  1  0.95142323  0.68743858  0.35945837  1  0.029967  -0.000255  0.088382  0.090014  -0.000162  1.017205  0.0
H  H8  1  0.47854198  0.10494240  0.48200993  1  0.02209  -8.9e-05  0.086504  0.082957  -4.3e-05  1.005549  0.0
H  H9  1  0.99670365  0.89510987  0.51801945  1  0.036449  -0.000113  0.086984  0.083807  -5.5e-05  1.005379  0.0
H  H10  1  0.63590829  0.17224171  0.52200041  1  0.01195  -1.2e-05  0.086291  0.081715  2.4e-05  1.010053  0.0
H  H11  1  0.11411408  0.82788806  0.47803162  1  0.014833  -1e-05  0.086118  0.081755  2.5e-05  1.010468  0.0
H  H12  1  0.60730376  0.94784992  0.52779060  1  0.026264  -4.4e-05  0.090448  0.068319  1.2e-05  0.970756  0.0
H  H13  1  0.07956051  0.05218900  0.47215003  1  0.010535  -4.5e-05  0.090849  0.068734  1.1e-05  0.970945  0.0
H  H14  1  0.80361134  0.12456333  0.62323978  1  0.037309  -0.00018  0.095024  0.104984  -7e-06  0.992747  0.0
H  H15  1  0.18046770  0.87544384  0.37670341  1  0.035535  -0.00018  0.094801  0.104243  -6e-06  0.992655  0.0
H  H16  1  0.79624217  0.00794130  0.66732526  1  0.031019  -0.002256  0.085658  0.094371  -0.001609  1.027297  0.0
H  H17  1  0.12900987  0.99207303  0.33260828  1  0.031258  -0.002268  0.085608  0.094262  -0.001608  1.026953  0.0
H  H18  1  0.41220338  0.21764591  0.73503357  1  0.020449  1.7e-05  0.086099  0.119022  4e-06  1.005406  0.0
H  H19  1  0.67741793  0.78220515  0.26510462  1  0.024499  1.8e-05  0.085998  0.118958  5e-06  1.004118  0.0
H  H20  1  0.55574861  0.31211364  0.79742169  1  0.015702  3.7e-05  0.085936  0.126645  8.8e-05  1.003847  0.0
H  H21  1  0.75856686  0.68775690  0.20267048  1  0.021449  3.3e-05  0.085998  0.127018  8.7e-05  1.00409  0.0
H  H22  1  0.53790465  0.17036721  0.80981850  1  0.020962  -4.7e-05  0.079721  0.106593  -0.0  1.045513  0.0
H  H23  1  0.72827595  0.82949169  0.19027377  1  -0.015424  -4.8e-05  0.079549  0.106254  0.0  1.046759  0.0
H  H24  1  0.53552907  0.85290172  0.64609440  1  0.022695  -1e-06  0.084253  0.114983  2e-06  1.019859  0.0
H  H25  1  0.88945437  0.14702725  0.35396209  1  0.031175  -2e-06  0.084218  0.11436  2e-06  1.019953  0.0
H  H26  1  0.51678576  0.96066107  0.73695277  1  0.02096  -1.8e-05  0.081168  0.111577  -0.0  1.013414  0.0
H  H27  1  0.77984863  0.03927588  0.26309337  1  -0.007592  -1.7e-05  0.080943  0.111171  -0.0  1.014041  0.0
H  H28  1  0.66759637  0.95199362  0.72501189  1  0.058055  -0.000368  0.082841  0.120086  -0.000149  1.048811  0.0
H  H29  1  0.94259589  0.04800842  0.27498185  1  0.034316  -0.000363  0.082197  0.119859  -0.000149  1.049485  0.0
H  H30  1  0.34887754  0.06030011  0.54334617  1  0.040307  -1.9e-05  0.088422  0.120125  7e-06  1.028745  0.0
H  H31  1  0.80559235  0.93947946  0.45665402  1  0.03844  -2e-05  0.088447  0.120071  7e-06  1.028676  0.0
H  H32  1  0.33218717  0.00827532  0.62689513  1  0.027433  -1.3e-05  0.085438  0.116241  -8e-06  1.002832  0.0
H  H33  1  0.70537134  0.99149515  0.37310926  1  0.027524  -1.1e-05  0.085491  0.116014  -7e-06  1.003423  0.0
H  H34  1  0.36687395  0.91019284  0.53835723  1  0.032759  -1.1e-05  0.085678  0.11411  3e-06  1.012761  0.0
H  H35  1  0.82848581  0.08961236  0.46166788  1  0.002369  -1.2e-05  0.085574  0.113729  3e-06  1.012685  0.0
H  H36  1  0.77073227  0.35104663  0.04053577  1  0.10595  -0.002379  0.108994  0.085348  -0.000887  1.022198  -0.001
H  H37  1  0.73052355  0.64945538  0.95951318  1  0.13712  -0.002372  0.10836  0.084345  -0.000886  1.022624  -0.001
H  H38  1  0.55057663  0.34240077  0.04028567  1  0.056753  -0.001276  0.104089  0.105508  -0.00066  1.024982  0.0
H  H39  1  0.51046225  0.65819658  0.95946501  1  0.092294  -0.001254  0.104061  0.105759  -0.000659  1.025705  0.0
H  H40  1  0.39854100  0.39138768  0.08563535  1  0.084223  -0.001199  0.107822  0.113048  -0.000604  1.003766  0.0
H  H41  1  0.31258379  0.60931815  0.91417893  1  0.055237  -0.001219  0.108227  0.114557  -0.000602  1.003222  0.0
H  H42  1  0.17499260  0.39014485  0.07766281  1  0.128068  -0.00267  0.099775  0.074227  -0.001379  1.076313  -0.001
H  H43  1  0.09703633  0.61011305  0.92224846  1  0.122489  -0.002661  0.099643  0.074151  -0.00138  1.077697  -0.001
H  H44  1  0.84736050  0.63494436  0.74224111  1  0.086075  -0.003008  0.092252  0.049569  -0.002515  1.0351  0.0
H  H45  1  0.10528915  0.36503614  0.25785896  1  0.08458  -0.003021  0.09232  0.049068  -0.002524  1.03489  0.0
H  H46  1  0.90939196  0.79952659  0.60643137  1  0.055839  -0.000145  0.089584  0.091485  -5.4e-05  1.014704  0.0
H  H47  1  0.30308076  0.20042408  0.39365484  1  0.071688  -0.000126  0.089457  0.09102  -4.3e-05  1.014414  0.0
H  H48  1  0.84976800  0.68858237  0.50354442  1  -0.034649  -0.000185  0.085557  0.081579  -8.2e-05  1.026206  0.0
H  H49  1  0.34636116  0.31142444  0.49653865  1  0.008734  -0.000188  0.085516  0.081704  -8.5e-05  1.025746  0.0
H  H50  1  0.05166833  0.62016696  0.52461747  1  0.003568  -6e-06  0.084757  0.077049  1e-05  1.026285  0.0
H  H51  1  0.52715721  0.37977405  0.47538413  1  0.002052  -4e-06  0.084406  0.076588  1e-05  1.027418  0.0
H  H52  1  0.11329080  0.72673745  0.62942178  1  0.035614  -2e-05  0.08551  0.081888  3e-06  0.99322  0.0
H  H53  1  0.48398087  0.27316161  0.37058957  1  0.015044  -2e-05  0.085484  0.081975  3e-06  0.992943  0.0
H  H54  1  0.09699202  0.49594931  0.62510605  1  0.007333  -7e-06  0.088507  0.064558  2.1e-05  0.980468  0.0
H  H55  1  0.47205129  0.50392364  0.37484481  1  0.009019  -7e-06  0.088562  0.064389  2e-05  0.980405  0.0
H  H56  1  0.04613778  0.56510937  0.76334454  1  0.043085  -0.000319  0.085276  0.092114  -0.000128  1.024478  0.0
H  H57  1  0.28295149  0.43482319  0.23666990  1  0.02836  -0.000319  0.084457  0.091154  -0.000126  1.024682  0.0
H  H58  1  0.10861895  0.69882368  0.75752393  1  0.015312  -0.000117  0.090712  0.100656  1.7e-05  0.987592  0.0
H  H59  1  0.35116223  0.30108528  0.24246259  1  0.010687  -0.000118  0.090462  0.100006  1.7e-05  0.987151  0.0
H  H60  1  0.64914711  0.57776095  0.60821097  1  0.01621  -0.000147  0.087629  0.120366  -7.8e-05  1.015997  0.0
H  H61  1  0.04110394  0.42217139  0.39194710  1  0.020428  -0.000174  0.087532  0.120424  -9.4e-05  1.015539  0.0
H  H62  1  0.64838785  0.60102296  0.50967040  1  0.044094  -8e-06  0.085709  0.114996  -6e-06  1.026253  0.0
H  H63  1  0.13892462  0.39895147  0.49047823  1  -0.017383  -1e-05  0.085784  0.115262  -6e-06  1.025716  0.0
H  H64  1  0.66952011  0.72422451  0.60437262  1  0.037873  -4e-06  0.088008  0.123234  3.5e-05  1.021668  0.0
H  H65  1  0.06536160  0.27574251  0.39579657  1  0.034205  -6e-06  0.088097  0.123397  3.4e-05  1.021323  0.0
H  H66  1  0.86813625  0.44647633  0.69060317  1  0.056705  -0.002266  0.075784  0.113645  -0.001812  1.086548  0.0
H  H67  1  0.17788010  0.55346962  0.30932403  1  0.062857  -0.002233  0.075956  0.114186  -0.001796  1.086028  0.0
H  H68  1  0.89522230  0.33456583  0.60490296  1  0.017222  -0.000168  0.083019  0.113812  -1.1e-05  1.004222  0.0
H  H69  1  0.29072926  0.66533761  0.39501561  1  -0.026928  -0.00018  0.08301  0.113467  -1.2e-05  1.004255  0.0
H  H70  1  0.74459746  0.38702837  0.58916858  1  0.024882  -1e-06  0.083696  0.113813  5e-06  1.027539  0.0
H  H71  1  0.15573623  0.61307605  0.41075190  1  0.02881  -7e-06  0.083518  0.11322  0.0  1.027024  0.0
H  H72  1  0.88915660  0.36448426  0.46926246  1  0.04591  -1.8e-05  0.085753  0.116704  1e-06  1.018993  0.0
H  H73  1  0.42000609  0.63556778  0.53068655  1  0.044756  -1.6e-05  0.085753  0.116369  1e-06  1.020131  0.0
H  H74  1  0.87407182  0.50366954  0.45021615  1  0.006596  -0.00017  0.086323  0.116733  -7.7e-05  1.033141  0.0
H  H75  1  0.42395982  0.49645822  0.54981566  1  0.008339  -0.000134  0.086034  0.115958  -5.8e-05  1.032647  0.0
H  H76  1  0.74304044  0.42578824  0.45486999  1  -0.005234  -7e-06  0.085496  0.116912  8e-06  1.016902  0.0
H  H77  1  0.28829003  0.57430992  0.54515112  1  0.004584  -5e-06  0.085012  0.115974  1e-05  1.016633  0.0
H  H78  1  0.84074718  0.88220203  0.07169002  1  0.130796  -0.002544  0.097644  0.071117  -0.001321  1.082293  -0.001
H  H79  1  0.76905664  0.11782642  0.92849818  1  0.124115  -0.00255  0.098051  0.071216  -0.001323  1.082764  -0.001
H  H80  1  0.62368831  0.88014734  0.07747652  1  0.056792  -0.001094  0.103601  0.103671  -0.000545  1.036536  0.0
H  H81  1  0.54608633  0.11923411  0.92243044  1  0.067753  -0.001083  0.103232  0.103632  -0.000544  1.036731  0.0
H  H82  1  0.42402911  0.83240883  0.02776582  1  0.066132  -0.001252  0.10273  0.104674  -0.000649  1.029656  0.0
H  H83  1  0.39663842  0.16718384  0.97234457  1  0.065805  -0.001255  0.102717  0.104625  -0.000648  1.028617  0.0
H  H84  1  0.20457652  0.84200455  0.02919701  1  0.115635  -0.002334  0.108414  0.084603  -0.00084  1.023667  -0.001
H  H85  1  0.17571440  0.15781760  0.97081750  1  0.122316  -0.002337  0.108407  0.084964  -0.000842  1.023998  -0.001
C  C86  1  0.83748680  0.34971773  0.82910653  1  0.322116  0.001988  0.106888  0.267073  0.006222  4.114997  0.005
C  C87  1  0.00833805  0.65028372  0.17077390  1  0.281473  0.001821  0.106816  0.266363  0.006214  4.11752  0.005
C  C88  1  0.71523884  0.16551638  0.72365918  1  0.344475  -0.005185  0.007286  0.135681  -0.00357  3.712807  -0.004
C  C89  1  0.99168766  0.83447984  0.27630577  1  0.349842  -0.005206  0.006309  0.133827  -0.00358  3.713353  -0.004
C  C90  1  0.56956284  0.16545740  0.69006028  1  0.04363  -4.1e-05  -0.018332  0.085154  0.000109  3.744711  0.0
C  C91  1  0.87969765  0.83447256  0.30998957  1  0.047466  -5.5e-05  -0.017524  0.088112  0.0001  3.741237  0.0
C  C92  1  0.53622135  0.22568624  0.61772945  1  -0.057637  -0.000386  -0.168251  -0.206287  -0.000237  3.871253  0.0
C  C93  1  0.91876961  0.77429072  0.38234164  1  -0.024456  -0.000394  -0.168014  -0.206872  -0.000247  3.87248  0.0
C  C94  1  0.56387830  0.13484445  0.54064412  1  -0.027092  -0.000122  -0.16686  -0.176415  -4.9e-05  3.89128  0.0
C  C95  1  0.02341875  0.86519710  0.45937216  1  -0.04118  -0.000111  -0.167324  -0.178151  -4.1e-05  3.894016  0.0
C  C96  1  0.61134694  0.03276595  0.57770812  1  -0.009838  -0.000299  -0.08904  -0.031461  -0.00011  3.802683  0.0
C  C97  1  0.03376379  0.96723523  0.42225784  1  0.011533  -0.000296  -0.08989  -0.031646  -0.000108  3.805863  0.0
C  C98  1  0.74432315  0.07849752  0.64658043  1  -0.018091  -0.001848  -0.168559  -0.249717  -0.001412  3.878903  -0.001
C  C99  1  0.09785389  0.92150588  0.35336591  1  -0.040899  -0.001833  -0.167962  -0.247978  -0.001394  3.878584  -0.001
C  C100  1  0.51571843  0.21902149  0.76194395  1  -0.068852  -5.3e-05  -0.245252  -0.402159  5.3e-05  3.949806  0.0
C  C101  1  0.75399905  0.78083920  0.23814824  1  -0.040419  -5.3e-05  -0.245106  -0.40284  5.3e-05  3.948953  0.0
C  C102  1  0.52869183  0.03074029  0.63501923  1  0.033571  -2.3e-05  -0.012857  0.164299  3.3e-05  3.718571  0.0
C  C103  1  0.89377406  0.96916971  0.36497828  1  0.035154  -2.2e-05  -0.012716  0.163644  3.4e-05  3.715808  0.0
C  C104  1  0.56565692  0.94520455  0.68901562  1  -0.114648  -0.000248  -0.245352  -0.407933  -4.2e-05  3.902073  0.0
C  C105  1  0.87664676  0.05474096  0.31099619  1  -0.07075  -0.000247  -0.244373  -0.406601  -4.3e-05  3.902008  0.0
C  C106  1  0.38650612  0.00202656  0.58293460  1  -0.098737  0.0  -0.241393  -0.406575  6e-06  3.923562  0.0
C  C107  1  0.80362602  0.99778146  0.41707524  1  -0.073746  -1e-06  -0.241462  -0.406055  6e-06  3.921605  0.0
C  C108  1  0.70918479  0.41699182  0.02247957  1  0.48547  0.0042  0.045135  0.092022  0.00395  3.947947  0.003
C  C109  1  0.68685219  0.58351544  0.97748474  1  0.466078  0.004199  0.045608  0.093665  0.003957  3.949403  0.003
C  C110  1  0.58578885  0.41362651  0.02273773  1  -0.03412  -0.003929  -0.087971  -0.177503  -0.002406  3.947049  -0.003
C  C111  1  0.56311781  0.58694806  0.97707055  1  -0.026013  -0.003947  -0.087647  -0.178305  -0.002401  3.94932  -0.003
C  C112  1  0.50877588  0.50032014  0.99988683  1  -0.024627  0.006819  0.00751  0.102903  0.006312  3.992315  0.004
C  C113  1  0.37762544  0.50032183  0.99988095  1  0.029214  0.007478  0.005607  0.097434  0.006934  3.996531  0.005
C  C114  1  0.33502117  0.43876810  0.04609757  1  -0.078262  -0.004318  -0.086334  -0.172535  -0.002581  3.935935  -0.003
C  C115  1  0.28870432  0.56179273  0.95368625  1  -0.064453  -0.004291  -0.086466  -0.174523  -0.002592  3.936853  -0.003
C  C116  1  0.21017338  0.43927592  0.04343661  1  0.494203  0.003986  0.043332  0.09224  0.003787  3.929838  0.003
C  C117  1  0.16655336  0.56106006  0.95643352  1  0.482275  0.003984  0.043184  0.092528  0.00379  3.930466  0.003
C  C118  1  0.92905735  0.85847744  0.82511862  1  0.285997  0.000889  0.104193  0.266432  0.005431  4.131204  0.005
C  C119  1  0.10410868  0.14156784  0.17484865  1  0.284116  0.000866  0.103519  0.2661  0.005451  4.131857  0.005
C  C120  1  0.90064462  0.67056683  0.70953108  1  0.381713  -0.004731  0.00633  0.133356  -0.003375  3.718631  -0.003
C  C121  1  0.19125409  0.32938758  0.29052469  1  0.382947  -0.004705  0.006329  0.134431  -0.003359  3.717651  -0.003
C  C122  1  0.83472406  0.62987424  0.60939722  1  0.068893  -0.000605  -0.017042  0.091807  -0.000221  3.747843  0.0
C  C123  1  0.22546904  0.37009161  0.39066924  1  0.035308  -0.000595  -0.017745  0.09224  -0.000213  3.744208  0.0
C  C124  1  0.90333112  0.70410269  0.57304211  1  -0.016269  -0.000351  -0.168641  -0.205088  -0.000192  3.863176  0.0
C  C125  1  0.33042486  0.29585266  0.42702576  1  -0.06691  -0.000346  -0.167864  -0.20431  -0.000186  3.860773  0.0
C  C126  1  0.03519470  0.65690868  0.58680136  1  -0.050528  -1.4e-05  -0.168591  -0.179195  2.4e-05  3.90251  0.0
C  C127  1  0.44851659  0.34301690  0.41321676  1  -0.019536  -1.2e-05  -0.167985  -0.179315  2.4e-05  3.90243  0.0
C  C128  1  0.02714052  0.56023979  0.62916851  1  0.01912  -0.000137  -0.090137  -0.03181  1e-06  3.805298  0.0
C  C129  1  0.39812365  0.43966202  0.37081694  1  -0.006881  -0.000135  -0.090535  -0.030984  1e-06  3.803465  0.0
C  C130  1  0.03268506  0.62477539  0.72343351  1  -0.038753  -0.000411  -0.171558  -0.25284  -0.000381  3.88513  0.0
C  C131  1  0.30935760  0.37514744  0.27657548  1  -0.012559  -0.000397  -0.170209  -0.25158  -0.000385  3.883835  0.0
C  C132  1  0.69266209  0.63298924  0.58121575  1  -0.106649  -5.3e-05  -0.244374  -0.408863  4.6e-05  3.954162  0.0
C  C133  1  0.11163786  0.36698347  0.41892913  1  -0.030339  -6.8e-05  -0.244565  -0.409913  3.3e-05  3.953719  0.0
C  C134  1  0.88589580  0.50613580  0.58294557  1  0.028965  -0.00017  -0.013417  0.166776  -4.6e-05  3.720428  0.0
C  C135  1  0.30311269  0.49384247  0.41705643  1  0.047334  -0.00018  -0.013537  0.164435  -5.2e-05  3.721227  0.0
C  C136  1  0.84703449  0.41488733  0.61976645  1  -0.097076  -0.003128  -0.249384  -0.412674  -0.001938  3.914735  -0.002
C  C137  1  0.22757659  0.58508897  0.38015761  1  -0.063836  -0.003096  -0.249181  -0.411402  -0.001921  3.913248  -0.002
C  C138  1  0.84645383  0.44812392  0.48384802  1  -0.05587  -0.000229  -0.243848  -0.409901  -0.000152  3.914808  0.0
C  C139  1  0.36271597  0.55194631  0.51613865  1  -0.066683  -0.000234  -0.242914  -0.406986  -0.000153  3.913822  0.0
C  C140  1  0.77258243  0.93455725  0.04003031  1  0.4909  0.003808  0.043382  0.095676  0.003654  3.920448  0.003
C  C141  1  0.73256077  0.06534064  0.96010824  1  0.482209  0.003793  0.042743  0.095589  0.003644  3.92359  0.003
C  C142  1  0.64995954  0.93275527  0.04188484  1  -0.013544  -0.004065  -0.087882  -0.175859  -0.00244  3.941237  -0.003
C  C143  1  0.60798346  0.06673271  0.95806777  1  -0.011963  -0.004043  -0.087268  -0.175647  -0.002436  3.94274  -0.003
C  C144  1  0.56314436  0.99970163  0.99997459  1  -0.083737  0.007386  0.005327  0.0979  0.006824  3.996884  0.004
C  C145  1  0.43199319  0.99974682  0.00002149  1  -0.029328  0.006987  0.005901  0.103006  0.006469  3.993706  0.004
C  C146  1  0.37418008  0.90785850  0.01591727  1  -0.036816  -0.004011  -0.08924  -0.179661  -0.002432  3.948857  -0.003
C  C147  1  0.35851114  0.09176540  0.98417880  1  0.008103  -0.003961  -0.089162  -0.178152  -0.002421  3.946185  -0.003
C  C148  1  0.25069352  0.91164447  0.01603265  1  0.500752  0.004364  0.044687  0.095995  0.004125  3.942269  0.003
C  C149  1  0.23488177  0.08812328  0.98399795  1  0.449816  0.004329  0.044887  0.094681  0.004107  3.943145  0.003
S  S150  1  0.89537947  0.29305145  0.91296894  1  -0.147369  -0.1344  -0.143984  -0.273373  -0.079359  2.59756  -0.091
S  S151  1  0.98254690  0.70701576  0.08695852  1  -0.150018  -0.134518  -0.144001  -0.273034  -0.079467  2.599117  -0.091
S  S152  1  0.85927891  0.49853314  0.84986660  1  -0.13019  -0.142548  -0.147901  -0.314172  -0.085663  2.617455  -0.093
S  S153  1  0.00911955  0.50144700  0.15000902  1  -0.093027  -0.142419  -0.147963  -0.314166  -0.08566  2.616585  -0.093
S  S154  1  0.93626226  0.00838560  0.85191605  1  -0.109916  -0.144452  -0.156471  -0.316714  -0.08746  2.599177  -0.093
S  S155  1  0.08443313  0.99166504  0.14804837  1  -0.108866  -0.144654  -0.156519  -0.316621  -0.087627  2.600888  -0.093
S  S156  1  0.95105708  0.79332060  0.90417441  1  -0.148577  -0.137324  -0.147284  -0.279789  -0.080956  2.533989  -0.092
S  S157  1  0.04710251  0.20678037  0.09582960  1  -0.144379  -0.137314  -0.146774  -0.279425  -0.081069  2.532421  -0.092
N  N158  1  0.75973390  0.50022662  0.99999498  1  -1.21048  -0.059679  -0.324079  -0.176368  -0.038449  3.626607  -0.054
N  N159  1  0.12642420  0.50010449  0.99993158  1  -1.201385  -0.061895  -0.322699  -0.168545  -0.040006  3.605238  -0.057
N  N160  1  0.81467901  0.00003544  0.00010935  1  -1.207671  -0.059493  -0.321612  -0.168017  -0.038568  3.597901  -0.055
N  N161  1  0.18105910  0.99990603  0.99997990  1  -1.209133  -0.059445  -0.324145  -0.171824  -0.03827  3.619142  -0.054
O  O162  1  0.77499818  0.28527666  0.74608111  1  -1.058651  -0.000955  -0.147829  -0.157071  -0.000173  2.586293  0.001
O  O163  1  0.02905676  0.71474676  0.25382278  1  -1.053784  -0.000972  -0.147414  -0.156472  -0.000181  2.587066  0.001
O  O164  1  0.90594125  0.79971850  0.74071290  1  -1.075913  -0.002228  -0.1519  -0.166979  -0.001026  2.596286  0.0
O  O165  1  0.16534330  0.20024822  0.25927310  1  -1.076484  -0.002227  -0.151781  -0.167264  -0.001029  2.596473  0.0
