# generated using pymatgen
data_NiH17C19N3O4
_symmetry_space_group_name_H-M   'P 1'
_cell_length_a   9.32818592
_cell_length_b   9.51381805
_cell_length_c   12.88413331
_cell_angle_alpha   87.99738050
_cell_angle_beta   90.90282914
_cell_angle_gamma   88.33114315
_symmetry_Int_Tables_number   1
_chemical_formula_structural   NiH17C19N3O4
_chemical_formula_sum   'Ni2 H34 C38 N6 O8'
_cell_volume   1142.07972892
_cell_formula_units_Z   2
loop_
 _symmetry_equiv_pos_site_id
 _symmetry_equiv_pos_as_xyz
  1  'x, y, z'
loop_
 _atom_site_type_symbol
 _atom_site_label
 _atom_site_symmetry_multiplicity
 _atom_site_fract_x
 _atom_site_fract_y
 _atom_site_fract_z
 _atom_site_occupancy
 _atom_site_hle17_ddec_charge
 _atom_site_hle17_ddec_spin_density
 _atom_site_hle17_ddec_sum_bond_order
 _atom_site_hle17_magmom
 _atom_site_hse06_10hf_ddec_charge
 _atom_site_hse06_10hf_ddec_spin_density
 _atom_site_hse06_10hf_ddec_sum_bond_order
 _atom_site_hse06_10hf_magmom
 _atom_site_hse06_ddec_charge
 _atom_site_hse06_ddec_spin_density
 _atom_site_hse06_ddec_sum_bond_order
 _atom_site_hse06_magmom
 _atom_site_pbe_cm5_charge
 _atom_site_pbe_ddec_charge
 _atom_site_pbe_ddec_spin_density
 _atom_site_pbe_ddec_sum_bond_order
 _atom_site_pbe_magmom
Ni  Ni0  1  0.29223380  0.75031850  0.75875675  1  0.668777  -0.018978  2.229043  -0.012  0.646345  0.016502  2.666254  0.01  0.754968  0.019412  2.57514  0.012  0.62386  0.577784  -0.008003  2.727199  -0.008
Ni  Ni1  1  0.70771670  0.24951668  0.24108861  1  0.668616  0.019195  2.227451  0.012  0.645898  -0.01644  2.664929  -0.01  0.754743  -0.019385  2.573564  -0.012  0.62357  0.577285  -0.00794  2.725872  -0.008
H  H2  1  0.08059569  0.96595311  0.84627924  1  0.086458  -0.000402  0.924114  0.0  0.095444  -0.000305  0.981874  0.0  0.098735  -0.000215  0.97903  0.0  0.119174  0.092743  0.000396  0.984305  0.0
H  H3  1  0.91941348  0.03406116  0.15363424  1  0.086369  0.000404  0.923783  0.0  0.095353  0.000306  0.981588  0.0  0.098643  0.000216  0.978742  0.0  0.119066  0.092648  0.000398  0.984028  0.0
H  H4  1  0.81819559  0.01463508  0.86148690  1  0.114952  -0.00016  0.981622  0.0  0.122235  -0.000126  1.043328  0.0  0.127003  -9.6e-05  1.040385  0.0  0.102494  0.118825  0.000163  1.045376  0.0
H  H5  1  0.18177544  0.98542276  0.13851512  1  0.115133  0.000166  0.981087  0.0  0.122148  0.000127  1.043064  0.0  0.126907  9.7e-05  1.040126  0.0  0.102524  0.118742  0.000165  1.045101  0.0
H  H6  1  0.64625127  0.83792725  0.78589868  1  0.100552  -9.3e-05  0.948607  0.0  0.107684  -1.3e-05  1.01758  0.0  0.110781  -1e-06  1.014445  0.0  0.107991  0.105076  -6e-06  1.020365  0.0
H  H7  1  0.35367833  0.16210690  0.21411191  1  0.100324  9.2e-05  0.9488  0.0  0.107496  1.2e-05  1.017684  0.0  0.110583  0.0  1.014572  0.0  0.10796  0.10489  -6e-06  1.020485  0.0
H  H8  1  0.74905602  0.62699927  0.70383527  1  0.112606  -0.000158  0.965322  0.0  0.122122  -0.000116  1.023511  0.0  0.126506  -8.7e-05  1.020903  0.0  0.106203  0.118887  0.000149  1.025545  0.0
H  H9  1  0.25089770  0.37301586  0.29620364  1  0.112784  0.000158  0.965099  0.0  0.122261  0.000117  1.023342  0.0  0.126668  8.8e-05  1.020705  0.0  0.106185  0.118996  0.00015  1.025418  0.0
H  H10  1  0.01927272  0.59499896  0.69638308  1  0.088227  -0.00052  0.922581  0.0  0.096544  -0.00053  0.981301  0.0  0.100751  -0.000385  0.977473  0.0  0.117204  0.09334  0.000661  0.984221  0.0
H  H11  1  0.98065469  0.40501996  0.30360827  1  0.088443  0.000521  0.922673  0.0  0.096625  0.000531  0.981482  0.0  0.100828  0.000386  0.97765  0.0  0.117348  0.093422  0.000663  0.984408  0.0
H  H12  1  0.45401501  0.00993717  0.74171685  1  0.086264  -0.000777  0.965624  -0.001  0.093207  -0.000817  1.031094  -0.001  0.09572  -0.000686  1.028034  -0.001  0.117543  0.091149  0.000844  1.033771  0.001
H  H13  1  0.54603618  0.99018374  0.25823211  1  0.086328  0.000774  0.965959  0.001  0.093341  0.000816  1.031342  0.001  0.095854  0.000686  1.028289  0.001  0.11769  0.091277  0.000844  1.034037  0.001
H  H14  1  0.48301591  0.20578054  0.60842548  1  0.101095  -0.000365  0.945706  0.0  0.112092  -0.000377  1.00037  0.0  0.11389  -0.000288  1.001871  0.0  0.106571  0.110954  0.000445  0.999133  0.0
H  H15  1  0.51694642  0.79415804  0.39143815  1  0.100827  0.000365  0.945916  0.0  0.111923  0.000376  1.00046  0.0  0.113739  0.000287  1.001956  0.0  0.106456  0.110787  0.000444  0.999221  0.0
H  H16  1  0.33385454  0.20887967  0.44548303  1  0.105471  -0.000141  0.981825  0.0  0.112696  -3.1e-05  1.047954  0.0  0.115128  -1.8e-05  1.046184  0.0  0.105287  0.11089  -1.7e-05  1.0494  0.0
H  H17  1  0.66613021  0.79098740  0.55448793  1  0.105575  0.000139  0.981703  0.0  0.112874  3.2e-05  1.047715  0.0  0.115291  1.8e-05  1.045999  0.0  0.105356  0.111054  -1.7e-05  1.049182  0.0
H  H18  1  0.15385606  0.01726774  0.42474410  1  0.099581  -0.000244  0.955879  0.0  0.108619  -0.000246  1.014187  0.0  0.110459  -0.000183  1.015889  0.0  0.104085  0.107333  0.000292  1.013168  0.0
H  H19  1  0.84615005  0.98270184  0.57523276  1  0.099521  0.000249  0.955852  0.0  0.108434  0.000246  1.014286  0.0  0.11027  0.000183  1.015994  0.0  0.104066  0.107152  0.000292  1.013258  0.0
H  H20  1  0.14183815  0.82799620  0.56405337  1  0.087086  -0.000692  0.937395  -0.001  0.094052  -0.000651  0.999599  -0.001  0.096245  -0.000528  0.997201  0.0  0.119291  0.092286  0.000769  1.001667  0.001
H  H21  1  0.85811647  0.17192725  0.43587172  1  0.086994  0.000689  0.937523  0.001  0.094071  0.00065  0.999612  0.001  0.096242  0.000527  0.997237  0.0  0.119364  0.092306  0.000768  1.001681  0.001
H  H22  1  0.50078113  0.52314175  0.78678578  1  0.086805  -0.00084  0.96752  -0.001  0.095121  -0.000976  1.028965  -0.001  0.096347  -0.000837  1.027585  -0.001  0.118899  0.094142  0.001045  1.030279  0.001
H  H23  1  0.49931228  0.47696486  0.21328082  1  0.08689  0.00084  0.967459  0.001  0.095343  0.000974  1.028684  0.001  0.096598  0.000836  1.02727  0.001  0.118921  0.09429  0.001043  1.0301  0.001
H  H24  1  0.53521614  0.30424494  0.89840439  1  0.107279  -0.000367  0.955583  0.0  0.117933  -0.000344  1.012195  0.0  0.120153  -0.000263  1.012447  0.0  0.107934  0.116287  0.000398  1.012305  0.0
H  H25  1  0.46503603  0.69601736  0.10183598  1  0.106938  0.000368  0.955614  0.0  0.117779  0.000345  1.01205  0.0  0.120005  0.000264  1.012293  0.0  0.107992  0.116135  0.0004  1.012158  0.0
H  H26  1  0.34952611  0.24732836  0.03183594  1  0.089357  -0.000101  0.972658  0.0  0.099595  -3e-05  1.036602  0.0  0.100495  -1.2e-05  1.037357  0.0  0.103366  0.098785  5.2e-05  1.036428  0.0
H  H27  1  0.65066320  0.75279088  0.96828774  1  0.089262  9.9e-05  0.972729  0.0  0.099532  2.9e-05  1.036621  0.0  0.100433  1.1e-05  1.03737  0.0  0.103422  0.098723  5.1e-05  1.036447  0.0
H  H28  1  0.13972614  0.41659204  0.04891474  1  0.099084  -0.00022  0.960241  0.0  0.10937  -0.000196  1.018012  0.0  0.110934  -0.000146  1.019757  0.0  0.104928  0.108381  0.000268  1.016805  0.0
H  H29  1  0.86031285  0.58329149  0.95103382  1  0.099128  0.000223  0.959853  0.0  0.109489  0.000196  1.017547  0.0  0.111062  0.000146  1.019291  0.0  0.104967  0.108489  0.000268  1.01636  0.0
H  H30  1  0.12336464  0.63223289  0.93169454  1  0.086884  -0.000816  0.960483  -0.001  0.091707  -0.000904  1.027745  -0.001  0.093321  -0.000747  1.02567  -0.001  0.118968  0.090516  0.001039  1.029485  0.001
H  H31  1  0.87649241  0.36756458  0.06828891  1  0.086708  0.000817  0.960726  0.001  0.091543  0.000905  1.027961  0.001  0.093159  0.000748  1.025881  0.001  0.118926  0.090263  0.00104  1.029798  0.001
H  H32  1  0.33880304  0.47920808  0.47870674  1  0.118778  0.000106  0.935829  0.0  0.127494  0.000186  0.993707  0.0  0.132104  0.000148  0.990194  0.0  0.106809  0.124276  -0.000154  0.996224  0.0
H  H33  1  0.66113985  0.52065978  0.52126163  1  0.118953  -0.000107  0.936682  0.0  0.127597  -0.000185  0.994587  0.0  0.132195  -0.000148  0.991072  0.0  0.106894  0.124386  -0.000154  0.9971  0.0
H  H34  1  0.42241585  0.97377845  0.10295202  1  0.103868  0.00039  0.962924  0.001  0.113378  0.000337  1.026211  0.0  0.11589  0.000241  1.024643  0.0  0.104097  0.111896  -0.000754  1.027232  -0.001
H  H35  1  0.57763480  0.02624840  0.89713778  1  0.103655  -0.000391  0.963955  -0.001  0.113128  -0.000338  1.027128  0.0  0.115607  -0.000242  1.025614  0.0  0.104037  0.111662  -0.000751  1.028119  -0.001
C  C36  1  0.00321141  0.89426791  0.81487390  1  0.127812  0.001908  3.698758  0.002  0.100436  0.00013  3.955141  0.0  0.108842  0.000438  3.971189  0.001  0.04799  0.094872  0.000158  3.945097  0.0
C  C37  1  0.99673949  0.10576823  0.18512670  1  0.12769  -0.001911  3.697911  -0.002  0.100364  -0.000126  3.95424  0.0  0.108769  -0.000438  3.970304  -0.001  0.048015  0.094807  0.000164  3.944195  0.0
C  C38  1  0.85593651  0.92074898  0.82240423  1  -0.140167  -0.002664  3.733899  -0.002  -0.145502  -0.001007  3.970349  -0.001  -0.152833  -0.000948  3.989637  -0.001  -0.089553  -0.140815  0.001163  3.957583  0.001
C  C39  1  0.14401745  0.07935846  0.17756139  1  -0.140038  0.002667  3.733263  0.002  -0.145133  0.001015  3.969754  0.001  -0.152459  0.000957  3.989045  0.001  -0.089341  -0.140445  0.001172  3.95699  0.001
C  C40  1  0.76258770  0.82339883  0.78209929  1  -0.01373  0.002534  3.715329  0.002  -0.030645  0.00064  3.961362  0.0  -0.02601  0.000759  3.9788  0.001  -0.069628  -0.033681  -0.000551  3.949862  0.0
C  C41  1  0.23735981  0.17672104  0.21787780  1  -0.013336  -0.002548  3.71554  -0.002  -0.030301  -0.000646  3.961546  0.0  -0.025659  -0.000767  3.978978  -0.001  -0.069658  -0.033359  -0.000557  3.950076  0.0
C  C42  1  0.82006439  0.70359778  0.73638934  1  -0.130485  -0.002351  3.749928  -0.002  -0.139134  -0.000795  3.993042  -0.001  -0.145975  -0.000796  4.012708  -0.001  -0.088499  -0.134552  0.000877  3.979884  0.001
C  C43  1  0.17985349  0.29649203  0.26359104  1  -0.130784  0.002372  3.750163  0.002  -0.139444  0.0008  3.993276  0.001  -0.146309  0.000802  4.012927  0.001  -0.088408  -0.134833  0.000884  3.980135  0.001
C  C44  1  0.96851955  0.68601320  0.73196300  1  0.095501  0.001751  3.727736  0.002  0.071467  8.1e-05  3.983362  0.0  0.078569  0.000427  4.000481  0.001  0.039037  0.066341  0.000232  3.973315  0.0
C  C45  1  0.03139399  0.31401911  0.26804830  1  0.095474  -0.001769  3.727907  -0.002  0.071608  -8.8e-05  3.983479  0.0  0.078735  -0.000435  4.000592  -0.001  0.038804  0.066455  0.000225  3.973464  0.0
C  C46  1  0.39126020  0.01621026  0.66969330  1  0.120887  0.002595  3.672606  0.002  0.092866  -0.000527  3.920969  0.0  0.102447  0.000159  3.940254  0.001  0.04848  0.085888  0.001006  3.909051  0.0
C  C47  1  0.60867963  0.98375693  0.33029796  1  0.120279  -0.00254  3.67328  -0.002  0.092186  0.000534  3.921696  0.0  0.101752  -0.000154  3.941017  -0.001  0.048247  0.08521  0.001016  3.90978  0.0
C  C48  1  0.40536583  0.12453666  0.59566284  1  -0.120782  -0.004873  3.751351  -0.004  -0.13003  -0.00244  3.996457  -0.002  -0.138465  -0.002403  4.018912  -0.002  -0.084674  -0.124435  0.002534  3.98144  0.002
C  C49  1  0.59464753  0.87533481  0.40428183  1  -0.119982  0.004825  3.750265  0.004  -0.129288  0.002433  3.995309  0.002  -0.137737  0.002395  4.01779  0.002  -0.084428  -0.123693  0.002528  3.980279  0.002
C  C50  1  0.32064987  0.12677391  0.50547450  1  -0.008083  0.004697  3.716778  0.004  -0.029007  0.001512  3.963287  0.001  -0.023622  0.001728  3.981609  0.001  -0.070065  -0.033361  -0.001567  3.951669  -0.001
C  C51  1  0.67944331  0.87305727  0.49447034  1  -0.008817  -0.004638  3.716105  -0.004  -0.029736  -0.001497  3.962609  -0.001  -0.024371  -0.001716  3.980938  -0.001  -0.070384  -0.034074  -0.001546  3.950973  -0.001
C  C52  1  0.22282508  0.02002971  0.49371630  1  -0.131319  -0.003992  3.76085  -0.003  -0.138395  -0.001507  4.00586  -0.001  -0.147323  -0.001592  4.028301  -0.001  -0.087365  -0.13248  0.001543  3.991509  0.001
C  C53  1  0.77719987  0.97989007  0.50626281  1  -0.13089  0.003929  3.760614  0.003  -0.13787  0.001501  4.005638  0.001  -0.146785  0.001585  4.028063  0.001  -0.08714  -0.131954  0.001538  3.991287  0.001
C  C54  1  0.21482885  0.91458162  0.57085793  1  0.111402  0.004611  3.688358  0.004  0.081258  0.001345  3.940019  0.002  0.091235  0.001819  3.959882  0.002  0.042936  0.073919  -0.001038  3.927538  -0.001
C  C55  1  0.78510156  0.08536780  0.42913580  1  0.111443  -0.004553  3.688355  -0.004  0.081203  -0.001333  3.940007  -0.002  0.091198  -0.001805  3.959883  -0.002  0.042764  0.07385  -0.001021  3.927554  -0.001
C  C56  1  0.42274491  0.49363664  0.84500241  1  0.112907  0.000929  3.677511  0.001  0.084926  -0.001311  3.926481  0.0  0.094349  -0.000604  3.947016  0.0  0.04435  0.078282  0.001843  3.913042  0.001
C  C57  1  0.57739868  0.50653098  0.15511035  1  0.112643  -0.000927  3.677171  -0.001  0.084609  0.001311  3.925978  0.0  0.094018  0.000602  3.946504  0.0  0.044363  0.077999  0.001844  3.912587  0.001
C  C58  1  0.44037832  0.37195644  0.90736951  1  -0.123545  -0.004574  3.747389  -0.004  -0.133465  -0.002812  3.992598  -0.003  -0.141691  -0.002665  4.015103  -0.003  -0.085672  -0.128064  0.002967  3.977973  0.003
C  C59  1  0.55980499  0.62822881  0.09276656  1  -0.123061  0.004571  3.747543  0.004  -0.133159  0.002813  3.99271  0.003  -0.141388  0.002667  4.015221  0.003  -0.085781  -0.127756  0.002967  3.978073  0.003
C  C60  1  0.33774899  0.34144125  0.98159359  1  -0.002751  0.003099  3.733487  0.002  -0.02243  0.001054  3.977019  0.001  -0.017807  0.001294  3.997063  0.001  -0.068315  -0.026104  -0.000841  3.964276  -0.001
C  C61  1  0.66236211  0.65858507  0.01843601  1  -0.00254  -0.00309  3.734084  -0.002  -0.022247  -0.001063  3.977688  -0.001  -0.017612  -0.001301  3.997723  -0.001  -0.068133  -0.025926  -0.000853  3.964954  -0.001
C  C62  1  0.22118507  0.43490027  0.99074142  1  -0.125414  -0.003028  3.744413  -0.003  -0.132535  -0.001231  3.985976  -0.001  -0.141132  -0.001317  4.008678  -0.001  -0.084145  -0.126859  0.001199  3.970948  0.001
C  C63  1  0.77886273  0.56508322  0.00923863  1  -0.125384  0.003005  3.743979  0.003  -0.132602  0.001232  3.985553  0.001  -0.141211  0.001318  4.008249  0.001  -0.084201  -0.126917  0.001199  3.970516  0.001
C  C64  1  0.21015646  0.55455343  0.92551780  1  0.12669  0.003833  3.677147  0.004  0.095128  0.001394  3.932067  0.002  0.105165  0.001875  3.951679  0.002  0.049231  0.088033  -0.000935  3.919383  -0.001
C  C65  1  0.78988174  0.44545261  0.07449065  1  0.126785  -0.003828  3.676688  -0.004  0.095237  -0.001406  3.931541  -0.002  0.105273  -0.001887  3.951166  -0.002  0.049363  0.088209  -0.00095  3.918903  -0.001
C  C66  1  0.33956683  0.88438181  0.95962373  1  0.652367  -0.002655  3.93174  -0.005  0.617088  -0.000911  4.229568  -0.003  0.654491  -0.000955  4.222428  -0.002  0.195307  0.591214  0.001064  4.232775  0.003
C  C67  1  0.66036668  0.11561221  0.04031051  1  0.652441  0.002695  3.931999  0.005  0.616955  0.00093  4.229885  0.003  0.654387  0.000971  4.222731  0.002  0.195471  0.591061  0.001087  4.233135  0.003
C  C68  1  0.44347316  0.96750655  0.02018859  1  -0.172667  0.008637  3.683899  0.007  -0.19084  0.003763  3.934915  0.003  -0.194888  0.003125  3.947367  0.003  -0.089111  -0.18853  -0.003065  3.926834  -0.003
C  C69  1  0.55636550  0.03260782  0.97982984  1  -0.172985  -0.008634  3.686453  -0.007  -0.190687  -0.003752  3.937216  -0.003  -0.19478  -0.003113  3.949714  -0.003  -0.089384  -0.188339  -0.003063  3.929101  -0.003
C  C70  1  0.41402636  0.60918597  0.60716443  1  0.639195  -0.000538  3.930404  -0.002  0.601724  0.001401  4.227903  0.0  0.639075  0.001098  4.221612  0.0  0.189915  0.575964  -0.002246  4.230914  -0.001
C  C71  1  0.58606580  0.39078154  0.39283470  1  0.63995  0.000537  3.930312  0.002  0.602119  -0.001389  4.228193  0.0  0.639443  -0.00109  4.221938  0.0  0.190085  0.576382  -0.002236  4.231181  -0.001
C  C72  1  0.43442379  0.51814652  0.51681402  1  -0.164535  0.000577  3.67008  0.0  -0.181556  -0.000393  3.918643  -0.001  -0.186177  -6e-06  3.93073  -0.001  -0.085852  -0.178583  -0.001396  3.910303  -0.001
C  C73  1  0.56554600  0.48176158  0.48320605  1  -0.164838  -0.000573  3.671093  0.0  -0.181893  0.000393  3.919826  0.001  -0.186472  7e-06  3.931881  0.001  -0.086027  -0.178951  -0.001406  3.911502  -0.001
N  N74  1  0.05889631  0.77954727  0.77062170  1  -0.301753  -0.026314  3.303108  -0.027  -0.260751  -0.016538  3.597304  -0.017  -0.283711  -0.014118  3.613198  -0.015  -0.322593  -0.247058  0.018591  3.58846  0.019
N  N75  1  0.94102857  0.22046709  0.22942558  1  -0.301743  0.026502  3.302995  0.027  -0.260826  0.016634  3.597253  0.017  -0.283846  0.014198  3.613147  0.015  -0.322596  -0.247102  0.018691  3.588421  0.019
N  N76  1  0.29841532  0.91184599  0.65746980  1  -0.248917  -0.038175  3.337326  -0.037  -0.19927  -0.028662  3.619915  -0.027  -0.234718  -0.025457  3.644394  -0.024  -0.326517  -0.17636  0.030925  3.60436  0.029
N  N77  1  0.70151524  0.08810208  0.34253560  1  -0.24878  0.03808  3.337688  0.037  -0.199141  0.028633  3.620351  0.027  -0.23464  0.025427  3.64485  0.024  -0.326465  -0.176201  0.030905  3.604797  0.029
N  N78  1  0.30898451  0.58333505  0.85309595  1  -0.247539  -0.035957  3.343108  -0.035  -0.198291  -0.026778  3.629464  -0.025  -0.234098  -0.02393  3.653145  -0.023  -0.327309  -0.174983  0.028758  3.614221  0.027
N  N79  1  0.69106836  0.41670528  0.14691840  1  -0.247552  0.035926  3.34239  0.035  -0.198246  0.026784  3.628592  0.025  -0.234097  0.023939  3.652278  0.023  -0.32743  -0.174918  0.028766  3.613341  0.027
O  O80  1  0.28324442  0.62430908  0.63877307  1  -0.578691  0.058123  2.03574  0.061  -0.553438  0.037091  2.302921  0.039  -0.601085  0.030908  2.296362  0.033  -0.313579  -0.51815  -0.041121  2.304193  -0.043
O  O81  1  0.71683735  0.37563024  0.36122555  1  -0.578984  -0.058282  2.034387  -0.061  -0.553597  -0.037168  2.301478  -0.039  -0.601235  -0.030947  2.294924  -0.033  -0.313695  -0.518314  -0.041228  2.302743  -0.043
O  O82  1  0.51971663  0.66459264  0.64975516  1  -0.61798  -0.006343  1.960874  -0.007  -0.582156  -0.004686  2.199069  -0.005  -0.609389  -0.004016  2.187826  -0.005  -0.314146  -0.563119  0.005211  2.207091  0.006
O  O83  1  0.48033931  0.33545819  0.35025753  1  -0.618579  0.006404  1.960712  0.007  -0.582352  0.004735  2.198886  0.005  -0.609614  0.004053  2.187676  0.005  -0.314073  -0.563286  0.005271  2.206872  0.006
O  O84  1  0.37326661  0.86831006  0.86316168  1  -0.599244  0.059553  2.140116  0.063  -0.574674  0.039799  2.438965  0.043  -0.623554  0.032546  2.428184  0.035  -0.319767  -0.539184  -0.044044  2.444426  -0.047
O  O85  1  0.62649522  0.13160899  0.13677786  1  -0.599299  -0.059833  2.140083  -0.064  -0.574614  -0.039965  2.439076  -0.043  -0.623576  -0.032674  2.42826  -0.036  -0.319901  -0.539049  -0.044218  2.444499  -0.047
O  O86  1  0.23187441  0.83844727  0.00483432  1  -0.601947  -0.001639  1.876411  -0.001  -0.568218  -0.000917  2.087871  -0.001  -0.590894  -0.000933  2.079084  -0.001  -0.324962  -0.551572  0.001151  2.092962  0.001
O  O87  1  0.76817994  0.16150374  0.99521835  1  -0.601893  0.00165  1.875993  0.001  -0.568167  0.000928  2.087559  0.001  -0.590842  0.000941  2.078756  0.001  -0.32501  -0.551532  0.00116  2.092656  0.001
