# generated using pymatgen
data_AgH8C9S(NO)3
_symmetry_space_group_name_H-M   'P 1'
_cell_length_a   8.55607615
_cell_length_b   9.48373389
_cell_length_c   12.83668757
_cell_angle_alpha   89.99995036
_cell_angle_beta   90.00024669
_cell_angle_gamma   93.19005129
_symmetry_Int_Tables_number   1
_chemical_formula_structural   AgH8C9S(NO)3
_chemical_formula_sum   'Ag4 H32 C36 S4 N12 O12'
_cell_volume   1040.00034972
_cell_formula_units_Z   4
loop_
 _symmetry_equiv_pos_site_id
 _symmetry_equiv_pos_as_xyz
  1  'x, y, z'
loop_
 _atom_site_type_symbol
 _atom_site_label
 _atom_site_symmetry_multiplicity
 _atom_site_fract_x
 _atom_site_fract_y
 _atom_site_fract_z
 _atom_site_occupancy
 _atom_site_hle17_bader_spin_density
 _atom_site_hle17_ddec_charge
 _atom_site_hle17_ddec_spin_density
 _atom_site_hle17_ddec_sum_bond_order
 _atom_site_hle17_magmom
 _atom_site_hse06_10hf_bader_spin_density
 _atom_site_hse06_10hf_ddec_charge
 _atom_site_hse06_10hf_ddec_spin_density
 _atom_site_hse06_10hf_ddec_sum_bond_order
 _atom_site_hse06_10hf_magmom
 _atom_site_hse06_bader_spin_density
 _atom_site_hse06_ddec_charge
 _atom_site_hse06_ddec_spin_density
 _atom_site_hse06_ddec_sum_bond_order
 _atom_site_hse06_magmom
 _atom_site_pbe_bader_spin_density
 _atom_site_pbe_cm5_charge
 _atom_site_pbe_ddec_charge
 _atom_site_pbe_ddec_spin_density
 _atom_site_pbe_ddec_sum_bond_order
 _atom_site_pbe_magmom
Ag  Ag0  1  0.44494388  0.63177715  0.78450034  1  0  0.594294  0  1.387082  0  0  0.460154  0  1.811749  0  0  0.487578  0  1.768792  0  0  0.506876  0.441359  0  1.841567  0
Ag  Ag1  1  0.05505792  0.86822356  0.28449843  1  0  0.594254  0  1.387039  0  0  0.460161  0  1.811661  0  0  0.487585  0  1.768706  0  0  0.506882  0.441367  0  1.841479  0
Ag  Ag2  1  0.55504740  0.36822768  0.21549865  1  0  0.594266  0  1.387012  0  0  0.460119  0  1.811635  0  0  0.487544  0  1.768682  0  0  0.506854  0.441328  0  1.841452  0
Ag  Ag3  1  0.94494470  0.13177596  0.71550212  1  0  0.594315  0  1.387009  0  0  0.460176  0  1.811656  0  0  0.4876  0  1.768702  0  0  0.506891  0.44138  0  1.841474  0
H  H4  1  0.66633881  0.64465476  0.95854010  1  0  0.091364  0  0.930825  0  0  0.101443  0  0.992879  0  0  0.103697  0  0.989463  0  0  0.122778  0.099568  0  0.995588  0
H  H5  1  0.83366536  0.85534350  0.45853746  1  0  0.091405  0  0.930809  0  0  0.101481  0  0.992858  0  0  0.103736  0  0.989439  0  0  0.122799  0.099605  0  0.995566  0
H  H6  1  0.33364394  0.35534482  0.04145577  1  0  0.091408  0  0.930729  0  0  0.10148  0  0.992762  0  0  0.103739  0  0.989333  0  0  0.122781  0.099607  0  0.995467  0
H  H7  1  0.16634083  0.14465707  0.54146309  1  0  0.091399  0  0.930742  0  0  0.101471  0  0.992808  0  0  0.10373  0  0.989384  0  0  0.122797  0.099595  0  0.995518  0
H  H8  1  0.91847498  0.77749583  0.01573178  1  0  0.132888  0  0.986453  0  0  0.142484  0  1.046292  0  0  0.146135  0  1.045927  0  0  0.108965  0.139839  0  1.046788  0
H  H9  1  0.58153239  0.72250489  0.51573101  1  0  0.13295  0  0.986397  0  0  0.142524  0  1.046249  0  0  0.14618  0  1.045871  0  0  0.108987  0.139884  0  1.046747  0
H  H10  1  0.08150763  0.22250163  0.98426876  1  0  0.132823  0  0.986535  0  0  0.142416  0  1.046378  0  0  0.146072  0  1.046005  0  0  0.108916  0.139771  0  1.046871  0
H  H11  1  0.41847380  0.27749568  0.48427031  1  0  0.132948  0  0.986388  0  0  0.142545  0  1.046227  0  0  0.146197  0  1.045865  0  0  0.108991  0.1399  0  1.046726  0
H  H12  1  0.01168767  0.98458270  0.90538124  1  0  0.072607  0  0.947377  0  0  0.084893  0  1.013091  0  0  0.086264  0  1.01062  0  0  0.119572  0.083763  0  1.015007  0
H  H13  1  0.48831949  0.51541684  0.40538083  1  0  0.072617  0  0.947394  0  0  0.084913  0  1.013086  0  0  0.086282  0  1.010613  0  0  0.119604  0.083785  0  1.015001  0
H  H14  1  0.98830862  0.01540944  0.09462008  1  0  0.07262  0  0.947485  0  0  0.084912  0  1.013188  0  0  0.086281  0  1.010714  0  0  0.119585  0.083784  0  1.015106  0
H  H15  1  0.51168546  0.48458267  0.59462284  1  0  0.072588  0  0.947415  0  0  0.084885  0  1.013106  0  0  0.086255  0  1.010628  0  0  0.119572  0.083755  0  1.015022  0
H  H16  1  0.25320743  0.85417111  0.89693787  1  0  0.098175  0  0.974852  0  0  0.107807  0  1.03894  0  0  0.111484  0  1.035579  0  0  0.100688  0.105051  0  1.04155  0
H  H17  1  0.24679494  0.64582740  0.39693978  1  0  0.098183  0  0.974822  0  0  0.107782  0  1.038935  0  0  0.111457  0  1.035579  0  0  0.10068  0.105028  0  1.041545  0
H  H18  1  0.74679395  0.14582736  0.10306268  1  0  0.098195  0  0.974865  0  0  0.107787  0  1.03898  0  0  0.111462  0  1.035625  0  0  0.100698  0.105033  0  1.041591  0
H  H19  1  0.75320871  0.35417001  0.60306155  1  0  0.098185  0  0.974845  0  0  0.107814  0  1.038935  0  0  0.111493  0  1.035572  0  0  0.100698  0.105059  0  1.041546  0
H  H20  1  0.52634899  0.75448686  0.21250238  1  0  0.100325  0  0.976478  0  0  0.109541  0  1.03816  0  0  0.112221  0  1.037448  0  0  0.100884  0.107583  0  1.038821  0
H  H21  1  0.97365144  0.74551372  0.71250275  1  0  0.100345  0  0.976441  0  0  0.10957  0  1.038106  0  0  0.112251  0  1.037391  0  0  0.100879  0.107587  0  1.038788  0
H  H22  1  0.47365245  0.24551266  0.78749582  1  0  0.100325  0  0.976459  0  0  0.109556  0  1.038111  0  0  0.112235  0  1.0374  0  0  0.100878  0.107575  0  1.038794  0
H  H23  1  0.02635001  0.25448580  0.28749780  1  0  0.100312  0  0.976487  0  0  0.109537  0  1.038156  0  0  0.112219  0  1.037438  0  0  0.100883  0.107561  0  1.038835  0
H  H24  1  0.27527140  0.04242026  0.76561145  1  0  0.100811  0  0.992688  0  0  0.107099  0  1.06163  0  0  0.110772  0  1.059213  0  0  0.095818  0.104441  0  1.06348  0
H  H25  1  0.22473312  0.45757610  0.26561543  1  0  0.1008  0  0.992705  0  0  0.107102  0  1.06165  0  0  0.110774  0  1.059233  0  0  0.095809  0.104445  0  1.063503  0
H  H26  1  0.72473341  0.95757714  0.23438676  1  0  0.100785  0  0.992696  0  0  0.107086  0  1.061637  0  0  0.110759  0  1.05922  0  0  0.095801  0.104429  0  1.063489  0
H  H27  1  0.77527052  0.54242130  0.73438667  1  0  0.100809  0  0.992692  0  0  0.10711  0  1.061626  0  0  0.110782  0  1.05921  0  0  0.095827  0.104452  0  1.063477  0
H  H28  1  0.52469259  0.86266087  0.65967144  1  0  0.345109  0  0.918847  0  0  0.326164  0  0.984566  0  0  0.334298  0  0.977102  0  0  0.298502  0.320389  0  0.989842  0
H  H29  1  0.97531088  0.63733763  0.15967091  1  0  0.345237  0  0.91863  0  0  0.326302  0  0.984338  0  0  0.334436  0  0.976872  0  0  0.298557  0.320528  0  0.989614  0
H  H30  1  0.47530680  0.13734288  0.34032443  1  0  0.345219  0  0.918673  0  0  0.326257  0  0.984432  0  0  0.334392  0  0.976964  0  0  0.298509  0.320483  0  0.989709  0
H  H31  1  0.02469174  0.36266189  0.84033041  1  0  0.345099  0  0.918848  0  0  0.326169  0  0.984543  0  0  0.334302  0  0.97708  0  0  0.298503  0.320393  0  0.989819  0
H  H32  1  0.67577857  0.99270871  0.63501261  1  0  0.352165  0  0.8948  0  0  0.335571  0  0.954905  0  0  0.343157  0  0.948397  0  0  0.30416  0.330175  0  0.959519  0
H  H33  1  0.82422701  0.50728875  0.13501173  1  0  0.352216  0  0.894803  0  0  0.335668  0  0.954847  0  0  0.343249  0  0.948345  0  0  0.304195  0.330272  0  0.959463  0
H  H34  1  0.32422433  0.00729503  0.36498404  1  0  0.35219  0  0.894865  0  0  0.335617  0  0.954936  0  0  0.343202  0  0.948428  0  0  0.304175  0.330222  0  0.959551  0
H  H35  1  0.17577787  0.49270971  0.86498960  1  0  0.352372  0  0.894774  0  0  0.335803  0  0.954831  0  0  0.34339  0  0.948321  0  0  0.304257  0.330406  0  0.959449  0
C  C36  1  0.69945675  0.88128809  0.77038016  1  0  0.626646  0  3.813334  0  0  0.57714  0  4.079212  0  0  0.603073  0  4.091128  0  0  0.350783  0.559811  0  4.070649  0
C  C37  1  0.80054727  0.61870820  0.27037991  1  0  0.626702  0  3.813034  0  0  0.577244  0  4.078815  0  0  0.603175  0  4.090728  0  0  0.35084  0.559917  0  4.070258  0
C  C38  1  0.30054016  0.11871355  0.22961649  1  0  0.626522  0  3.813551  0  0  0.57703  0  4.079427  0  0  0.602963  0  4.091341  0  0  0.350736  0.559704  0  4.070867  0
C  C39  1  0.19945521  0.38128920  0.72962064  1  0  0.626738  0  3.813109  0  0  0.577237  0  4.078975  0  0  0.603168  0  4.090888  0  0  0.350823  0.559909  0  4.070417  0
C  C40  1  0.71639163  0.73545755  0.91564590  1  0  0.211003  0  3.684617  0  0  0.17073  0  3.934412  0  0  0.186319  0  3.949354  0  0  0.066838  0.160523  0  3.924266  0
C  C41  1  0.78361448  0.76453862  0.41564551  1  0  0.210862  0  3.684746  0  0  0.170597  0  3.934543  0  0  0.186184  0  3.949493  0  0  0.066789  0.160393  0  3.924397  0
C  C42  1  0.28359229  0.26454202  0.08435153  1  0  0.21089  0  3.68479  0  0  0.170674  0  3.934507  0  0  0.186264  0  3.949454  0  0  0.066856  0.160469  0  3.924363  0
C  C43  1  0.21639171  0.23546195  0.58435582  1  0  0.210986  0  3.684547  0  0  0.170708  0  3.934342  0  0  0.186296  0  3.949288  0  0  0.066847  0.160502  0  3.924199  0
C  C44  1  0.85313252  0.80821848  0.94771666  1  0  -0.218774  0  3.733476  0  0  -0.229495  0  3.984488  0  0  -0.245166  0  4.007067  0  0  -0.104426  -0.21947  0  3.969564  0
C  C45  1  0.64687379  0.69177766  0.44771591  1  0  -0.218794  0  3.733479  0  0  -0.229501  0  3.984508  0  0  -0.245172  0  4.007093  0  0  -0.104428  -0.219483  0  3.969592  0
C  C46  1  0.14685367  0.19178003  0.05228389  1  0  -0.218741  0  3.733399  0  0  -0.229487  0  3.984393  0  0  -0.245162  0  4.006981  0  0  -0.104468  -0.219458  0  3.969475  0
C  C47  1  0.35313350  0.30822184  0.55228697  1  0  -0.218916  0  3.733316  0  0  -0.229657  0  3.984361  0  0  -0.245328  0  4.006935  0  0  -0.104534  -0.219632  0  3.969446  0
C  C48  1  0.90578634  0.92102726  0.88599205  1  0  0.204796  0  3.701579  0  0  0.166006  0  3.951344  0  0  0.181313  0  3.965961  0  0  0.064848  0.155932  0  3.941471  0
C  C49  1  0.59421847  0.57897000  0.38599044  1  0  0.20485  0  3.701297  0  0  0.166027  0  3.951058  0  0  0.181338  0  3.965669  0  0  0.064859  0.155955  0  3.941191  0
C  C50  1  0.09420541  0.07896701  0.11400927  1  0  0.204802  0  3.701338  0  0  0.166037  0  3.951114  0  0  0.181348  0  3.965727  0  0  0.0649  0.155956  0  3.941252  0
C  C51  1  0.40578648  0.42102951  0.61401166  1  0  0.204939  0  3.701192  0  0  0.166151  0  3.950968  0  0  0.181462  0  3.965576  0  0  0.064928  0.156078  0  3.941098  0
C  C52  1  0.33970148  0.94177662  0.90672086  1  0  -0.116163  0  3.748857  0  0  -0.14276  0  4.011752  0  0  -0.143322  0  4.029754  0  0  -0.095706  -0.142151  0  3.999404  0
C  C53  1  0.16029992  0.55822399  0.40672258  1  0  -0.116201  0  3.748879  0  0  -0.142762  0  4.011789  0  0  -0.143324  0  4.029793  0  0  -0.09571  -0.142154  0  3.999447  0
C  C54  1  0.66030011  0.05822502  0.09327890  1  0  -0.11626  0  3.748957  0  0  -0.142818  0  4.011868  0  0  -0.143379  0  4.029869  0  0  -0.095764  -0.142212  0  3.999527  0
C  C55  1  0.83969919  0.44177553  0.59327797  1  0  -0.11622  0  3.748909  0  0  -0.142816  0  4.011816  0  0  -0.143378  0  4.02982  0  0  -0.095763  -0.142209  0  3.999474  0
C  C56  1  0.44149138  0.94250006  0.99412440  1  0  0.055684  0  3.742076  0  0  0.063161  0  3.972346  0  0  0.063522  0  3.99778  0  0  -0.007258  0.062866  0  3.955201  0
C  C57  1  0.05851050  0.55749943  0.49412426  1  0  0.055626  0  3.742044  0  0  0.063104  0  3.972303  0  0  0.063464  0  3.997735  0  0  -0.007279  0.062809  0  3.955159  0
C  C58  1  0.55851131  0.05750052  0.00587614  1  0  0.055606  0  3.742064  0  0  0.063076  0  3.972318  0  0  0.063434  0  3.99775  0  0  -0.007292  0.062781  0  3.955176  0
C  C59  1  0.94148971  0.44249904  0.50587706  1  0  0.055621  0  3.74198  0  0  0.063088  0  3.972246  0  0  0.063447  0  3.997676  0  0  -0.007288  0.062793  0  3.955104  0
C  C60  1  0.43545246  0.83266699  0.07066034  1  0  -0.161889  0  3.677107  0  0  -0.138626  0  3.922397  0  0  -0.146347  0  3.944754  0  0  -0.019551  -0.133669  0  3.907529  0
C  C61  1  0.06454915  0.66733390  0.57066033  1  0  -0.161833  0  3.677027  0  0  -0.138559  0  3.922304  0  0  -0.146278  0  3.944657  0  0  -0.019546  -0.133603  0  3.907426  0
C  C62  1  0.56455022  0.16733358  0.92933943  1  0  -0.161844  0  3.677086  0  0  -0.138542  0  3.922317  0  0  -0.146253  0  3.944659  0  0  -0.019558  -0.133587  0  3.907445  0
C  C63  1  0.93545229  0.33266563  0.42933943  1  0  -0.161857  0  3.677011  0  0  -0.138554  0  3.922248  0  0  -0.146265  0  3.944587  0  0  -0.019535  -0.133598  0  3.907377  0
C  C64  1  0.53618772  0.83860214  0.15494001  1  0  -0.057081  0  3.753856  0  0  -0.084567  0  4.005221  0  0  -0.082517  0  4.024057  0  0  -0.091468  -0.085654  0  3.992321  0
C  C65  1  0.96381351  0.66139848  0.65493962  1  0  -0.057056  0  3.753835  0  0  -0.084547  0  4.005171  0  0  -0.0825  0  4.024009  0  0  -0.09141  -0.085613  0  3.992278  0
C  C66  1  0.46381613  0.16139843  0.84505897  1  0  -0.057045  0  3.753893  0  0  -0.084551  0  4.005225  0  0  -0.082506  0  4.024059  0  0  -0.091404  -0.085619  0  3.992337  0
C  C67  1  0.03618800  0.33860210  0.34506014  1  0  -0.057004  0  3.753864  0  0  -0.084498  0  4.005193  0  0  -0.082452  0  4.024028  0  0  -0.091438  -0.085571  0  3.992304  0
C  C68  1  0.35166127  0.04812419  0.83350446  1  0  -0.066054  0  3.759229  0  0  -0.08151  0  4.020238  0  0  -0.083957  0  4.039399  0  0  -0.098813  -0.079808  0  4.007031  0
C  C69  1  0.14834265  0.45187423  0.33350667  1  0  -0.06605  0  3.759169  0  0  -0.081538  0  4.020187  0  0  -0.083984  0  4.039346  0  0  -0.098785  -0.079839  0  4.00699  0
C  C70  1  0.64834368  0.95187532  0.16649452  1  0  -0.065961  0  3.759071  0  0  -0.081436  0  4.02007  0  0  -0.08388  0  4.039223  0  0  -0.098749  -0.079738  0  4.006878  0
C  C71  1  0.85165982  0.54812318  0.66649388  1  0  -0.066049  0  3.759218  0  0  -0.081522  0  4.020227  0  0  -0.083969  0  4.039389  0  0  -0.098808  -0.079818  0  4.007016  0
S  S72  1  0.29587888  0.68275043  0.06624004  1  0  1.31168  0  5.631649  0  0  1.218315  0  6.147369  0  0  1.265816  0  6.124124  0  0  0.505594  1.185655  0  6.162023  0
S  S73  1  0.20412380  0.81724940  0.56623957  1  0  1.311686  0  5.631624  0  0  1.218311  0  6.147342  0  0  1.265812  0  6.124097  0  0  0.505593  1.185652  0  6.161992  0
S  S74  1  0.70412146  0.31725015  0.93376051  1  0  1.311664  0  5.631714  0  0  1.218292  0  6.14741  0  0  1.265792  0  6.124166  0  0  0.505597  1.185633  0  6.162064  0
S  S75  1  0.79587764  0.18275012  0.43376020  1  0  1.311721  0  5.631637  0  0  1.218346  0  6.147343  0  0  1.265845  0  6.124093  0  0  0.50559  1.185687  0  6.161996  0
N  N76  1  0.62824412  0.91410565  0.68174347  1  0  -0.687602  0  3.089961  0  0  -0.646592  0  3.316445  0  0  -0.670289  0  3.314263  0  0  -0.562177  -0.630197  0  3.317616  0
N  N77  1  0.87176058  0.58589177  0.18174267  1  0  -0.687808  0  3.089738  0  0  -0.646881  0  3.316169  0  0  -0.670572  0  3.313988  0  0  -0.562309  -0.630484  0  3.317345  0
N  N78  1  0.37175300  0.08589916  0.31825396  1  0  -0.687717  0  3.08989  0  0  -0.646747  0  3.316393  0  0  -0.670453  0  3.314231  0  0  -0.562235  -0.630342  0  3.317554  0
N  N79  1  0.12824313  0.41410669  0.81825865  1  0  -0.687821  0  3.089873  0  0  -0.646868  0  3.316349  0  0  -0.670566  0  3.314161  0  0  -0.562302  -0.63047  0  3.317525  0
N  N80  1  0.64027245  0.77041843  0.82861164  1  0  -0.457147  0  3.265483  0  0  -0.364713  0  3.544467  0  0  -0.392183  0  3.55797  0  0  -0.357917  -0.34646  0  3.535091  0
N  N81  1  0.85973194  0.72957781  0.32861149  1  0  -0.457061  0  3.265384  0  0  -0.364666  0  3.544363  0  0  -0.392132  0  3.557863  0  0  -0.357922  -0.346414  0  3.534989  0
N  N82  1  0.35971635  0.22958429  0.17138423  1  0  -0.456987  0  3.265682  0  0  -0.364565  0  3.544609  0  0  -0.392038  0  3.558116  0  0  -0.357785  -0.346313  0  3.535236  0
N  N83  1  0.14027171  0.27041959  0.67138983  1  0  -0.457136  0  3.265453  0  0  -0.364673  0  3.544403  0  0  -0.392142  0  3.557906  0  0  -0.357908  -0.34642  0  3.535029  0
N  N84  1  0.83115490  0.95875634  0.79927797  1  0  -0.44879  0  3.258723  0  0  -0.359433  0  3.539139  0  0  -0.386034  0  3.551179  0  0  -0.35905  -0.341734  0  3.530901  0
N  N85  1  0.66885054  0.54124098  0.29927661  1  0  -0.448871  0  3.258485  0  0  -0.359443  0  3.538793  0  0  -0.386041  0  3.550824  0  0  -0.359066  -0.341745  0  3.530562  0
N  N86  1  0.16884304  0.04124319  0.20072258  1  0  -0.448664  0  3.258681  0  0  -0.359374  0  3.539153  0  0  -0.385972  0  3.551186  0  0  -0.359048  -0.341675  0  3.530921  0
N  N87  1  0.33115318  0.45875747  0.70072550  1  0  -0.448907  0  3.25854  0  0  -0.35954  0  3.538961  0  0  -0.386138  0  3.55099  0  0  -0.359086  -0.341842  0  3.53073  0
O  O88  1  0.35021238  0.58406932  0.14396581  1  0  -0.67257  0  2.006324  0  0  -0.625626  0  2.274853  0  0  -0.646147  0  2.259149  0  0  -0.342665  -0.61094  0  2.284983  0
O  O89  1  0.14978860  0.91593257  0.64396512  1  0  -0.672596  0  2.006197  0  0  -0.625659  0  2.274726  0  0  -0.646182  0  2.259023  0  0  -0.34271  -0.610962  0  2.284826  0
O  O90  1  0.64978694  0.41593338  0.85603551  1  0  -0.672594  0  2.006297  0  0  -0.625663  0  2.274834  0  0  -0.646186  0  2.259134  0  0  -0.34271  -0.610968  0  2.284936  0
O  O91  1  0.85021284  0.08406696  0.35603465  1  0  -0.672591  0  2.006276  0  0  -0.62566  0  2.274807  0  0  -0.646182  0  2.259104  0  0  -0.342683  -0.610968  0  2.284922  0
O  O92  1  0.29625441  0.62502969  0.95910669  1  0  -0.70613  0  2.018329  0  0  -0.646635  0  2.289919  0  0  -0.667554  0  2.270037  0  0  -0.358041  -0.631782  0  2.302999  0
O  O93  1  0.20375550  0.87497085  0.45910677  1  0  -0.706156  0  2.018348  0  0  -0.646651  0  2.289926  0  0  -0.667569  0  2.270045  0  0  -0.358048  -0.631801  0  2.303006  0
O  O94  1  0.70374814  0.37496877  0.04089463  1  0  -0.706098  0  2.018397  0  0  -0.646608  0  2.289976  0  0  -0.667529  0  2.270099  0  0  -0.358017  -0.631755  0  2.303053  0
O  O95  1  0.79625310  0.12503076  0.54089378  1  0  -0.706137  0  2.018361  0  0  -0.646637  0  2.289944  0  0  -0.667558  0  2.270066  0  0  -0.35803  -0.631779  0  2.303012  0
O  O96  1  0.14288591  0.73892695  0.09247009  1  0  -0.705361  0  2.018396  0  0  -0.65058  0  2.282964  0  0  -0.672169  0  2.267171  0  0  -0.349259  -0.635126  0  2.293114  0
O  O97  1  0.35711468  0.76107392  0.59247243  1  0  -0.70533  0  2.018417  0  0  -0.650537  0  2.282995  0  0  -0.672123  0  2.267188  0  0  -0.349222  -0.635088  0  2.293149  0
O  O98  1  0.85711451  0.26107469  0.90752734  1  0  -0.705356  0  2.018394  0  0  -0.650572  0  2.282971  0  0  -0.672157  0  2.267166  0  0  -0.349254  -0.63512  0  2.293124  0
O  O99  1  0.64288567  0.23892666  0.40752811  1  0  -0.705407  0  2.018385  0  0  -0.650603  0  2.282953  0  0  -0.672192  0  2.26716  0  0  -0.34925  -0.635152  0  2.293106  0
