# generated using pymatgen
data_CoH4C16S2N3O5F12
_symmetry_space_group_name_H-M   'P 1'
_cell_length_a   8.42911122
_cell_length_b   12.24477106
_cell_length_c   12.29603679
_cell_angle_alpha   106.81555837
_cell_angle_beta   111.45174183
_cell_angle_gamma   90.58627170
_symmetry_Int_Tables_number   1
_chemical_formula_structural   CoH4C16S2N3O5F12
_chemical_formula_sum   'Co2 H8 C32 S4 N6 O10 F24'
_cell_volume   1121.05255059
_cell_formula_units_Z   2
loop_
 _symmetry_equiv_pos_site_id
 _symmetry_equiv_pos_as_xyz
  1  'x, y, z'
loop_
 _atom_site_type_symbol
 _atom_site_label
 _atom_site_symmetry_multiplicity
 _atom_site_fract_x
 _atom_site_fract_y
 _atom_site_fract_z
 _atom_site_occupancy
 _atom_site_hle17_ddec_charge
 _atom_site_hle17_ddec_spin_density
 _atom_site_hle17_ddec_sum_bond_order
 _atom_site_hle17_magmom
 _atom_site_hse06_10hf_ddec_charge
 _atom_site_hse06_10hf_ddec_spin_density
 _atom_site_hse06_10hf_ddec_sum_bond_order
 _atom_site_hse06_10hf_magmom
 _atom_site_hse06_ddec_charge
 _atom_site_hse06_ddec_spin_density
 _atom_site_hse06_ddec_sum_bond_order
 _atom_site_hse06_magmom
 _atom_site_pbe_cm5_charge
 _atom_site_pbe_ddec_charge
 _atom_site_pbe_ddec_spin_density
 _atom_site_pbe_ddec_sum_bond_order
 _atom_site_pbe_magmom
Co  Co0  1  0.49999605  0.99999827  0.49999931  1  1.061605  3.109963  2.237708  2.586  0.853877  1.154872  2.767622  1.014  0.916862  1.109856  2.687563  0.994  0.633032  0.811966  1.153391  2.820124  1.003
Co  Co1  1  0.00000122  0.50000023  0.00000092  1  1.087146  -3.13859  2.314663  -2.629  0.893315  -1.137442  2.82922  -1.0  0.947454  -1.089848  2.755052  -0.975  0.67059  0.860537  -1.13802  2.875301  -0.992
H  H2  1  0.68138648  0.49394893  0.21637759  1  0.150494  -0.000112  0.931544  0.0  0.154974  1e-05  0.995022  0.0  0.159294  6e-06  0.991145  0.0  0.115651  0.151602  1.1e-05  0.998165  0.0
H  H3  1  0.31860908  0.50604962  0.78362864  1  0.150576  -0.000111  0.931405  0.0  0.154943  1e-05  0.99504  0.0  0.15919  6e-06  0.991369  0.0  0.115638  0.151572  1.2e-05  0.998181  0.0
H  H4  1  0.97024576  0.63187840  0.39376367  1  0.152117  4.6e-05  0.94358  0.0  0.155894  -3.9e-05  1.008203  0.0  0.160087  -2.9e-05  1.004824  0.0  0.11181  0.152939  -5.4e-05  1.01051  0.0
H  H5  1  0.02974994  0.36811501  0.60623858  1  0.152077  4.6e-05  0.943667  0.0  0.155847  -3.9e-05  1.008292  0.0  0.159903  -2.9e-05  1.005157  0.0  0.111791  0.152891  -5.2e-05  1.010597  0.0
H  H6  1  0.46685596  0.15563476  0.22137999  1  0.146461  -0.000138  0.982113  -0.001  0.148217  7.8e-05  1.0553  0.0  0.152826  4.8e-05  1.054778  0.0  0.098891  0.144807  8.5e-05  1.0562  0.0
H  H7  1  0.53314292  0.84436903  0.77862210  1  0.146544  -0.000139  0.982023  -0.001  0.148185  7.8e-05  1.055375  0.0  0.152805  4.8e-05  1.054833  0.0  0.098881  0.144775  8.4e-05  1.056275  0.0
H  H8  1  0.76660743  0.76646528  0.85772253  1  0.135958  0.000454  0.990498  0.001  0.134968  -5.5e-05  1.071541  0.0  0.139139  -3.2e-05  1.071809  0.0  0.094763  0.132246  -5.6e-05  1.071282  0.0
H  H9  1  0.23339414  0.23353337  0.14227618  1  0.13592  0.000454  0.99053  0.001  0.134944  -5.5e-05  1.071554  0.0  0.138899  -3.2e-05  1.072298  0.0  0.094778  0.132221  -5.4e-05  1.071299  0.0
C  C10  1  0.88112904  0.86227530  0.50974124  1  0.315536  -0.00348  3.913334  -0.006  0.285926  0.000258  4.205197  0.0  0.302136  4.1e-05  4.219252  0.0  0.214343  0.274794  0.000424  4.195113  0.001
C  C11  1  0.11886584  0.13772072  0.49025999  1  0.315493  -0.003466  3.913423  -0.006  0.285881  0.000257  4.205315  0.0  0.301933  4e-05  4.219819  0.0  0.214342  0.27475  0.000417  4.195227  0.0
C  C12  1  0.78787518  0.75625802  0.41417113  1  0.164463  0.00558  3.680363  0.007  0.144968  0.001231  3.963988  0.002  0.150803  0.001326  3.978862  0.002  0.083802  0.14078  0.001219  3.95446  0.002
C  C13  1  0.21212260  0.24374063  0.58582750  1  0.164535  0.005573  3.680371  0.007  0.145017  0.001231  3.963988  0.002  0.150836  0.001324  3.978861  0.002  0.083834  0.140829  0.001222  3.954458  0.002
C  C14  1  0.55530332  0.64485120  0.27307673  1  0.161306  -0.006056  3.798513  -0.009  0.147642  -0.00166  4.081743  -0.002  0.153292  -0.001749  4.092109  -0.002  0.082042  0.1433  -0.001677  4.0763  -0.002
C  C15  1  0.44468909  0.35514664  0.72691796  1  0.161364  -0.006048  3.798323  -0.009  0.147597  -0.001659  4.081626  -0.002  0.153249  -0.001748  4.091956  -0.002  0.082056  0.143255  -0.00168  4.076176  -0.002
C  C16  1  0.68989911  0.58087051  0.27501386  1  -0.110183  0.005673  3.667302  0.007  -0.153363  0.001044  3.946916  0.001  -0.151756  0.001215  3.959176  0.001  -0.084907  -0.154494  0.000919  3.939327  0.001
C  C17  1  0.31009109  0.41912813  0.72498464  1  -0.110065  0.005663  3.66721  0.007  -0.1533  0.001043  3.947088  0.001  -0.151799  0.001213  3.959618  0.001  -0.084866  -0.154433  0.000937  3.939491  0.001
C  C18  1  0.83985913  0.65282774  0.36634570  1  -0.128678  -0.0043  3.652738  -0.005  -0.167277  -0.000659  3.932154  -0.001  -0.169747  -0.000792  3.947342  -0.001  -0.09258  -0.165643  -0.000617  3.92197  -0.001
C  C19  1  0.16014006  0.34717178  0.63365272  1  -0.128611  -0.004292  3.652922  -0.005  -0.167173  -0.000659  3.932296  -0.001  -0.169655  -0.000792  3.947613  -0.001  -0.092531  -0.165535  -0.000637  3.922131  -0.001
C  C20  1  0.37769914  0.62131017  0.20495059  1  0.312478  0.008299  3.692628  0.008  0.271557  -0.003019  3.986881  -0.007  0.286309  -0.001841  3.998118  -0.005  0.206117  0.260815  -0.004388  3.980939  -0.009
C  C21  1  0.62230617  0.37868758  0.79505115  1  0.312658  0.008301  3.692771  0.008  0.271778  -0.003012  3.98704  -0.007  0.286521  -0.001836  3.998271  -0.005  0.206304  0.261043  -0.00438  3.981092  -0.009
C  C22  1  0.55255232  0.18211596  0.41581522  1  0.27054  -0.034454  3.791586  -0.044  0.247927  -0.009401  4.057188  -0.011  0.278308  -0.005741  4.058993  -0.007  0.108212  0.227465  -0.010863  4.056234  -0.013
C  C23  1  0.44745348  0.81788438  0.58418661  1  0.270605  -0.034471  3.791451  -0.044  0.24792  -0.009403  4.057215  -0.011  0.278345  -0.005742  4.058923  -0.007  0.108184  0.227469  -0.010881  4.056261  -0.013
C  C24  1  0.47537270  0.11650224  0.29161194  1  -0.338096  0.020073  3.771821  0.028  -0.389252  0.001085  4.053403  0.002  -0.413108  0.000882  4.069277  0.002  -0.15254  -0.374328  0.000959  4.043888  0.003
C  C25  1  0.52462687  0.88349807  0.70839168  1  -0.337985  0.020096  3.771579  0.028  -0.389162  0.001086  4.053369  0.002  -0.412909  0.000882  4.068975  0.002  -0.152465  -0.37425  0.000987  4.043853  0.003
C  C26  1  0.40691525  0.00155378  0.25697692  1  0.25866  -0.034403  3.80979  -0.044  0.237021  -0.00945  4.073851  -0.011  0.267481  -0.005772  4.075267  -0.007  0.104672  0.21653  -0.010918  4.0732  -0.013
C  C27  1  0.59307761  0.99844574  0.74302084  1  0.258571  -0.034434  3.809742  -0.044  0.23694  -0.009452  4.073891  -0.011  0.267409  -0.005771  4.075258  -0.007  0.104645  0.216456  -0.010917  4.07324  -0.013
C  C28  1  0.60162370  0.31218107  0.44852692  1  0.722904  0.004366  3.642071  0.008  0.650305  -0.000896  3.982974  -0.001  0.676776  -0.000539  3.956342  0.0  0.302503  0.631282  -0.001041  4.002386  -0.001
C  C29  1  0.39838654  0.68782089  0.55148295  1  0.723362  0.004365  3.641185  0.008  0.650274  -0.000896  3.983025  -0.001  0.676745  -0.00054  3.956367  0.0  0.302497  0.631213  -0.001052  4.002522  -0.001
C  C30  1  0.30081930  0.93875750  0.12007030  1  0.720019  0.0043  3.652766  0.008  0.64881  -0.000917  3.990576  -0.001  0.675325  -0.000554  3.963402  0.0  0.297816  0.629702  -0.001073  4.010321  -0.001
C  C31  1  0.69916926  0.06124636  0.87992614  1  0.720272  0.004301  3.65246  0.008  0.648992  -0.000917  3.99045  -0.001  0.675564  -0.000553  3.963183  0.0  0.297918  0.629878  -0.001082  4.010197  -0.001
C  C32  1  0.78436710  0.67271175  0.98409522  1  0.253759  0.034164  3.831189  0.044  0.234278  0.009345  4.095404  0.011  0.263046  0.005756  4.09972  0.007  0.104937  0.215161  0.010397  4.093139  0.012
C  C33  1  0.21563842  0.32728776  0.01590386  1  0.253738  0.034163  3.831285  0.044  0.234241  0.009344  4.095519  0.011  0.263007  0.005755  4.099878  0.007  0.104952  0.215123  0.010399  4.093244  0.012
C  C34  1  0.82839975  0.70132422  0.89581995  1  -0.326752  -0.023198  3.772733  -0.032  -0.385416  -0.00056  4.061792  -0.002  -0.408954  -0.000567  4.07875  -0.001  -0.151165  -0.370427  -9.2e-05  4.050027  -0.002
C  C35  1  0.17161280  0.29867781  0.10418478  1  -0.326736  -0.023208  3.77259  -0.032  -0.385384  -0.00056  4.061637  -0.002  -0.409126  -0.000566  4.07917  -0.001  -0.151216  -0.370409  -0.000106  4.049878  -0.002
C  C36  1  0.95286407  0.64879467  0.85610393  1  0.268345  0.034475  3.803681  0.044  0.244726  0.009504  4.074553  0.011  0.274039  0.005875  4.077158  0.007  0.111105  0.225845  0.010534  4.071918  0.012
C  C37  1  0.04714169  0.35120568  0.14389709  1  0.268571  0.034481  3.803522  0.044  0.244899  0.009504  4.074388  0.011  0.274469  0.005874  4.076651  0.007  0.111147  0.22602  0.010533  4.071749  0.012
C  C38  1  0.63938671  0.72709499  0.01854843  1  0.723834  -0.004435  3.638792  -0.008  0.649738  0.000887  3.979087  0.001  0.677157  0.000459  3.951186  0.0  0.303531  0.628934  0.001038  4.001326  0.001
C  C39  1  0.36062416  0.27291226  0.98145343  1  0.723688  -0.004435  3.639169  -0.008  0.64962  0.000887  3.979489  0.001  0.677013  0.000458  3.951591  0.0  0.30341  0.62883  0.001045  4.00171  0.001
C  C40  1  0.00015367  0.68778613  0.76231533  1  0.727336  -0.004606  3.629561  -0.008  0.652996  0.000764  3.973633  0.001  0.680929  0.000365  3.944298  0.0  0.302612  0.63344  0.00089  3.993716  0.001
C  C41  1  0.99984641  0.31221167  0.23768196  1  0.726988  -0.004607  3.630168  -0.008  0.652864  0.000764  3.973905  0.001  0.680816  0.000365  3.944184  0.0  0.302576  0.633311  0.000896  3.993987  0.001
S  S42  1  0.92468134  0.06906572  0.64390393  1  0.284103  0.007169  2.517247  0.009  0.25371  0.000711  2.888994  0.001  0.263925  0.000295  2.890925  0.0  0.223159  0.245842  0.001265  2.888712  0.001
S  S43  1  0.07532432  0.93093375  0.35609842  1  0.284054  0.007121  2.517389  0.009  0.253681  0.000718  2.889137  0.001  0.263874  0.000303  2.891145  0.0  0.223141  0.245817  0.001263  2.888851  0.001
S  S44  1  0.14981253  0.98587379  0.67186421  1  0.258401  0.006884  2.574367  0.007  0.222554  0.002685  2.96672  0.003  0.230571  0.001642  2.969189  0.002  0.210301  0.216036  0.00399  2.965879  0.005
S  S45  1  0.85019114  0.01412225  0.32813581  1  0.258475  0.006832  2.574448  0.007  0.222611  0.002692  2.966796  0.003  0.230577  0.001651  2.969468  0.002  0.210326  0.216091  0.003979  2.965954  0.005
N  N46  1  0.79901583  0.95456636  0.53614925  1  -0.435334  0.028972  3.037295  0.044  -0.393905  0.02006  3.3412  0.028  -0.412907  0.016517  3.351824  0.023  -0.30603  -0.379625  0.024039  3.33347  0.033
N  N47  1  0.20098842  0.04543315  0.46384953  1  -0.435329  0.028933  3.037373  0.044  -0.393916  0.020068  3.341308  0.028  -0.412967  0.016525  3.352119  0.023  -0.30603  -0.379635  0.02405  3.333574  0.033
N  N48  1  0.05170701  0.86603126  0.56446443  1  -0.389143  0.008038  2.993887  0.012  -0.365374  0.00106  3.307039  0.001  -0.382432  0.000758  3.322125  0.001  -0.311303  -0.352974  0.001727  3.296072  0.002
N  N49  1  0.94829152  0.13396481  0.43553360  1  -0.389152  0.007997  2.99412  0.012  -0.365364  0.001065  3.307247  0.001  -0.382525  0.000763  3.322614  0.001  -0.311293  -0.352966  0.001734  3.296281  0.002
N  N50  1  0.22943515  0.60143616  0.14855985  1  -0.380267  -0.034655  2.795522  -0.052  -0.345607  -0.02715  3.071578  -0.035  -0.357205  -0.023367  3.074697  -0.031  -0.291019  -0.338889  -0.030932  3.070395  -0.04
N  N51  1  0.77054983  0.39856346  0.85143041  1  -0.380412  -0.034645  2.79593  -0.052  -0.345765  -0.027147  3.071996  -0.035  -0.357367  -0.023363  3.075115  -0.031  -0.29118  -0.339047  -0.030927  3.070811  -0.04
O  O52  1  0.61483340  0.75270355  0.35740289  1  -0.180844  5.5e-05  2.432179  0.001  -0.112102  -0.00017  2.655413  0.0  -0.128313  -0.000169  2.663523  0.0  -0.094911  -0.101411  -0.000151  2.650408  0.0
O  O53  1  0.38516340  0.24729868  0.64258684  1  -0.18102  5.4e-05  2.432337  0.001  -0.112202  -0.00017  2.655575  0.0  -0.128415  -0.000169  2.663686  0.0  -0.094973  -0.101506  -0.000153  2.650568  0.0
O  O54  1  0.57685691  0.14851612  0.50889094  1  -0.46661  0.056128  2.277056  0.087  -0.393349  -0.003918  2.551006  -0.007  -0.426457  -0.003082  2.542224  -0.006  -0.266511  -0.371165  -0.003558  2.556151  -0.006
O  O55  1  0.42314331  0.85148164  0.49110963  1  -0.466726  0.056131  2.277151  0.087  -0.393399  -0.003918  2.551122  -0.007  -0.426504  -0.003081  2.542335  -0.006  -0.266559  -0.371216  -0.003591  2.556257  -0.006
O  O56  1  0.41189800  0.94177621  0.32730874  1  -0.473528  0.056205  2.301724  0.088  -0.401025  -0.003841  2.578293  -0.007  -0.43463  -0.002981  2.570023  -0.006  -0.267901  -0.378351  -0.003546  2.582762  -0.006
O  O57  1  0.58809407  0.05822591  0.67268881  1  -0.473677  0.056217  2.301834  0.088  -0.401083  -0.003841  2.578279  -0.007  -0.434688  -0.002982  2.570026  -0.006  -0.267941  -0.378407  -0.003554  2.582739  -0.006
O  O58  1  0.84677410  0.60166277  0.04151607  1  -0.46293  -0.058302  2.216992  -0.093  -0.394025  0.002619  2.470286  0.004  -0.428447  0.001492  2.465462  0.003  -0.263905  -0.371338  0.00243  2.472794  0.004
O  O59  1  0.15322626  0.39833586  0.95848398  1  -0.46294  -0.058298  2.217091  -0.093  -0.39402  0.00262  2.470379  0.004  -0.428441  0.001493  2.46556  0.003  -0.263883  -0.37133  0.002428  2.472879  0.004
O  O60  1  0.03584346  0.56935262  0.88752087  1  -0.449869  -0.058405  2.186741  -0.094  -0.383395  0.001849  2.440292  0.003  -0.416593  0.000663  2.434599  0.002  -0.254615  -0.361139  0.001672  2.442687  0.003
O  O61  1  0.96416234  0.43064772  0.11248096  1  -0.449901  -0.05841  2.186673  -0.094  -0.383445  0.00185  2.440245  0.003  -0.416356  0.000664  2.433993  0.002  -0.254633  -0.361195  0.001652  2.442644  0.003
F  F62  1  0.63785429  0.33958723  0.35981892  1  -0.247879  0.00033  1.160642  0.0  -0.207372  -0.000125  1.32222  0.0  -0.216891  -5.4e-05  1.306339  0.0  -0.098743  -0.200344  -0.000149  1.333172  0.0
F  F63  1  0.36215210  0.66041567  0.64018545  1  -0.248247  0.00033  1.160727  0.0  -0.207379  -0.000126  1.322432  0.0  -0.217018  -5.4e-05  1.306734  0.0  -0.098737  -0.200345  -0.000153  1.333402  0.0
F  F64  1  0.46588415  0.36789167  0.46064576  1  -0.255234  -0.000649  1.134204  -0.001  -0.215633  -0.000552  1.290321  -0.001  -0.224203  -0.000321  1.274302  -0.001  -0.108458  -0.20935  -0.000679  1.301459  -0.001
F  F65  1  0.53413203  0.63211274  0.53937438  1  -0.255233  -0.000649  1.13394  -0.001  -0.215659  -0.000552  1.29029  -0.001  -0.224184  -0.000321  1.27425  -0.001  -0.108502  -0.209366  -0.000678  1.301447  -0.001
F  F66  1  0.73810136  0.35571690  0.55662292  1  -0.232807  -0.000348  1.18395  -0.001  -0.192371  -0.000125  1.346651  0.0  -0.201331  -6.5e-05  1.330689  0.0  -0.086969  -0.18586  -0.000165  1.357804  0.0
F  F67  1  0.26190981  0.64427825  0.44337940  1  -0.232692  -0.000348  1.183658  -0.001  -0.192289  -0.000125  1.346592  0.0  -0.201042  -6.5e-05  1.330407  0.0  -0.086904  -0.185769  -0.000165  1.357761  0.0
F  F68  1  0.13352912  0.96001820  0.09248691  1  -0.259938  -0.000641  1.134605  -0.001  -0.222654  -0.000599  1.295311  -0.001  -0.231696  -0.000348  1.279367  -0.001  -0.113781  -0.216073  -0.000731  1.306534  -0.001
F  F69  1  0.86646122  0.03998131  0.90751107  1  -0.260104  -0.00064  1.134552  -0.001  -0.222776  -0.000599  1.295269  -0.001  -0.231796  -0.000348  1.279213  -0.001  -0.113849  -0.216198  -0.000734  1.306493  -0.001
F  F70  1  0.35825325  0.97536665  0.04508490  1  -0.243607  0.000192  1.177039  0.0  -0.207198  -0.000185  1.343909  0.0  -0.216315  -8.3e-05  1.327059  0.0  -0.102824  -0.200543  -0.000236  1.35573  0.0
F  F71  1  0.64173572  0.02463891  0.95491379  1  -0.243642  0.000193  1.176875  0.0  -0.207203  -0.000185  1.34378  0.0  -0.216314  -8.3e-05  1.326868  0.0  -0.102856  -0.20055  -0.000239  1.355603  0.0
F  F72  1  0.30055012  0.82356015  0.09165310  1  -0.234239  -0.000234  1.204598  -0.001  -0.194651  -9.5e-05  1.371912  0.0  -0.20384  -5e-05  1.356506  0.0  -0.093882  -0.18818  -0.000122  1.38295  0.0
F  F73  1  0.69944139  0.17643940  0.90834273  1  -0.234246  -0.000233  1.204639  -0.001  -0.194622  -9.5e-05  1.371964  0.0  -0.203782  -5e-05  1.356488  0.0  -0.093876  -0.188153  -0.000128  1.383004  0.0
F  F74  1  0.56916672  0.80221086  0.95773492  1  -0.242666  -0.00087  1.212202  -0.001  -0.198417  3.1e-05  1.381458  0.0  -0.208332  -8e-06  1.364763  0.0  -0.090186  -0.191605  3.9e-05  1.393583  0.0
F  F75  1  0.43085000  0.19779380  0.04226752  1  -0.24267  -0.00087  1.212308  -0.001  -0.198427  3.1e-05  1.381508  0.0  -0.208301  -8e-06  1.364759  0.0  -0.090128  -0.191619  3.7e-05  1.393632  0.0
F  F76  1  0.51079234  0.64413526  0.99325662  1  -0.239901  0.000588  1.16366  0.001  -0.1994  0.000432  1.324989  0.001  -0.210021  0.000254  1.311289  0.0  -0.089131  -0.189728  0.000506  1.332341  0.001
F  F77  1  0.48921422  0.35586850  0.00674806  1  -0.239791  0.000589  1.163861  0.001  -0.199298  0.000432  1.325188  0.001  -0.209893  0.000255  1.311443  0.0  -0.089086  -0.189635  0.000506  1.332548  0.001
F  F78  1  0.69712536  0.78586155  0.14192986  1  -0.259709  0.00101  1.194193  0.002  -0.216334  0.000317  1.366572  0.001  -0.22725  0.000165  1.352974  0.0  -0.101992  -0.20588  0.000397  1.373723  0.001
F  F79  1  0.30288444  0.21414656  0.85807283  1  -0.259662  0.001011  1.194235  0.002  -0.216327  0.000317  1.366657  0.001  -0.227232  0.000165  1.353053  0.0  -0.101987  -0.205867  0.000393  1.373802  0.001
F  F80  1  0.97905949  0.59695606  0.66086068  1  -0.244252  0.000418  1.138346  0.001  -0.20162  0.000358  1.29152  0.001  -0.21047  0.000208  1.275309  0.0  -0.099027  -0.194791  0.00043  1.302528  0.001
F  F81  1  0.02093536  0.40304089  0.33913595  1  -0.244194  0.000417  1.138511  0.001  -0.201626  0.000358  1.291604  0.001  -0.214346  0.000209  1.279717  0.0  -0.099024  -0.194795  0.00043  1.302611  0.001
F  F82  1  0.90189828  0.76728353  0.72349652  1  -0.25297  -0.000846  1.182305  -0.001  -0.206061  1.4e-05  1.345926  0.0  -0.220407  -2.2e-05  1.33515  0.0  -0.099847  -0.197697  1.2e-05  1.355392  0.0
F  F83  1  0.09809482  0.23271174  0.27649594  1  -0.25285  -0.000845  1.182446  -0.001  -0.205996  1.4e-05  1.345983  0.0  -0.216694  -2.2e-05  1.331985  0.0  -0.099802  -0.197631  1.2e-05  1.35545  0.0
F  F84  1  0.16759820  0.73558470  0.81195195  1  -0.245817  0.001111  1.155112  0.002  -0.213988  0.000341  1.32127  0.001  -0.221836  0.000175  1.30333  0.0  -0.105855  -0.207912  0.000427  1.333609  0.001
F  F85  1  0.83239700  0.26441489  0.18804149  1  -0.245819  0.001112  1.155287  0.002  -0.214034  0.000341  1.321313  0.001  -0.222419  0.000175  1.304069  0.0  -0.105904  -0.207958  0.000424  1.333653  0.001
