# generated using pymatgen
data_AlH5C12I2O5
_symmetry_space_group_name_H-M   'P 1'
_cell_length_a   6.68958017
_cell_length_b   20.54851579
_cell_length_c   23.49245703
_cell_angle_alpha   102.64209441
_cell_angle_beta   89.99969252
_cell_angle_gamma   89.99827626
_symmetry_Int_Tables_number   1
_chemical_formula_structural   AlH5C12I2O5
_chemical_formula_sum   'Al4 H20 C48 I8 O20'
_cell_volume   3151.00502751
_cell_formula_units_Z   4
loop_
 _symmetry_equiv_pos_site_id
 _symmetry_equiv_pos_as_xyz
  1  'x, y, z'
loop_
 _atom_site_type_symbol
 _atom_site_label
 _atom_site_symmetry_multiplicity
 _atom_site_fract_x
 _atom_site_fract_y
 _atom_site_fract_z
 _atom_site_occupancy
 _atom_site_pbe_bader_charge
 _atom_site_pbe_bader_spin_density
 _atom_site_pbe_cm5_charge
 _atom_site_pbe_ddec_charge
 _atom_site_pbe_ddec_spin_density
 _atom_site_pbe_ddec_sum_bond_order
 _atom_site_pbe_magmom
Al  Al0  1  0.70596344  0.24846949  0.74938176  1  2.501538  0  0.403169  1.647145  0  2.578222  0
Al  Al1  1  0.29402751  0.75152452  0.25060899  1  2.501456  0  0.403289  1.647042  0  2.578428  0
Al  Al2  1  0.20597227  0.25152485  0.75061105  1  2.501441  0  0.403265  1.647039  0  2.578399  0
Al  Al3  1  0.79403812  0.74846640  0.24937837  1  2.501553  0  0.403221  1.647246  0  2.578094  0
H  H4  1  0.75958041  0.59545740  0.34334870  1  0.100167  0  0.111197  0.119519  0  0.984001  0
H  H5  1  0.24040905  0.40454684  0.65665213  1  0.099918  0  0.111213  0.119583  0  0.983894  0
H  H6  1  0.25956759  0.90455139  0.15664673  1  0.100129  0  0.111201  0.119557  0  0.98395  0
H  H7  1  0.74041887  0.09545075  0.84335147  1  0.099946  0  0.111202  0.119545  0  0.983935  0
H  H8  1  0.81787473  0.46149765  0.46962642  1  0.048572  0  0.082823  0.081591  0  1.082581  0
H  H9  1  0.18211323  0.53850799  0.53037616  1  0.046104  0  0.082862  0.081707  0  1.082562  0
H  H10  1  0.31788186  0.03851628  0.03037923  1  0.047673  0  0.082828  0.081582  0  1.08269  0
H  H11  1  0.68210759  0.96149807  0.96962514  1  0.046195  0  0.082873  0.081718  0  1.082533  0
H  H12  1  0.66510224  0.32164767  0.60096536  1  0.109897  0  0.110882  0.128459  0  0.991362  0
H  H13  1  0.33487078  0.67836515  0.39904074  1  0.109885  0  0.110886  0.128475  0  0.99156  0
H  H14  1  0.16511683  0.17836585  0.89903468  1  0.109942  0  0.110912  0.128467  0  0.991567  0
H  H15  1  0.83489056  0.82165013  0.10096839  1  0.110002  0  0.110838  0.128437  0  0.991214  0
H  H16  1  0.22789002  0.47280835  0.58213168  1  0.069659  0  0.098175  0.101826  0  1.020232  0
H  H17  1  0.77208598  0.52720252  0.41787441  1  0.069892  0  0.098189  0.101817  0  1.020241  0
H  H18  1  0.72790344  0.02720221  0.91788075  1  0.069808  0  0.098194  0.101768  0  1.020328  0
H  H19  1  0.27208900  0.97281071  0.08212579  1  0.069857  0  0.09829  0.101955  0  1.020267  0
H  H20  1  0.46178233  0.33726061  0.77234626  1  0.602388  0  0.358827  0.439175  0  0.838811  0
H  H21  1  0.53820712  0.66273177  0.22765580  1  0.602189  0  0.35893  0.439234  0  0.838768  0
H  H22  1  0.96180431  0.16273597  0.72766001  1  0.602446  0  0.358866  0.439167  0  0.83888  0
H  H23  1  0.03819411  0.83725557  0.27234466  1  0.602505  0  0.358938  0.439183  0  0.83897  0
C  C24  1  0.45407581  0.17940482  0.81986073  1  1.566628  0  0.26758  0.643042  0  4.101538  0
C  C25  1  0.54591215  0.82059302  0.18013179  1  1.567603  0  0.267648  0.643091  0  4.101319  0
C  C26  1  0.95407639  0.32059417  0.68013514  1  1.566579  0  0.267604  0.643108  0  4.10126  0
C  C27  1  0.04592204  0.67940367  0.31985737  1  1.566701  0  0.267545  0.642956  0  4.101776  0
C  C28  1  0.45348595  0.16350251  0.66151339  1  1.676852  0  0.27754  0.709793  0  4.166555  0
C  C29  1  0.54650649  0.83649177  0.33847649  1  1.677035  0  0.277799  0.710445  0  4.165898  0
C  C30  1  0.95348081  0.33649363  0.83848071  1  1.676772  0  0.277665  0.710125  0  4.166138  0
C  C31  1  0.04652658  0.66350044  0.16150829  1  1.676795  0  0.27774  0.710156  0  4.16611  0
C  C32  1  0.05148778  0.61478196  0.10720779  1  0.362599  0  -0.016093  -0.144791  0  3.865786  0
C  C33  1  0.94852559  0.38520878  0.89278555  1  0.361889  0  -0.016096  -0.144864  0  3.866057  0
C  C34  1  0.55146220  0.88520706  0.39278609  1  0.361892  0  -0.016096  -0.144795  0  3.866131  0
C  C35  1  0.44856014  0.11477800  0.60721592  1  0.36276  0  -0.015787  -0.14419  0  3.865721  0
C  C36  1  0.06132145  0.52712356  0.00821762  1  -0.072906  0  -0.04074  0.033439  0  4.006198  0
C  C37  1  0.93866950  0.47286110  0.99177873  1  0.004605  0  -0.040665  0.033467  0  4.00628  0
C  C38  1  0.56136669  0.97284382  0.49178176  1  0.004493  0  -0.040682  0.03346  0  4.006458  0
C  C39  1  0.43874385  0.02711329  0.50823142  1  -0.073828  0  -0.040701  0.033574  0  4.006534  0
C  C40  1  0.94601338  0.42673671  0.93877007  1  -0.57201  0  -0.038882  -0.01694  0  4.184755  0
C  C41  1  0.05398056  0.57325148  0.06122282  1  -0.572869  0  -0.038901  -0.01703  0  4.184361  0
C  C42  1  0.44608549  0.07324172  0.56123703  1  -0.572429  0  -0.039213  -0.017635  0  4.184899  0
C  C43  1  0.55400562  0.92672386  0.43877097  1  -0.571656  0  -0.038882  -0.017015  0  4.185173  0
C  C44  1  0.04827190  0.64014204  0.36611494  1  -0.02041  0  -0.011256  -0.024333  0  3.970321  0
C  C45  1  0.95171456  0.35986139  0.63388457  1  -0.019607  0  -0.01122  -0.024352  0  3.970362  0
C  C46  1  0.54827260  0.85986405  0.13388298  1  -0.01993  0  -0.011206  -0.024344  0  3.970457  0
C  C47  1  0.45172284  0.14013994  0.86611480  1  -0.019716  0  -0.011216  -0.024355  0  3.97028  0
C  C48  1  0.88845509  0.59803318  0.37212488  1  -0.029337  0  -0.085248  -0.098621  0  3.994213  0
C  C49  1  0.11152988  0.40197040  0.62787725  1  -0.029843  0  -0.085419  -0.098829  0  3.994111  0
C  C50  1  0.38845647  0.90197377  0.12787617  1  -0.029846  0  -0.085283  -0.098591  0  3.994153  0
C  C51  1  0.61153747  0.09802835  0.87212595  1  -0.029503  0  -0.085244  -0.098591  0  3.993959  0
C  C52  1  0.89659004  0.56016034  0.41410183  1  -0.007629  0  -0.087615  -0.115649  0  3.968943  0
C  C53  1  0.10339194  0.43984794  0.58590164  1  -0.006996  0  -0.087414  -0.115422  0  3.968639  0
C  C54  1  0.39659010  0.93985220  0.08590053  1  -0.007555  0  -0.087627  -0.115716  0  3.968934  0
C  C55  1  0.60339636  0.06015791  0.91410643  1  -0.007659  0  -0.087608  -0.115568  0  3.969033  0
C  C56  1  0.05829475  0.56439764  0.45360027  1  0.005781  0  -0.013213  0.084111  0  4.011442  0
C  C57  1  0.94168574  0.43561389  0.54640452  1  0.005928  0  -0.013294  0.08395  0  4.011488  0
C  C58  1  0.55829735  0.93561481  0.04640419  1  0.005046  0  -0.013277  0.083924  0  4.0115  0
C  C59  1  0.44168762  0.06439812  0.95360235  1  0.00374  0  -0.013212  0.083968  0  4.011763  0
C  C60  1  0.21346236  0.60956351  0.44797622  1  -0.285297  0  -0.044387  0.014375  0  3.858313  0
C  C61  1  0.78652111  0.39045098  0.55203077  1  -0.285917  0  -0.044437  0.014436  0  3.858414  0
C  C62  1  0.71347358  0.89045235  0.05203249  1  -0.284949  0  -0.044441  0.014406  0  3.858582  0
C  C63  1  0.28652335  0.10956290  0.94797363  1  -0.284426  0  -0.044457  0.014382  0  3.858405  0
C  C64  1  0.21186306  0.64539451  0.40408172  1  0.036536  0  -0.088177  -0.130375  0  3.973096  0
C  C65  1  0.78812042  0.35461388  0.59592218  1  0.036699  0  -0.088104  -0.130373  0  3.972844  0
C  C66  1  0.71186640  0.85461781  0.09592436  1  0.03674  0  -0.088136  -0.13039  0  3.972899  0
C  C67  1  0.28813053  0.14539465  0.90407826  1  0.036484  0  -0.08822  -0.130419  0  3.972935  0
C  C68  1  0.06332790  0.52512547  0.49805830  1  0.035312  0  -0.096471  -0.11741  0  3.981404  0
C  C69  1  0.93666006  0.47488250  0.50194385  1  -0.068174  0  -0.096481  -0.117174  0  3.981247  0
C  C70  1  0.56332462  0.97488591  0.00194395  1  -0.064728  0  -0.096463  -0.117241  0  3.981256  0
C  C71  1  0.43665886  0.02513098  0.99806087  1  0.033918  0  -0.096462  -0.117204  0  3.981482  0
I  I72  1  0.71686937  0.45430269  0.05033094  1  0.170815  0  0.103093  0.023248  0  1.319613  0
I  I73  1  0.28310066  0.54568021  0.94966017  1  0.170721  0  0.103083  0.023242  0  1.319668  0
I  I74  1  0.21692090  0.04567616  0.44968052  1  0.17084  0  0.103115  0.023291  0  1.319822  0
I  I75  1  0.78324047  0.95428165  0.55031349  1  0.170943  0  0.103119  0.023257  0  1.319736  0
I  I76  1  0.45911179  0.62589335  0.50620231  1  0.090774  0  0.078519  -0.035809  0  1.429462  0
I  I77  1  0.54083880  0.37413210  0.49381171  1  0.090601  0  0.078504  -0.035842  0  1.429477  0
I  I78  1  0.95914230  0.87412477  0.99380764  1  0.090482  0  0.078513  -0.03582  0  1.429466  0
I  I79  1  0.04086509  0.12589856  0.00619765  1  0.090673  0  0.078557  -0.035751  0  1.42952  0
O  O80  1  0.28484792  0.18389307  0.68349334  1  -1.233616  0  -0.224588  -0.577529  0  2.280317  0
O  O81  1  0.71514602  0.81610051  0.31649566  1  -1.233736  0  -0.224583  -0.577718  0  2.280019  0
O  O82  1  0.78483610  0.31610177  0.81650267  1  -1.233674  0  -0.224623  -0.577622  0  2.279957  0
O  O83  1  0.21516532  0.68389116  0.18348763  1  -1.23373  0  -0.224661  -0.577644  0  2.280067  0
O  O84  1  0.62423857  0.19138404  0.79984263  1  -1.253569  0  -0.237955  -0.597716  0  2.334019  0
O  O85  1  0.37576135  0.80860780  0.20014723  1  -1.253658  0  -0.237937  -0.597701  0  2.33403  0
O  O86  1  0.12422051  0.30860900  0.70014960  1  -1.253589  0  -0.237907  -0.597629  0  2.3341  0
O  O87  1  0.87576895  0.69138479  0.29984028  1  -1.253636  0  -0.237917  -0.597708  0  2.334219  0
O  O88  1  0.62551966  0.18120398  0.68235234  1  -1.228884  0  -0.224031  -0.574394  0  2.281442  0
O  O89  1  0.37448774  0.81879413  0.31763930  1  -1.229188  0  -0.224118  -0.574615  0  2.28137  0
O  O90  1  0.12550759  0.31879786  0.81764212  1  -1.228881  0  -0.224034  -0.574422  0  2.281364  0
O  O91  1  0.87450429  0.68119911  0.18235083  1  -1.228672  0  -0.224113  -0.574508  0  2.281164  0
O  O92  1  0.78502013  0.30282306  0.69656231  1  -1.257096  0  -0.236965  -0.596549  0  2.353367  0
O  O93  1  0.21498129  0.69716758  0.30343059  1  -1.257226  0  -0.236858  -0.596313  0  2.353548  0
O  O94  1  0.28502116  0.19717313  0.80343327  1  -1.257103  0  -0.236866  -0.596412  0  2.353551  0
O  O95  1  0.71495932  0.80281888  0.19655528  1  -1.25788  0  -0.236997  -0.596514  0  2.353629  0
O  O96  1  0.45759609  0.29003805  0.75470404  1  -1.401798  0  -0.44646  -0.995996  0  2.196026  0
O  O97  1  0.54240981  0.70995691  0.24529064  1  -1.401548  0  -0.446653  -0.996098  0  2.195987  0
O  O98  1  0.95759242  0.20995970  0.74529486  1  -1.401875  0  -0.446532  -0.995977  0  2.196042  0
O  O99  1  0.04239853  0.79003348  0.25469850  1  -1.401821  0  -0.446567  -0.995983  0  2.196146  0
