# generated using pymatgen
data_MnH12C16(N5O)2
_symmetry_space_group_name_H-M   'P 1'
_cell_length_a   9.07687887
_cell_length_b   10.34243615
_cell_length_c   10.41691277
_cell_angle_alpha   117.70975860
_cell_angle_beta   90.26747965
_cell_angle_gamma   90.72425246
_symmetry_Int_Tables_number   1
_chemical_formula_structural   MnH12C16(N5O)2
_chemical_formula_sum   'Mn2 H24 C32 N20 O4'
_cell_volume   865.62630626
_cell_formula_units_Z   2
loop_
 _symmetry_equiv_pos_site_id
 _symmetry_equiv_pos_as_xyz
  1  'x, y, z'
loop_
 _atom_site_type_symbol
 _atom_site_label
 _atom_site_symmetry_multiplicity
 _atom_site_fract_x
 _atom_site_fract_y
 _atom_site_fract_z
 _atom_site_occupancy
 _atom_site_hle17_bader_charge
 _atom_site_hle17_bader_spin_density
 _atom_site_hle17_ddec_charge
 _atom_site_hle17_ddec_spin_density
 _atom_site_hle17_ddec_sum_bond_order
 _atom_site_hle17_magmom
 _atom_site_hse06_10hf_ddec_charge
 _atom_site_hse06_10hf_ddec_spin_density
 _atom_site_hse06_10hf_ddec_sum_bond_order
 _atom_site_hse06_10hf_magmom
 _atom_site_hse06_ddec_charge
 _atom_site_hse06_ddec_spin_density
 _atom_site_hse06_ddec_sum_bond_order
 _atom_site_hse06_magmom
 _atom_site_pbe_cm5_charge
 _atom_site_pbe_ddec_charge
 _atom_site_pbe_ddec_spin_density
 _atom_site_pbe_ddec_sum_bond_order
 _atom_site_pbe_magmom
Mn  Mn0  1  0.49622114  0.50122288  0.98911166  1  1.393932  1.162642  0.83331  1.176675  2.999939  1.168  0.760225  1.155445  3.561457  1.117  0.791103  1.076536  3.507443  1.048  0.773222  0.735755  1.160879  3.595119  1.117
Mn  Mn1  1  0.99953007  0.00067313  0.00026207  1  1.559708  4.65887  1.071298  4.780965  2.049773  4.632  0.914449  4.654455  2.576582  4.462  0.963966  4.728736  2.514389  4.543  0.661591  0.879358  4.59407  2.619551  4.386
H  H2  1  0.54625499  0.78064064  0.50525069  1  0.550154  7.2e-05  0.343178  -1e-06  0.930859  0.0  0.321771  -6.8e-05  0.99998  0.0  0.330376  -1.5e-05  0.992517  0.0  0.297155  0.314491  -3.5e-05  1.007174  0.0
H  H3  1  0.04866585  0.71162927  0.49868256  1  0.534272  -1.7e-05  0.341913  -3.6e-05  0.930612  0.0  0.321638  -2.6e-05  0.996997  0.0  0.329331  -2e-06  0.990969  0.0  0.2983  0.31476  -8.8e-05  1.003777  0.0
H  H4  1  0.45376120  0.21910244  0.49658463  1  0.533155  -2.3e-05  0.343469  -7.5e-05  0.929231  0.0  0.321755  -0.000123  0.998797  0.0  0.329912  -5.4e-05  0.992079  0.0  0.29827  0.314695  -8.6e-05  1.005595  0.0
H  H5  1  0.95237353  0.28742827  0.50107437  1  0.540023  1.2e-05  0.341903  1.9e-05  0.929825  0.0  0.320981  3.8e-05  0.996906  0.0  0.328974  2.2e-05  0.990722  0.0  0.299021  0.313966  1.4e-05  1.003679  0.0
H  H6  1  0.42603861  0.75079986  0.36296569  1  0.497328  0.000242  0.340529  0.000117  0.879536  0.0  0.325616  5.7e-05  0.937902  0.0  0.334051  3.9e-05  0.930821  0.0  0.310381  0.319142  -7.3e-05  0.943949  0.0
H  H7  1  0.93484864  0.74036920  0.64285548  1  0.505904  -4e-06  0.34254  -0.000471  0.888769  0.0  0.327674  -0.000403  0.946902  0.0  0.335008  -0.000455  0.941489  0.0  0.308923  0.322321  -0.000318  0.950873  0.0
H  H8  1  0.57273252  0.24822418  0.63953379  1  0.485517  7.6e-05  0.339935  -1e-06  0.885209  0.0  0.324854  3.1e-05  0.94375  0.0  0.332222  -8e-06  0.93843  0.0  0.310417  0.319172  -3.6e-05  0.948315  0.0
H  H9  1  0.06594742  0.25932849  0.35690844  1  0.506286  -6e-06  0.343206  -0.000468  0.888295  0.0  0.32795  -0.000416  0.946884  0.0  0.335443  -0.000469  0.941274  0.0  0.308937  0.3226  -0.000297  0.950811  0.0
H  H10  1  0.25181574  0.44040237  0.77720222  1  0.064673  0.001201  0.087004  0.00085  0.951413  0.001  0.092154  -0.000284  1.020981  0.0  0.094903  -0.0003  1.017988  0.0  0.117989  0.090596  -0.00019  1.022358  0.0
H  H11  1  0.75289506  0.04095431  0.22135507  1  0.055854  0.000526  0.084884  0.000141  0.943626  0.0  0.08872  0.000719  1.014802  0.0  0.091503  0.000501  1.012834  0.0  0.117489  0.087123  0.000824  1.01547  0.0
H  H12  1  0.74973211  0.55379384  0.22080869  1  0.053797  2.5e-05  0.082932  8.2e-05  0.945771  0.0  0.088868  -0.000211  1.014514  0.0  0.090563  -0.000227  1.013626  0.0  0.117402  0.088039  -0.000113  1.014403  0.0
H  H13  1  0.24648007  0.95806070  0.77828108  1  0.052197  0.000429  0.084865  1.1e-05  0.943745  0.0  0.089123  0.000536  1.01429  0.0  0.091369  0.000394  1.012852  0.0  0.117903  0.087837  0.000622  1.014698  0.0
H  H14  1  0.18699520  0.50729564  0.58361099  1  0.078672  -0.000641  0.111539  -0.000426  0.960077  -0.001  0.11896  0.000166  1.022865  0.0  0.123157  0.000116  1.020147  0.0  0.106864  0.115574  0.000205  1.025579  0.0
H  H15  1  0.68978122  0.97527610  0.41884748  1  0.060022  0.000374  0.113812  0.000218  0.950844  0.0  0.120954  0.000304  1.013516  0.0  0.125247  0.000238  1.01098  0.0  0.107677  0.117577  0.000304  1.016207  0.0
H  H16  1  0.81471389  0.48896701  0.41823615  1  0.083667  -0.000131  0.111647  -0.000105  0.959578  0.0  0.120187  -7e-06  1.020956  0.0  0.123491  6e-06  1.019577  0.0  0.108096  0.117347  2.4e-05  1.022862  0.0
H  H17  1  0.31038514  0.02353909  0.58098144  1  0.06041  0.000361  0.113596  0.000201  0.951573  0.0  0.120681  0.000277  1.014437  0.0  0.12487  0.000232  1.01204  0.0  0.107981  0.117333  0.00026  1.017106  0.0
H  H18  1  0.59453675  0.75840227  0.68486711  1  0.088276  -0.000365  0.113166  -0.000225  0.988941  0.0  0.120929  -5e-06  1.052991  0.0  0.125119  -5.3e-05  1.050398  0.0  0.108937  0.118331  0.000114  1.054204  0.0
H  H19  1  0.09747849  0.73741276  0.32549071  1  0.082359  0.000313  0.116079  0.000183  0.985651  0.0  0.122196  0.000218  1.051458  0.0  0.126467  0.000185  1.048409  0.0  0.109812  0.11936  0.000277  1.053166  0.0
H  H20  1  0.40371298  0.24395436  0.32199003  1  0.087034  -8e-06  0.113495  -3e-06  0.993731  0.0  0.121266  -6e-05  1.057171  0.0  0.124789  -5.6e-05  1.055604  0.0  0.110046  0.118901  7e-06  1.058097  0.0
H  H21  1  0.90352995  0.26284491  0.67433812  1  0.08852  0.000317  0.116283  0.00019  0.988732  0.0  0.122058  0.000238  1.054733  0.0  0.126583  0.000191  1.051724  0.0  0.109809  0.119103  0.0003  1.056293  0.0
H  H22  1  0.63794093  0.69085323  0.87701883  1  0.068223  0.000799  0.081661  0.000114  0.961034  0.001  0.091448  -0.001116  1.022133  0.0  0.09376  -0.001026  1.019329  0.0  0.121089  0.090368  -0.001024  1.023229  0.0
H  H23  1  0.14211373  0.81249192  0.13571501  1  0.028431  0.000539  0.075345  0.000211  0.943473  0.0  0.085373  0.000732  1.004019  0.0  0.087075  0.000567  1.003567  0.0  0.118605  0.084137  0.000856  1.004602  0.0
H  H24  1  0.36054856  0.31213048  0.12794711  1  0.052798  -4.2e-05  0.078761  -0.000292  0.955402  0.0  0.08847  -0.000727  1.017025  0.0  0.089818  -0.000689  1.016271  0.0  0.120036  0.088079  -0.000623  1.016528  0.0
H  H25  1  0.85823788  0.18806436  0.86407233  1  0.030531  0.000561  0.074617  0.000231  0.944557  0.0  0.084445  0.000736  1.005425  0.0  0.086425  0.000569  1.004505  0.0  0.118325  0.083018  0.00087  1.006281  0.0
C  C26  1  0.82158465  0.53439582  0.92086892  1  1.528318  -0.002195  0.509546  -0.003326  3.916695  -0.002  0.469118  0.003584  4.216275  0.004  0.494109  0.003549  4.228067  0.004  0.322562  0.4504  0.006777  4.210183  0.006
C  C27  1  0.33513947  0.98678489  0.09519160  1  1.495895  0.024065  0.526863  0.020653  3.939335  0.02  0.483127  0.026583  4.236267  0.026  0.51016  0.024174  4.247776  0.024  0.323777  0.464788  0.030112  4.227112  0.029
C  C28  1  0.17738402  0.46527694  0.07273182  1  1.50765  -0.005274  0.509281  -0.006819  3.921381  -0.005  0.467996  0.005766  4.221399  0.005  0.493275  0.006009  4.233483  0.005  0.32137  0.448989  0.008491  4.215126  0.007
C  C29  1  0.66435527  0.01879511  0.90622169  1  1.538355  0.024002  0.527058  0.020746  3.941351  0.021  0.482932  0.026603  4.238523  0.026  0.510371  0.024233  4.249573  0.024  0.32295  0.464388  0.030081  4.229234  0.029
C  C30  1  0.98290518  0.66517505  0.86145924  1  1.460111  0.026129  0.51124  0.022859  3.952255  0.022  0.472727  0.028637  4.238718  0.026  0.498997  0.025663  4.250734  0.024  0.31829  0.455089  0.033066  4.230047  0.03
C  C31  1  0.47280005  0.83015933  0.13664192  1  1.481219  -0.01204  0.502486  -0.01558  3.941994  -0.009  0.469282  -0.002238  4.227776  0.0  0.492882  -0.001664  4.242399  0.001  0.326964  0.453006  0.000591  4.215741  0.002
C  C32  1  0.01924983  0.33568985  0.13869781  1  1.47252  0.025323  0.512795  0.022259  3.953567  0.021  0.473414  0.028656  4.240967  0.026  0.500037  0.025716  4.252109  0.024  0.317868  0.455448  0.033109  4.232474  0.03
C  C33  1  0.52629300  0.17313767  0.85929462  1  1.490197  -0.010804  0.506042  -0.013818  3.941102  -0.009  0.470082  8.1e-05  4.22872  0.001  0.49554  0.001047  4.241001  0.002  0.327394  0.452683  0.003091  4.218196  0.003
C  C34  1  0.32437689  0.51038530  0.75267877  1  0.464034  -0.026485  0.109102  -0.028696  3.647033  -0.017  0.075722  -0.016537  3.908057  -0.008  0.088206  -0.01124  3.916262  -0.005  0.038274  0.067276  -0.016279  3.902229  -0.008
C  C35  1  0.82576348  0.97427109  0.24893264  1  0.491301  0.003245  0.130985  0.002252  3.684493  0.002  0.102682  0.004442  3.939838  0.004  0.108759  0.003838  3.956848  0.003  0.051404  0.098751  0.005096  3.92747  0.004
C  C36  1  0.67706370  0.48517884  0.24738497  1  0.514463  -0.001671  0.119574  -0.002153  3.677741  -0.001  0.090221  -0.001931  3.935491  -0.001  0.096585  -0.000953  3.952627  0.0  0.050054  0.085352  -0.002885  3.923113  -0.001
C  C37  1  0.17403355  0.02513914  0.75086479  1  0.556034  0.003211  0.132112  0.00222  3.683085  0.002  0.103781  0.004394  3.937809  0.004  0.109559  0.003796  3.955849  0.003  0.052845  0.10005  0.005013  3.924739  0.004
C  C38  1  0.28880455  0.54876816  0.64568674  1  0.095112  0.011818  -0.10938  0.008656  3.720103  0.009  -0.13341  0.000477  3.974674  0.003  -0.136423  0.003673  3.98732  0.004  -0.081026  -0.131444  -0.002043  3.965382  0.001
C  C39  1  0.79040395  0.93651405  0.35697620  1  0.10769  -0.000943  -0.11722  -0.001284  3.702978  -0.001  -0.141112  -0.001087  3.952976  -0.001  -0.145729  -0.001575  3.972893  -0.001  -0.077723  -0.138629  -0.000808  3.940077  0.0
C  C40  1  0.71291152  0.44824967  0.35593050  1  0.048821  -0.001079  -0.110849  -0.001499  3.707804  -0.001  -0.13439  -0.001386  3.956137  0.0  -0.139343  -0.000441  3.977441  0.0  -0.076876  -0.130955  -0.001466  3.941885  0.0
C  C41  1  0.20978929  0.06270005  0.64277420  1  0.087068  -0.000852  -0.116298  -0.001201  3.701201  -0.001  -0.140005  -0.00112  3.951262  -0.001  -0.14515  -0.001618  3.972284  -0.001  -0.077805  -0.137216  -0.00085  3.937666  0.0
C  C42  1  0.38433634  0.63864876  0.61557340  1  -0.059776  -0.037441  -0.028132  -0.040295  3.734677  -0.025  -0.012303  -0.031451  3.972726  -0.018  -0.008131  -0.019561  3.986284  -0.011  -0.009082  -0.014281  -0.033539  3.962624  -0.019
C  C43  1  0.88748341  0.85069434  0.38831132  1  -0.075602  0.002154  -0.014853  0.001615  3.728619  0.001  0.005667  0.003039  3.96054  0.003  0.00318  0.002763  3.982088  0.002  0.004529  0.00762  0.003699  3.945571  0.003
C  C44  1  0.61569983  0.36051570  0.38663305  1  -0.06651  -0.003116  -0.021091  -0.003372  3.733123  -0.002  -7.6e-05  -0.004497  3.963665  -0.002  -0.003193  -0.002264  3.986439  -0.001  0.002035  0.001714  -0.005836  3.94818  -0.003
C  C45  1  0.11315402  0.14885091  0.61145517  1  -0.122729  0.002209  -0.015547  0.00166  3.730576  0.001  0.004717  0.003075  3.962593  0.003  0.002171  0.002763  3.984547  0.002  0.00438  0.006715  0.003724  3.947291  0.003
C  C46  1  0.51288606  0.68919114  0.70082094  1  0.042041  0.015259  -0.123312  0.011812  3.706501  0.012  -0.147145  0.002604  3.960681  0.004  -0.150726  0.004688  3.973448  0.005  -0.083193  -0.145167  8e-06  3.951239  0.002
C  C47  1  0.01652420  0.80448631  0.30740421  1  0.042667  -0.000774  -0.126731  -0.001083  3.689692  -0.001  -0.150304  -0.000905  3.940883  0.0  -0.154923  -0.001454  3.96047  -0.001  -0.078718  -0.146795  -0.000511  3.926824  0.0
C  C48  1  0.48593968  0.31116730  0.30378710  1  0.105458  0.000123  -0.125597  -0.000164  3.701426  0.0  -0.147628  -0.000446  3.94831  0.0  -0.15335  5.3e-05  3.970134  0.0  -0.078866  -0.143791  -0.000599  3.933044  0.0
C  C49  1  0.98419603  0.19554526  0.69236934  1  0.108764  -0.000746  -0.128192  -0.001016  3.691732  -0.001  -0.151893  -0.000924  3.943609  0.0  -0.156477  -0.001476  3.962851  -0.001  -0.079529  -0.148298  -0.000511  3.929559  0.0
C  C50  1  0.54014229  0.64970662  0.80865214  1  0.489885  -0.025035  0.112748  -0.02686  3.658305  -0.016  0.080092  -0.020154  3.911526  -0.01  0.092504  -0.014605  3.921309  -0.007  0.038654  0.071253  -0.019156  3.905965  -0.009
C  C51  1  0.04285740  0.84697008  0.20093968  1  0.574707  0.002736  0.132936  0.00184  3.700668  0.002  0.104138  0.00387  3.953133  0.003  0.109896  0.00343  3.971756  0.003  0.052289  0.100009  0.004587  3.940595  0.004
C  C52  1  0.45945702  0.35070912  0.19542869  1  0.472901  -0.002079  0.12108  -0.002536  3.690703  -0.001  0.092418  -0.004052  3.941463  -0.002  0.098467  -0.002414  3.960243  -0.001  0.049884  0.088426  -0.003782  3.928041  -0.002
C  C53  1  0.95746658  0.15325939  0.79886020  1  0.505074  0.00271  0.133352  0.001817  3.701797  0.002  0.104562  0.003836  3.954363  0.003  0.110444  0.003423  3.972463  0.003  0.051901  0.100407  0.004623  3.942062  0.004
C  C54  1  0.34572209  0.67138683  0.49429077  1  1.390103  -0.005454  0.602776  -0.005861  3.850858  -0.002  0.555904  -0.006216  4.140851  -0.002  0.586487  -0.002197  4.133634  0.0  0.23724  0.534727  -0.008279  4.145433  -0.003
C  C55  1  0.84963865  0.81778565  0.51082483  1  1.431761  -3.8e-05  0.604739  -0.000134  3.85302  0.0  0.556695  -9.5e-05  4.141588  0.0  0.585842  -0.000129  4.140332  0.0  0.242851  0.536523  -0.000114  4.141649  0.0
C  C56  1  0.65456472  0.32759315  0.50863317  1  1.409058  -0.001022  0.606516  -0.001183  3.844395  -0.001  0.559312  -0.001489  4.131514  -0.001  0.588245  -0.00057  4.130587  0.0  0.243085  0.539351  -0.001725  4.132033  -0.001
C  C57  1  0.15122185  0.18177855  0.48908876  1  1.432168  -3.6e-05  0.604093  -0.000155  3.852093  0.0  0.55677  -0.000145  4.139477  0.0  0.585104  -0.000156  4.139204  0.0  0.243934  0.537135  -0.000204  4.138923  0.0
N  N58  1  0.70515987  0.51115670  0.95614514  1  -1.258671  -0.000719  -0.537737  -0.00483  3.090896  -0.005  -0.511125  -0.003171  3.415327  -0.005  -0.533031  -0.004769  3.420324  -0.006  -0.400038  -0.497509  -0.001349  3.41369  -0.005
N  N59  1  0.23079728  0.02199660  0.05184087  1  -1.278078  0.026371  -0.598971  0.016338  2.84657  -0.001  -0.559332  0.021151  3.153323  -0.001  -0.584089  0.015813  3.155655  -0.005  -0.373615  -0.541981  0.026466  3.151041  0.002
N  N60  1  0.29085449  0.48970986  0.03310847  1  -1.245389  -0.001729  -0.53929  -0.005994  3.093834  -0.005  -0.511371  -0.004255  3.417974  -0.007  -0.534075  -0.006104  3.423645  -0.008  -0.399994  -0.497465  -0.002112  3.416249  -0.006
N  N61  1  0.76818506  0.98244280  0.94926803  1  -1.288002  0.025914  -0.599156  0.015853  2.842076  -0.001  -0.559737  0.021885  3.14953  -0.001  -0.584276  0.016599  3.151131  -0.005  -0.373496  -0.5423  0.027403  3.14744  0.003
N  N62  1  0.95207992  0.55433771  0.88235466  1  -1.255337  0.010825  -0.451728  0.008139  3.271971  0.008  -0.402617  0.012293  3.545127  0.012  -0.428145  0.00919  3.552422  0.009  -0.301438  -0.384889  0.014922  3.541261  0.013
N  N63  1  0.45574622  0.95563167  0.14127445  1  -1.237663  0.004049  -0.448551  0.002891  3.265225  0.003  -0.396114  0.007444  3.532044  0.007  -0.422653  0.005746  3.540026  0.005  -0.297648  -0.377093  0.00828  3.52417  0.007
N  N64  1  0.04957908  0.44571141  0.11654787  1  -1.257405  0.011028  -0.452752  0.008338  3.282251  0.009  -0.403432  0.012794  3.556458  0.012  -0.428865  0.009632  3.563158  0.009  -0.301011  -0.385298  0.015656  3.552059  0.014
N  N65  1  0.54404131  0.05043828  0.86039107  1  -1.277228  0.005708  -0.447506  0.004332  3.273669  0.005  -0.394272  0.009339  3.541294  0.009  -0.421498  0.007323  3.548737  0.007  -0.296521  -0.374616  0.010465  3.533422  0.009
N  N66  1  0.02033341  0.76505331  0.84203874  1  -1.268748  0.021232  -0.620647  0.012395  2.804608  -0.002  -0.578672  0.023411  3.087731  0.003  -0.602245  0.018175  3.091197  -0.001  -0.378798  -0.561917  0.029026  3.084064  0.007
N  N67  1  0.49511862  0.71641287  0.13407676  1  -1.23759  0.004226  -0.55699  0.00164  2.972308  0.001  -0.528387  -0.000258  3.273948  -0.002  -0.55146  -0.000149  3.280311  -0.002  -0.385287  -0.510324  -0.000225  3.265894  -0.003
N  N68  1  0.98104844  0.23686645  0.15957535  1  -1.275128  0.022348  -0.622676  0.01343  2.802802  -0.001  -0.580971  0.023323  3.086125  0.003  -0.603693  0.01775  3.088825  -0.001  -0.379921  -0.564715  0.029128  3.082851  0.007
N  N69  1  0.50171555  0.28417991  0.85683068  1  -1.241641  0.002301  -0.563678  -0.000429  2.996769  0.0  -0.533549  -0.001495  3.301964  -0.003  -0.556004  -0.001825  3.306147  -0.004  -0.389315  -0.515832  -0.001066  3.295017  -0.004
N  N70  1  0.44970221  0.55877433  0.83505772  1  -1.199277  -0.016529  -0.256399  -0.020702  3.305732  -0.02  -0.188935  -0.022883  3.574965  -0.023  -0.208017  -0.010613  3.590699  -0.014  -0.331468  -0.175117  -0.028242  3.563929  -0.028
N  N71  1  0.95047545  0.93087114  0.17198559  1  -1.26257  0.037399  -0.326569  0.027686  3.254043  0.016  -0.254345  0.031264  3.5183  0.016  -0.272537  0.028125  3.535509  0.014  -0.312501  -0.241356  0.034499  3.506089  0.019
N  N72  1  0.55203081  0.43742386  0.16812404  1  -1.211997  -0.012402  -0.262663  -0.015798  3.216275  -0.016  -0.198778  -0.01377  3.471987  -0.014  -0.217712  -0.009885  3.491401  -0.011  -0.286789  -0.184485  -0.01443  3.458429  -0.015
N  N73  1  0.04938601  0.06907278  0.82782926  1  -1.263445  0.037723  -0.326334  0.027878  3.25446  0.017  -0.253978  0.031438  3.518283  0.017  -0.272055  0.028232  3.535522  0.014  -0.312515  -0.241062  0.034715  3.506099  0.02
N  N74  1  0.44418917  0.74652491  0.45753375  1  -1.345357  -0.00523  -0.672896  -0.005501  3.092609  -0.004  -0.634652  -0.005195  3.323718  -0.004  -0.65488  -0.00254  3.315577  -0.002  -0.562415  -0.62063  -0.006487  3.332128  -0.004
N  N75  1  0.94877021  0.74623981  0.54830448  1  -1.347053  -4.6e-05  -0.666525  -0.000241  3.108184  0.0  -0.625386  -3e-06  3.335083  0.0  -0.649251  -2.8e-05  3.332642  0.0  -0.554734  -0.608209  0.00034  3.338739  0.0
N  N76  1  0.55571790  0.25298612  0.54491711  1  -1.307624  -0.000506  -0.669735  -0.000591  3.09667  0.0  -0.629359  -0.000679  3.326299  0.0  -0.65277  -0.000276  3.322869  0.0  -0.557358  -0.61299  -0.001219  3.331157  -0.001
N  N77  1  0.05207174  0.25300928  0.45126988  1  -1.346646  9e-05  -0.665446  -0.00012  3.106177  0.0  -0.623946  0.000127  3.333965  0.0  -0.64789  2.6e-05  3.331372  0.0  -0.55487  -0.60678  0.00044  3.337586  0.001
O  O78  1  0.22444166  0.62769659  0.42810181  1  -1.189992  -0.004287  -0.598699  -0.004232  1.939517  -0.004  -0.5509  -0.004337  2.159966  -0.004  -0.568333  -0.002124  2.15024  -0.002  -0.313963  -0.538022  -0.006049  2.166957  -0.005
O  O79  1  0.72936153  0.85948763  0.57468062  1  -1.185865  0.0002  -0.59937  9.1e-05  1.96163  0.0  -0.550568  0.000253  2.184922  0.0  -0.572207  0.000156  2.178818  0.0  -0.307531  -0.534932  0.0004  2.189495  0.001
O  O80  1  0.77605071  0.37082501  0.57377012  1  -1.19042  -0.000103  -0.595916  -6.7e-05  1.948989  0.0  -0.545491  -0.000256  2.167717  0.0  -0.566389  -1.4e-05  2.161096  0.0  -0.30752  -0.530339  -0.001069  2.172831  -0.001
O  O81  1  0.27171901  0.14037592  0.42556920  1  -1.189375  0.000117  -0.598855  3.4e-05  1.966709  0.0  -0.549917  9.5e-05  2.190103  0.0  -0.570822  8e-05  2.184075  0.0  -0.307248  -0.53464  0.000282  2.194639  0.0
