# generated using pymatgen
data_Cd2H16C24(N2O3)3
_symmetry_space_group_name_H-M   'P 1'
_cell_length_a   10.39653515
_cell_length_b   14.28114294
_cell_length_c   20.49009791
_cell_angle_alpha   104.95966304
_cell_angle_beta   104.73003996
_cell_angle_gamma   90.02010637
_symmetry_Int_Tables_number   1
_chemical_formula_structural   Cd2H16C24(N2O3)3
_chemical_formula_sum   'Cd8 H64 C96 N24 O36'
_cell_volume   2835.45253644
_cell_formula_units_Z   4
loop_
 _symmetry_equiv_pos_site_id
 _symmetry_equiv_pos_as_xyz
  1  'x, y, z'
loop_
 _atom_site_type_symbol
 _atom_site_label
 _atom_site_symmetry_multiplicity
 _atom_site_fract_x
 _atom_site_fract_y
 _atom_site_fract_z
 _atom_site_occupancy
 _atom_site_pbe_bader_charge
 _atom_site_pbe_bader_spin_density
 _atom_site_pbe_cm5_charge
 _atom_site_pbe_ddec_charge
 _atom_site_pbe_ddec_spin_density
 _atom_site_pbe_ddec_sum_bond_order
 _atom_site_pbe_magmom
Cd  Cd0  1  0.01802552  0.19864854  0.34133154  1  1.266612  0  0.770515  0.872329  0  2.10048  0
Cd  Cd1  1  0.67688757  0.30109689  0.65831356  1  1.263383  0  0.770518  0.871796  0  2.102388  0
Cd  Cd2  1  0.98197115  0.80134338  0.65867216  1  1.266616  0  0.770551  0.872486  0  2.100242  0
Cd  Cd3  1  0.32311335  0.69889506  0.34168842  1  1.263452  0  0.770492  0.871793  0  2.102388  0
Cd  Cd4  1  0.86577365  0.89223975  0.33249589  1  1.288101  0  0.772365  0.926421  0  2.108631  0
Cd  Cd5  1  0.53400665  0.60764042  0.66728447  1  1.289606  0  0.772041  0.925161  0  2.112644  0
Cd  Cd6  1  0.13420801  0.10775919  0.66748021  1  1.288126  0  0.772407  0.926712  0  2.108853  0
Cd  Cd7  1  0.46598177  0.39235592  0.33271633  1  1.289534  0  0.772081  0.925337  0  2.112653  0
H  H8  1  0.50136348  0.13660433  0.43615349  1  0.113481  0  0.120249  0.132709  0  0.959337  0
H  H9  1  0.06550803  0.36376606  0.56380264  1  0.109477  0  0.12071  0.133407  0  0.958707  0
H  H10  1  0.49862775  0.86339411  0.56385239  1  0.113419  0  0.120201  0.132696  0  0.959402  0
H  H11  1  0.93447658  0.63622885  0.43619618  1  0.109475  0  0.120679  0.133448  0  0.958518  0
H  H12  1  0.67821910  0.01627886  0.44455715  1  0.115826  0  0.113906  0.129829  0  0.991257  0
H  H13  1  0.23370441  0.48440255  0.55549651  1  0.104893  0  0.114323  0.130178  0  0.991936  0
H  H14  1  0.32177626  0.98372400  0.55544629  1  0.11564  0  0.113839  0.129665  0  0.99165  0
H  H15  1  0.76627577  0.51558579  0.44450320  1  0.104533  0  0.114295  0.13008  0  0.992038  0
H  H16  1  0.60799700  0.83983695  0.41547627  1  0.120292  0  0.124095  0.104611  0  0.978762  0
H  H17  1  0.19249544  0.66071780  0.58461559  1  0.118206  0  0.124278  0.105032  0  0.9785  0
H  H18  1  0.39199900  0.16015790  0.58452703  1  0.120275  0  0.124091  0.104591  0  0.978718  0
H  H19  1  0.80748351  0.33927070  0.41537484  1  0.11799  0  0.124292  0.105046  0  0.978443  0
H  H20  1  0.30465822  0.03828147  0.22919143  1  0.12097  0  0.108884  0.109969  0  1.01278  0
H  H21  1  0.07682125  0.46192054  0.77078615  1  0.111454  0  0.108859  0.110084  0  1.012015  0
H  H22  1  0.69532587  0.96171124  0.77080866  1  0.121205  0  0.108785  0.109736  0  1.012815  0
H  H23  1  0.92322507  0.53809771  0.22925739  1  0.111538  0  0.108862  0.11008  0  1.012048  0
H  H24  1  0.32752166  0.86082430  0.22234455  1  0.06672  0  0.104586  0.107917  0  1.011774  0
H  H25  1  0.10675076  0.63930369  0.77751299  1  0.09993  0  0.104473  0.108908  0  1.011369  0
H  H26  1  0.67247009  0.13916772  0.77765317  1  0.066892  0  0.10459  0.107895  0  1.011669  0
H  H27  1  0.89322043  0.36070369  0.22248150  1  0.100268  0  0.104507  0.109  0  1.011398  0
H  H28  1  0.55658533  0.80488166  0.26171748  1  0.148473  0  0.118468  0.103212  0  1.040339  0
H  H29  1  0.29622093  0.69507420  0.73789468  1  0.150034  0  0.118408  0.104274  0  1.039722  0
H  H30  1  0.44341088  0.19511907  0.73828259  1  0.14847  0  0.118488  0.103261  0  1.040228  0
H  H31  1  0.70374046  0.30494134  0.26209068  1  0.149824  0  0.11847  0.104238  0  1.039842  0
H  H32  1  0.78139915  0.14740025  0.18166317  1  0.142904  0  0.119401  0.099967  0  0.997721  0
H  H33  1  0.60029114  0.35245948  0.81763127  1  0.148784  0  0.119289  0.100264  0  0.998743  0
H  H34  1  0.21859960  0.85259688  0.81833409  1  0.142892  0  0.119393  0.099974  0  0.997774  0
H  H35  1  0.39970091  0.64753924  0.18235836  1  0.149027  0  0.119366  0.100391  0  0.998707  0
H  H36  1  0.19319839  0.18495577  0.23767746  1  0.152103  0  0.123363  0.111066  0  1.007109  0
H  H37  1  0.95643966  0.31496738  0.76212324  1  0.163212  0  0.123882  0.111948  0  1.007982  0
H  H38  1  0.80680438  0.81505936  0.76233370  1  0.152344  0  0.123353  0.111019  0  1.007138  0
H  H39  1  0.04355621  0.68502321  0.23787248  1  0.163058  0  0.123833  0.11179  0  1.008027  0
H  H40  1  0.77119493  0.11872725  0.05306743  1  0.122681  0  0.116633  0.129042  0  0.977593  0
H  H41  1  0.71853110  0.38151737  0.94631548  1  0.103382  0  0.11722  0.129879  0  0.97724  0
H  H42  1  0.22882753  0.88126841  0.94693059  1  0.122572  0  0.116629  0.129002  0  0.97765  0
H  H43  1  0.28145808  0.61848641  0.05367677  1  0.103294  0  0.117253  0.129908  0  0.977479  0
H  H44  1  0.20180833  0.15593249  0.11329220  1  0.146119  0  0.114863  0.129454  0  1.017549  0
H  H45  1  0.08924596  0.34419488  0.88665314  1  0.132085  0  0.113637  0.127763  0  1.018403  0
H  H46  1  0.79820959  0.84407388  0.88671938  1  0.146321  0  0.114847  0.12933  0  1.01767  0
H  H47  1  0.91074708  0.65580225  0.11334439  1  0.132028  0  0.113661  0.127795  0  1.018283  0
H  H48  1  0.29617856  0.15800707  0.82541201  1  0.128829  0  0.115893  0.090432  0  1.021148  0
H  H49  1  0.47002370  0.34238774  0.17528738  1  0.147962  0  0.116385  0.091131  0  1.022069  0
H  H50  1  0.70382612  0.84198854  0.17458910  1  0.129318  0  0.115884  0.090426  0  1.021073  0
H  H51  1  0.52996642  0.65761010  0.82471127  1  0.147659  0  0.116364  0.091034  0  1.022089  0
H  H52  1  0.90244817  0.04877452  0.74655974  1  0.15683  0  0.115982  0.097774  0  1.027383  0
H  H53  1  0.15419019  0.45109858  0.25318921  1  0.153495  0  0.116399  0.097454  0  1.028722  0
H  H54  1  0.09756170  0.95121897  0.25343739  1  0.156936  0  0.115934  0.097751  0  1.027463  0
H  H55  1  0.84580438  0.54890796  0.74681180  1  0.153674  0  0.116352  0.097332  0  1.02888  0
H  H56  1  0.28981761  0.16662835  0.94890344  1  0.097095  0  0.115275  0.125131  0  0.985944  0
H  H57  1  0.34090996  0.33345740  0.05159065  1  0.111662  0  0.115187  0.124771  0  0.985502  0
H  H58  1  0.71018487  0.83338190  0.05109388  1  0.097164  0  0.115316  0.125197  0  0.985924  0
H  H59  1  0.65906860  0.66652442  0.94840677  1  0.111641  0  0.115155  0.124639  0  0.985722  0
H  H60  1  0.87502602  0.06510561  0.86770322  1  0.093965  0  0.108901  0.115962  0  1.026433  0
H  H61  1  0.00630841  0.43458611  0.13174263  1  0.111899  0  0.109443  0.116286  0  1.025038  0
H  H62  1  0.12497920  0.93489442  0.13229486  1  0.094084  0  0.108904  0.115977  0  1.026544  0
H  H63  1  0.99367790  0.56540659  0.86825770  1  0.112129  0  0.109374  0.116207  0  1.025019  0
H  H64  1  0.84764187  0.89552289  0.48842838  1  0.656235  0  0.290292  0.398101  0  0.930811  0
H  H65  1  0.35905510  0.60444798  0.51152478  1  0.651183  0  0.290166  0.398162  0  0.931596  0
H  H66  1  0.15239326  0.10453766  0.51161302  1  0.65624  0  0.290407  0.398201  0  0.930651  0
H  H67  1  0.64090128  0.39551760  0.48844052  1  0.651657  0  0.290306  0.398244  0  0.931446  0
H  H68  1  0.97945622  0.93036883  0.47444284  1  0.607249  0  0.309567  0.393625  0  0.909597  0
H  H69  1  0.50484919  0.56957429  0.52534319  1  0.601769  0  0.309523  0.394945  0  0.90834  0
H  H70  1  0.02064624  0.06923230  0.52543444  1  0.608004  0  0.309734  0.394414  0  0.908943  0
H  H71  1  0.49526017  0.43066725  0.47473090  1  0.600957  0  0.309447  0.394774  0  0.908862  0
C  C72  1  0.23108832  0.09374015  0.39812666  1  1.640073  0  0.205036  0.595918  0  4.217159  0
C  C73  1  0.83311344  0.40637520  0.60174481  1  1.618614  0  0.203051  0.593088  0  4.222365  0
C  C74  1  0.76891192  0.90626419  0.60187584  1  1.640502  0  0.205162  0.596194  0  4.21713  0
C  C75  1  0.16686848  0.59361693  0.39824598  1  1.618469  0  0.203028  0.593003  0  4.22244  0
C  C76  1  0.34061093  0.02549463  0.40875107  1  -0.040562  0  0.005711  -0.056365  0  3.906294  0
C  C77  1  0.93199538  0.47470111  0.59119183  1  -0.022946  0  0.007446  -0.053585  0  3.906313  0
C  C78  1  0.65938065  0.97450820  0.59125458  1  -0.042305  0  0.005556  -0.05655  0  3.90634  0
C  C79  1  0.06797932  0.52529319  0.40879989  1  -0.022802  0  0.007455  -0.053218  0  3.90599  0
C  C80  1  0.47497990  0.05939690  0.42674557  1  -0.034469  0  -0.058803  -0.051121  0  3.907604  0
C  C81  1  0.04839063  0.44093218  0.57323673  1  0.002458  0  -0.059087  -0.052823  0  3.909494  0
C  C82  1  0.52501133  0.94060154  0.57326030  1  -0.032418  0  -0.058823  -0.051208  0  3.907641  0
C  C83  1  0.95159700  0.55906201  0.42676205  1  0.002547  0  -0.059184  -0.053173  0  3.909386  0
C  C84  1  0.57271105  0.99312220  0.43064951  1  0.028172  0  -0.075932  -0.110124  0  3.953985  0
C  C85  1  0.14208254  0.50738069  0.56936883  1  0.009992  0  -0.078075  -0.111331  0  3.955301  0
C  C86  1  0.42727564  0.00687915  0.56935708  1  0.02829  0  -0.07584  -0.109944  0  3.953891  0
C  C87  1  0.85790335  0.49261350  0.43063020  1  0.010259  0  -0.07808  -0.111202  0  3.95524  0
C  C88  1  0.53455989  0.89426266  0.41467734  1  0.462514  0  0.049254  0.092445  0  3.952698  0
C  C89  1  0.11989279  0.60621782  0.58538403  1  0.45317  0  0.050706  0.093463  0  3.950724  0
C  C90  1  0.46542993  0.10573803  0.58532532  1  0.462411  0  0.04925  0.092424  0  3.952677  0
C  C91  1  0.88008695  0.39377283  0.41460843  1  0.452904  0  0.050631  0.093358  0  3.950591  0
C  C92  1  0.31079234  0.92535479  0.39443813  1  0.506631  0  0.107455  0.066438  0  3.963656  0
C  C93  1  0.91647466  0.57481592  0.60558417  1  0.515835  0  0.108872  0.068926  0  3.960713  0
C  C94  1  0.68920431  0.07464660  0.60556649  1  0.506614  0  0.107503  0.066489  0  3.963821  0
C  C95  1  0.08349783  0.42517847  0.39440231  1  0.515883  0  0.108762  0.068602  0  3.961006  0
C  C96  1  0.16796581  0.88396229  0.37239618  1  1.603971  0  0.203189  0.532987  0  4.251691  0
C  C97  1  0.79577403  0.61603908  0.62762977  1  1.61212  0  0.201882  0.530107  0  4.253669  0
C  C98  1  0.83203037  0.11602093  0.62760516  1  1.603034  0  0.203232  0.532901  0  4.251877  0
C  C99  1  0.20419626  0.38396494  0.37234738  1  1.612297  0  0.202167  0.530461  0  4.253421  0
C  C100  1  0.49908232  0.18069805  0.27060720  1  1.634167  0  0.192764  0.580746  0  4.287278  0
C  C101  1  0.22903146  0.31932868  0.72918377  1  1.629358  0  0.194694  0.583133  0  4.283939  0
C  C102  1  0.50090987  0.81930203  0.72938773  1  1.634518  0  0.19285  0.58102  0  4.28696  0
C  C103  1  0.77103542  0.68070184  0.27086672  1  1.630198  0  0.194645  0.583753  0  4.283579  0
C  C104  1  0.51608940  0.07493005  0.26851105  1  0.051655  0  0.008043  -0.039781  0  3.879902  0
C  C105  1  0.24858758  0.42508165  0.73131484  1  0.068698  0  0.007714  -0.03987  0  3.879894  0
C  C106  1  0.48389417  0.92506211  0.73147839  1  0.051425  0  0.007981  -0.039993  0  3.880269  0
C  C107  1  0.75144043  0.57494266  0.26871477  1  0.066772  0  0.00781  -0.040016  0  3.879773  0
C  C108  1  0.40216430  0.01027188  0.24398656  1  -0.05958  0  -0.062586  -0.052747  0  3.92743  0
C  C109  1  0.15947191  0.48982600  0.75589895  1  -0.07371  0  -0.063458  -0.05371  0  3.928161  0
C  C110  1  0.59781603  0.98971882  0.75600248  1  -0.059586  0  -0.062554  -0.052585  0  3.927492  0
C  C111  1  0.84055415  0.51019324  0.24412818  1  -0.072597  0  -0.063406  -0.053524  0  3.927638  0
C  C112  1  0.41455322  0.91242904  0.24056340  1  -0.026312  0  -0.084013  -0.115183  0  3.976291  0
C  C113  1  0.17535671  0.58764686  0.75923742  1  -0.049345  0  -0.083293  -0.116171  0  3.973989  0
C  C114  1  0.58543167  0.08756090  0.75942817  1  -0.026343  0  -0.084092  -0.11522  0  3.976363  0
C  C115  1  0.82463408  0.41236253  0.24076808  1  -0.048972  0  -0.083309  -0.116282  0  3.973688  0
C  C116  1  0.54125403  0.88060808  0.26246736  1  0.48731  0  0.041787  0.076602  0  3.958762  0
C  C117  1  0.28005114  0.61938238  0.73722355  1  0.469659  0  0.042352  0.076242  0  3.958394  0
C  C118  1  0.45873385  0.11938763  0.73752781  1  0.487153  0  0.041961  0.076658  0  3.958633  0
C  C119  1  0.71993229  0.38063068  0.26277989  1  0.469009  0  0.042359  0.076351  0  3.958259  0
C  C120  1  0.63977145  0.03719604  0.28961720  1  0.460616  0  0.112745  0.078296  0  3.936971  0
C  C121  1  0.35105614  0.46272292  0.71012328  1  0.483441  0  0.114438  0.080056  0  3.938593  0
C  C122  1  0.36021425  0.96279901  0.71037367  1  0.460348  0  0.112796  0.07848  0  3.936632  0
C  C123  1  0.64895751  0.53730161  0.28989281  1  0.484909  0  0.114242  0.079683  0  3.939128  0
C  C124  1  0.76868627  0.09974732  0.31490927  1  1.57566  0  0.200583  0.534048  0  4.220294  0
C  C125  1  0.45435254  0.39997717  0.68484447  1  1.5583  0  0.19908  0.532149  0  4.222387  0
C  C126  1  0.23130601  0.90024411  0.68507988  1  1.575912  0  0.200521  0.534193  0  4.220024  0
C  C127  1  0.54566151  0.60005403  0.31516461  1  1.559113  0  0.198786  0.531914  0  4.222984  0
C  C128  1  0.87162312  0.14840674  0.16378086  1  0.524543  0  0.048082  0.093234  0  3.948796  0
C  C129  1  0.70841756  0.35148798  0.83565049  1  0.478078  0  0.048567  0.094067  0  3.953858  0
C  C130  1  0.12838702  0.85159032  0.83622089  1  0.524892  0  0.048106  0.09316  0  3.949118  0
C  C131  1  0.29158460  0.64850852  0.16434112  1  0.477877  0  0.048436  0.093845  0  3.954143  0
C  C132  1  0.10233542  0.16856301  0.19501508  1  0.482437  0  0.049122  0.101217  0  3.926741  0
C  C133  1  0.90811262  0.33133350  0.80469247  1  0.400886  0  0.047651  0.099512  0  3.927931  0
C  C134  1  0.89767209  0.83143980  0.80499164  1  0.481426  0  0.049106  0.101304  0  3.926549  0
C  C135  1  0.09189216  0.66865346  0.19530286  1  0.401262  0  0.047655  0.09971  0  3.927703  0
C  C136  1  0.86609415  0.13271462  0.09299934  1  -0.118423  0  -0.0746  -0.184604  0  3.919957  0
C  C137  1  0.77357435  0.36739066  0.90646343  1  -0.050491  0  -0.075516  -0.186289  0  3.923483  0
C  C138  1  0.13392425  0.86727810  0.90700031  1  -0.119298  0  -0.074565  -0.184425  0  3.919798  0
C  C139  1  0.22642938  0.63261089  0.09353128  1  -0.050706  0  -0.075508  -0.186191  0  3.923915  0
C  C140  1  0.10662496  0.15325931  0.12598731  1  -0.023093  0  -0.077637  -0.188358  0  3.913537  0
C  C141  1  0.98131862  0.34675387  0.87378528  1  0.057274  0  -0.075905  -0.184865  0  3.914005  0
C  C142  1  0.89339170  0.84674129  0.87402042  1  -0.02188  0  -0.07755  -0.18817  0  3.913293  0
C  C143  1  0.01868143  0.65323603  0.12620857  1  0.05732  0  -0.075899  -0.184912  0  3.913856  0
C  C144  1  0.98551771  0.13576325  0.07369458  1  0.312515  0  0.098793  0.193321  0  4.028403  0
C  C145  1  0.91230189  0.36432155  0.92593667  1  0.275527  0  0.097629  0.192009  0  4.033242  0
C  C146  1  0.01450434  0.86423520  0.92631136  1  0.312846  0  0.09867  0.193141  0  4.028194  0
C  C147  1  0.08770572  0.63567632  0.07406059  1  0.275264  0  0.097664  0.191964  0  4.033299  0
C  C148  1  0.20609940  0.13573275  0.83673636  1  0.537481  0  0.051921  0.117576  0  3.950971  0
C  C149  1  0.36861828  0.36455656  0.16372186  1  0.547604  0  0.049824  0.115767  0  3.951543  0
C  C150  1  0.79390437  0.86427019  0.16326255  1  0.536965  0  0.051992  0.117672  0  3.950859  0
C  C151  1  0.63137516  0.63544929  0.83627692  1  0.547446  0  0.049848  0.115898  0  3.951474  0
C  C152  1  0.98427693  0.07853834  0.79307797  1  0.478037  0  0.047688  0.103193  0  3.925336  0
C  C153  1  0.18985153  0.42147124  0.20682170  1  0.423011  0  0.049917  0.106545  0  3.926301  0
C  C154  1  0.01573035  0.92146386  0.20692139  1  0.478277  0  0.047755  0.103238  0  3.925548  0
C  C155  1  0.81014095  0.57853463  0.79317611  1  0.423151  0  0.050141  0.106931  0  3.92622  0
C  C156  1  0.20199579  0.14212979  0.90494901  1  -0.031798  0  -0.072343  -0.184072  0  3.9223  0
C  C157  1  0.29675024  0.35801995  0.09539292  1  -0.081659  0  -0.071452  -0.183059  0  3.918952  0
C  C158  1  0.79800667  0.85788409  0.09504964  1  -0.032494  0  -0.072446  -0.184358  0  3.922484  0
C  C159  1  0.70323256  0.64197423  0.90460599  1  -0.081747  0  -0.071393  -0.182898  0  3.91903  0
C  C160  1  0.96965881  0.08551863  0.85979329  1  0.000285  0  -0.079763  -0.192776  0  3.918705  0
C  C161  1  0.10896346  0.41437050  0.13996088  1  0.026366  0  -0.082415  -0.195127  0  3.920925  0
C  C162  1  0.03034844  0.91448719  0.14020741  1  0.000215  0  -0.079686  -0.192756  0  3.91886  0
C  C163  1  0.89102244  0.58562665  0.86003543  1  0.030639  0  -0.082423  -0.195278  0  3.920551  0
C  C164  1  0.08127246  0.11830166  0.91711062  1  0.258026  0  0.097753  0.189334  0  4.056952  0
C  C165  1  0.16380874  0.38168578  0.08288677  1  0.284458  0  0.098574  0.19092  0  4.056628  0
C  C166  1  0.91873384  0.88171289  0.08289098  1  0.258979  0  0.097728  0.189518  0  4.057083  0
C  C167  1  0.83617374  0.61830625  0.91711061  1  0.279986  0  0.098613  0.191063  0  4.056188  0
N  N168  1  0.40620707  0.86129715  0.39635674  1  -1.223704  0  -0.324299  -0.270998  0  3.54067  0
N  N169  1  0.00992393  0.63902135  0.60374758  1  -1.24076  0  -0.32632  -0.273439  0  3.539099  0
N  N170  1  0.59378461  0.13869990  0.60364543  1  -1.223778  0  -0.324324  -0.270924  0  3.540807  0
N  N171  1  0.99005255  0.36096941  0.39623755  1  -1.240486  0  -0.32615  -0.27318  0  3.539118  0
N  N172  1  0.65051742  0.94211566  0.28685007  1  -1.228544  0  -0.322574  -0.276572  0  3.550182  0
N  N173  1  0.36471878  0.55777647  0.71283132  1  -1.224445  0  -0.323296  -0.277131  0  3.554843  0
N  N174  1  0.34946378  0.05788081  0.71314342  1  -1.228442  0  -0.322603  -0.276618  0  3.549797  0
N  N175  1  0.63527296  0.44224524  0.28717837  1  -1.224768  0  -0.323116  -0.276903  0  3.554768  0
N  N176  1  0.98732575  0.16661259  0.21403564  1  -1.221154  0  -0.316749  -0.237119  0  3.43968  0
N  N177  1  0.77402237  0.33319430  0.78552188  1  -1.191771  0  -0.316287  -0.237678  0  3.444328  0
N  N178  1  0.01267890  0.83338952  0.78596910  1  -1.221459  0  -0.31674  -0.237166  0  3.43981  0
N  N179  1  0.22598177  0.66679492  0.21446900  1  -1.191569  0  -0.316282  -0.237695  0  3.44416  0
N  N180  1  0.09954563  0.10455143  0.78162988  1  -1.196852  0  -0.308713  -0.236029  0  3.438795  0
N  N181  1  0.31669755  0.39565415  0.21860079  1  -1.203236  0  -0.309886  -0.237841  0  3.439224  0
N  N182  1  0.90046200  0.89544569  0.21836834  1  -1.197234  0  -0.308816  -0.236065  0  3.439099  0
N  N183  1  0.68329990  0.60435605  0.78139947  1  -1.20318  0  -0.310036  -0.238012  0  3.439079  0
N  N184  1  0.08595817  0.12955100  0.98826614  1  -0.452481  0  -0.132309  -0.111259  0  3.274383  0
N  N185  1  0.09773549  0.37016473  0.01162951  1  -0.452496  0  -0.131253  -0.111522  0  3.272563  0
N  N186  1  0.91405138  0.87045843  0.01173724  1  -0.452634  0  -0.132264  -0.111335  0  3.274311  0
N  N187  1  0.90224831  0.62981635  0.98836812  1  -0.451506  0  -0.131245  -0.111493  0  3.272357  0
N  N188  1  0.97437888  0.12206188  0.00113109  1  -0.426169  0  -0.137659  -0.123147  0  3.219982  0
N  N189  1  0.97339608  0.37828878  0.99855116  1  -0.423064  0  -0.137331  -0.122569  0  3.22138  0
N  N190  1  0.02563487  0.87793368  0.99887318  1  -0.42635  0  -0.137627  -0.12302  0  3.219842  0
N  N191  1  0.02659377  0.62172367  0.00144564  1  -0.423815  0  -0.137372  -0.122672  0  3.221331  0
O  O192  1  0.20133019  0.15107380  0.44956540  1  -1.182891  0  -0.322994  -0.56212  0  2.128085  0
O  O193  1  0.75186569  0.34900024  0.55025405  1  -1.175438  0  -0.322519  -0.561737  0  2.129599  0
O  O194  1  0.79868544  0.84895843  0.55042527  1  -1.183478  0  -0.323145  -0.56241  0  2.127997  0
O  O195  1  0.24813476  0.65098021  0.44973827  1  -1.174981  0  -0.322493  -0.561757  0  2.129753  0
O  O196  1  0.17865600  0.09037145  0.33395635  1  -1.144482  0  -0.319483  -0.536264  0  2.260788  0
O  O197  1  0.84491859  0.40969901  0.66588394  1  -1.141193  0  -0.318637  -0.535533  0  2.26236  0
O  O198  1  0.82131055  0.90959287  0.66604127  1  -1.144395  0  -0.319408  -0.53614  0  2.261112  0
O  O199  1  0.15503617  0.59031999  0.33411315  1  -1.141181  0  -0.318585  -0.535483  0  2.262709  0
O  O200  1  0.08276318  0.94284134  0.38907667  1  -1.143927  0  -0.308369  -0.511708  0  2.326211  0
O  O201  1  0.69374434  0.55712213  0.61063942  1  -1.14126  0  -0.307671  -0.509419  0  2.327733  0
O  O202  1  0.91722834  0.05711055  0.61096717  1  -1.14334  0  -0.308208  -0.51161  0  2.326802  0
O  O203  1  0.30617538  0.44290970  0.38928620  1  -1.14126  0  -0.30795  -0.509633  0  2.328044  0
O  O204  1  0.14111785  0.79622043  0.33771687  1  -1.166607  0  -0.317912  -0.539515  0  2.331918  0
O  O205  1  0.80378102  0.70364773  0.66255136  1  -1.169046  0  -0.318139  -0.539765  0  2.332416  0
O  O206  1  0.85889317  0.20378883  0.66225277  1  -1.166034  0  -0.318069  -0.539612  0  2.33155  0
O  O207  1  0.19622442  0.29633745  0.33746358  1  -1.16925  0  -0.318067  -0.539709  0  2.332306  0
O  O208  1  0.77180909  0.17887276  0.29812440  1  -1.158099  0  -0.305257  -0.52984  0  2.260129  0
O  O209  1  0.47392048  0.32086445  0.70166659  1  -1.155164  0  -0.305889  -0.529063  0  2.259122  0
O  O210  1  0.22818672  0.82112583  0.70187304  1  -1.15806  0  -0.305315  -0.529941  0  2.260158  0
O  O211  1  0.52610096  0.67915748  0.29832996  1  -1.155683  0  -0.305723  -0.528873  0  2.259456  0
O  O212  1  0.87172290  0.06908839  0.35028339  1  -1.149717  0  -0.318326  -0.530838  0  2.280213  0
O  O213  1  0.52207078  0.43046485  0.64944278  1  -1.148162  0  -0.317024  -0.529745  0  2.280306  0
O  O214  1  0.12826659  0.93088860  0.64969748  1  -1.149846  0  -0.318244  -0.530966  0  2.279821  0
O  O215  1  0.47791815  0.56957302  0.35055961  1  -1.14874  0  -0.316942  -0.529725  0  2.280413  0
O  O216  1  0.51485041  0.23886482  0.33170963  1  -1.141289  0  -0.335639  -0.55436  0  2.231202  0
O  O217  1  0.18352139  0.26117572  0.66807281  1  -1.140258  0  -0.337021  -0.55565  0  2.230903  0
O  O218  1  0.48513917  0.76112867  0.66828705  1  -1.141347  0  -0.335717  -0.554465  0  2.231067  0
O  O219  1  0.81650457  0.73884007  0.33198707  1  -1.140916  0  -0.337017  -0.556127  0  2.230921  0
O  O220  1  0.46484156  0.20065658  0.21281705  1  -1.177798  0  -0.341009  -0.577162  0  2.106382  0
O  O221  1  0.25225926  0.29933038  0.78695242  1  -1.174086  0  -0.34191  -0.578331  0  2.105271  0
O  O222  1  0.53516995  0.79934639  0.78717964  1  -1.178061  0  -0.341018  -0.577249  0  2.10622  0
O  O223  1  0.74787182  0.70072764  0.21311153  1  -1.174165  0  -0.341946  -0.578397  0  2.105079  0
O  O224  1  0.88241533  0.92782097  0.45800850  1  -1.239403  0  -0.585411  -0.760201  0  2.050522  0
O  O225  1  0.42447645  0.57226478  0.54195554  1  -1.230251  0  -0.585468  -0.762001  0  2.049092  0
O  O226  1  0.11770122  0.07221542  0.54204060  1  -1.240017  0  -0.585869  -0.761226  0  2.04999  0
O  O227  1  0.57552846  0.42772119  0.45801165  1  -1.229945  0  -0.585571  -0.7619  0  2.049902  0
