# generated using pymatgen
data_Co5H16C36(N5O12)2
_symmetry_space_group_name_H-M   'P 1'
_cell_length_a   9.18753946
_cell_length_b   10.86340796
_cell_length_c   12.16282193
_cell_angle_alpha   109.03493607
_cell_angle_beta   90.35382885
_cell_angle_gamma   106.63934023
_symmetry_Int_Tables_number   1
_chemical_formula_structural   Co5H16C36(N5O12)2
_chemical_formula_sum   'Co5 H16 C36 N10 O24'
_cell_volume   1092.85144864
_cell_formula_units_Z   1
loop_
 _symmetry_equiv_pos_site_id
 _symmetry_equiv_pos_as_xyz
  1  'x, y, z'
loop_
 _atom_site_type_symbol
 _atom_site_label
 _atom_site_symmetry_multiplicity
 _atom_site_fract_x
 _atom_site_fract_y
 _atom_site_fract_z
 _atom_site_occupancy
 _atom_site_pbe_bader_charge
 _atom_site_pbe_bader_spin_density
 _atom_site_pbe_cm5_charge
 _atom_site_pbe_ddec_charge
 _atom_site_pbe_ddec_spin_density
 _atom_site_pbe_ddec_sum_bond_order
 _atom_site_pbe_magmom
Co  Co0  1  0.16740756  0.25874431  0.37253843  1  1.257944  2.558451  0.686343  0.906957  2.754311  2.449805  2.511
Co  Co1  1  0.08238902  0.68583051  0.82532510  1  1.274797  2.593361  0.703696  0.954608  2.792437  2.407694  2.545
Co  Co2  1  0.83258270  0.74125384  0.62745836  1  1.257955  2.558473  0.6863  0.906906  2.754331  2.449855  2.511
Co  Co3  1  0.91760757  0.31416055  0.17467380  1  1.274782  2.593375  0.703674  0.954574  2.79246  2.407742  2.545
Co  Co4  1  0.49999900  0.49999759  0.49999800  1  1.151218  1.047163  0.679328  0.732751  1.113515  2.880061  1.03
H  H5  1  0.82372957  0.95691271  0.42714854  1  0.155938  0.000479  0.122199  0.139952  3.9e-05  0.972609  0.0
H  H6  1  0.54379822  0.05613594  0.20288359  1  0.158041  0.000122  0.126029  0.147617  -0.000134  0.983484  0.0
H  H7  1  0.33238026  0.78403103  0.38615908  1  0.136372  2.6e-05  0.11633  0.127886  -8.5e-05  1.000589  0.0
H  H8  1  0.85957066  0.49811591  0.90024052  1  0.144851  0.000793  0.118038  0.130848  0.000311  1.025643  0.0
H  H9  1  0.44250975  0.25008890  0.97490757  1  0.176074  0.000443  0.124675  0.143089  0.000261  0.983262  0.0
H  H10  1  0.42159084  0.48106316  0.75069699  1  0.147509  0.000217  0.117807  0.119605  -2.9e-05  1.051522  0.0
H  H11  1  0.61469656  0.31150079  0.28368702  1  0.163734  0.001042  0.147321  0.12642  2.6e-05  0.988741  0.001
H  H12  1  0.04482589  0.60304380  0.41935651  1  0.17427  0.000243  0.145904  0.116683  -0.000461  0.952019  0.0
H  H13  1  0.17625379  0.04309449  0.57285740  1  0.155744  0.00048  0.122203  0.140024  3.9e-05  0.972422  0.0
H  H14  1  0.45618894  0.94385606  0.79711136  1  0.157974  0.000122  0.126029  0.147561  -0.000134  0.983559  0.0
H  H15  1  0.66760018  0.21597717  0.61384547  1  0.136198  2.6e-05  0.116378  0.127956  -8.5e-05  1.000663  0.0
H  H16  1  0.14043868  0.50189061  0.09975811  1  0.145067  0.000792  0.11796  0.130714  0.000311  1.02551  0.0
H  H17  1  0.55750449  0.74992980  0.02511031  1  0.17568  0.000443  0.124733  0.143115  0.00026  0.983427  0.0
H  H18  1  0.57841823  0.51893618  0.24930694  1  0.14739  0.000217  0.117858  0.119622  -3e-05  1.051459  0.0
H  H19  1  0.38530042  0.68848823  0.71631375  1  0.163782  0.001042  0.147288  0.126322  2.6e-05  0.988747  0.001
H  H20  1  0.95516988  0.39694825  0.58064760  1  0.174219  0.000243  0.145909  0.116679  -0.000461  0.952107  0.0
C  C21  1  0.60135879  0.77547189  0.48404243  1  1.551871  -0.00414  0.22798  0.587311  -0.005941  4.127208  -0.003
C  C22  1  0.58046548  0.85933900  0.41288499  1  0.023535  0.004772  -0.013435  -0.028578  0.002112  3.979204  0.004
C  C23  1  0.71147493  0.94621863  0.38871478  1  -0.019154  9e-05  -0.060929  -0.08676  -0.000866  3.875971  0.0
C  C24  1  0.69924593  0.01516101  0.31171520  1  -0.034691  0.009205  -0.009067  -0.018374  0.00437  3.951929  0.007
C  C25  1  0.55496952  0.00393110  0.26373253  1  -0.019295  -0.00122  -0.061268  -0.121067  -0.001827  3.886443  -0.001
C  C26  1  0.42594920  0.92419259  0.29551189  1  0.201144  0.001302  0.074915  0.05926  0.000549  3.954223  0.001
C  C27  1  0.43584517  0.84868422  0.36681639  1  -0.009297  -0.00036  -0.068469  -0.130303  -0.001101  3.945044  0.0
C  C28  1  0.83972207  0.10369162  0.28233139  1  1.5716  -0.000736  0.226693  0.595016  -0.00119  4.162558  0.002
C  C29  1  0.72206631  0.59368590  0.75434850  1  1.49454  0.002126  0.227081  0.605211  0.000285  4.077204  0.004
C  C30  1  0.64919135  0.49986060  0.81670705  1  -0.014509  0.002141  -0.010493  -0.03168  0.000382  3.953172  0.002
C  C31  1  0.73512522  0.45950011  0.88691207  1  -0.018882  0.00033  -0.055587  -0.074649  -0.00035  3.838202  0.0
C  C32  1  0.66010767  0.37051274  0.94418626  1  0.027858  0.001986  -0.012418  -0.024551  0.00099  3.959174  0.001
C  C33  1  0.50024309  0.31932427  0.93025257  1  -0.000473  -0.001237  -0.059951  -0.118158  -0.001767  3.92703  -0.001
C  C34  1  0.41810777  0.35961454  0.85962503  1  0.185744  0.001035  0.071354  0.044785  0.00036  3.972284  0.001
C  C35  1  0.48942742  0.44988485  0.80360226  1  0.033295  -0.001521  -0.058496  -0.101405  -0.002011  3.914815  -0.001
C  C36  1  0.74367639  0.33233436  0.02717356  1  1.510394  0.000571  0.198855  0.547609  -0.000308  4.204265  -0.002
C  C37  1  0.70571506  0.39784479  0.33970634  1  0.991363  -0.001916  0.148399  0.14826  -0.002926  3.93708  -0.001
C  C38  1  0.92447513  0.54636912  0.40829101  1  0.96207  -0.002461  0.155461  0.177189  -0.00342  3.952348  0.002
C  C39  1  0.39863590  0.22452633  0.51595032  1  1.552779  -0.004142  0.227978  0.587263  -0.005941  4.127356  -0.003
C  C40  1  0.41951870  0.14065397  0.58711268  1  0.02303  0.004775  -0.01342  -0.028725  0.002113  3.979179  0.004
C  C41  1  0.28851015  0.05378046  0.61128552  1  -0.019107  9e-05  -0.060913  -0.086665  -0.000865  3.875834  0.0
C  C42  1  0.30074390  0.98483918  0.68828218  1  -0.034746  0.009207  -0.009032  -0.018404  0.004372  3.951957  0.008
C  C43  1  0.44501678  0.99606496  0.73626443  1  -0.019315  -0.00122  -0.061357  -0.121167  -0.001827  3.886478  -0.001
C  C44  1  0.57404101  0.07580863  0.70448333  1  0.200945  0.001301  0.074903  0.059383  0.000549  3.954108  0.001
C  C45  1  0.56414174  0.15131386  0.63318527  1  -0.00892  -0.000358  -0.06853  -0.130356  -0.0011  3.945345  0.0
C  C46  1  0.16026669  0.89630546  0.71767000  1  1.57157  -0.000734  0.226804  0.595132  -0.001191  4.16208  0.002
C  C47  1  0.27793755  0.40632054  0.24565169  1  1.49476  0.002123  0.227097  0.605431  0.000283  4.077473  0.004
C  C48  1  0.35082411  0.50012859  0.18330056  1  -0.01421  0.002142  -0.010559  -0.032029  0.000382  3.953593  0.002
C  C49  1  0.26489576  0.54050550  0.11308972  1  -0.006228  0.000328  -0.055524  -0.074383  -0.000352  3.837812  0.0
C  C50  1  0.33990003  0.62949884  0.05581712  1  0.015308  0.001988  -0.012393  -0.024661  0.000991  3.959391  0.001
C  C51  1  0.49977297  0.68068636  0.06975393  1  2.6e-05  -0.001242  -0.060032  -0.118265  -0.001772  3.927045  -0.001
C  C52  1  0.58191694  0.64038600  0.14037943  1  0.185469  0.001036  0.071499  0.045034  0.000361  3.971917  0.001
C  C53  1  0.51058441  0.55010945  0.19639530  1  0.033287  -0.001523  -0.058583  -0.101373  -0.002014  3.914648  -0.001
C  C54  1  0.25633702  0.66766811  0.97282723  1  1.510213  0.000573  0.198799  0.547557  -0.000307  4.204915  -0.002
C  C55  1  0.29428321  0.60215139  0.66029408  1  0.991351  -0.001917  0.148384  0.148426  -0.002927  3.937198  -0.001
C  C56  1  0.07552211  0.45362707  0.59170529  1  0.961912  -0.002465  0.155561  0.17726  -0.003423  3.952505  0.002
N  N57  1  0.82583051  0.58507764  0.48184143  1  -0.770443  0.069007  -0.261526  -0.251531  0.035249  3.578423  0.058
N  N58  1  0.68576060  0.49026962  0.43647636  1  -0.744194  -0.004441  -0.274229  -0.164278  -0.007034  3.657852  -0.005
N  N59  1  0.85395150  0.42974767  0.31843491  1  -1.216124  0.072228  -0.363458  -0.370238  0.037334  3.621791  0.054
N  N60  1  0.27253966  0.91851896  0.25186748  1  0.40259  0.000621  0.057451  0.515837  0.000134  4.207206  0.0
N  N61  1  0.24945071  0.30646466  0.84449729  1  0.350632  -4.6e-05  0.057306  0.507363  -0.000123  4.211808  0.0
N  N62  1  0.17416349  0.41491853  0.51815153  1  -0.770617  0.069011  -0.26164  -0.25159  0.035248  3.578388  0.058
N  N63  1  0.31423655  0.50972963  0.56352083  1  -0.744149  -0.00444  -0.27417  -0.164277  -0.007032  3.657739  -0.005
N  N64  1  0.14605112  0.57024855  0.68156639  1  -1.216094  0.072232  -0.363471  -0.370364  0.037336  3.622047  0.054
N  N65  1  0.72744868  0.08148016  0.74813451  1  0.402519  0.000621  0.057442  0.515665  0.000134  4.207411  0.0
N  N66  1  0.75056455  0.69354299  0.15549270  1  0.350942  -4.5e-05  0.057121  0.507057  -0.000123  4.21185  0.0
O  O67  1  0.96061088  0.14346806  0.35336772  1  -1.147917  0.101144  -0.308773  -0.541109  0.051622  2.416645  0.078
O  O68  1  0.71842970  0.82744488  0.55936705  1  -1.12962  0.090126  -0.301857  -0.528918  0.046275  2.449481  0.071
O  O69  1  0.64274609  0.62660106  0.68771521  1  -1.141045  0.095845  -0.285478  -0.534309  0.049871  2.348581  0.075
O  O70  1  0.86792987  0.64539060  0.76262859  1  -1.178737  0.114445  -0.305511  -0.591727  0.061692  2.538033  0.091
O  O71  1  0.50212549  0.65805955  0.46068334  1  -1.10794  0.007691  -0.288442  -0.498721  0.002159  2.47349  0.007
O  O72  1  0.82635956  0.13562264  0.19216785  1  -1.132491  0.074315  -0.302823  -0.533304  0.037377  2.388838  0.056
O  O73  1  0.89163618  0.36745856  0.03742596  1  -1.066331  0.112925  -0.310909  -0.527573  0.057263  2.26865  0.087
O  O74  1  0.66955339  0.26978506  0.08990589  1  -1.13652  0.072595  -0.294545  -0.515456  0.035655  2.166641  0.063
O  O75  1  0.26608573  0.98599648  0.18810208  1  -0.462665  0.002295  -0.124098  -0.326403  0.00104  1.895256  0.0
O  O76  1  0.16063332  0.84778792  0.28292292  1  -0.438426  0.00222  -0.12499  -0.324867  0.000967  1.938926  0.002
O  O77  1  0.18809110  0.23482193  0.90245769  1  -0.4279  0.000202  -0.115807  -0.309671  -4.6e-05  1.912194  0.0
O  O78  1  0.18074225  0.33735520  0.77444492  1  -0.455002  8.3e-05  -0.12087  -0.314171  -0.000227  1.955306  0.0
O  O79  1  0.03937937  0.85653008  0.64662989  1  -1.147676  0.101147  -0.308817  -0.541102  0.051626  2.416375  0.078
O  O80  1  0.28156578  0.17255234  0.44062295  1  -1.129774  0.090125  -0.301885  -0.528924  0.046275  2.449599  0.071
O  O81  1  0.35723768  0.37340411  0.31229014  1  -1.1409  0.095857  -0.285474  -0.534339  0.049877  2.348767  0.075
O  O82  1  0.13208057  0.35461593  0.23736924  1  -1.179135  0.114447  -0.305529  -0.591761  0.061691  2.537838  0.091
O  O83  1  0.49787912  0.34193573  0.53930784  1  -1.10793  0.007696  -0.288425  -0.498695  0.002162  2.473515  0.007
O  O84  1  0.17362857  0.86437241  0.80783048  1  -1.132825  0.07431  -0.302874  -0.533379  0.037376  2.388715  0.056
O  O85  1  0.10838467  0.63255009  0.96258000  1  -1.066114  0.112915  -0.310835  -0.527466  0.057261  2.269056  0.087
O  O86  1  0.33045896  0.73020416  0.91008936  1  -1.136601  0.072586  -0.294587  -0.515429  0.03565  2.166706  0.063
O  O87  1  0.73390518  0.01400371  0.81189613  1  -0.462498  0.002294  -0.124049  -0.326305  0.001039  1.895568  0.0
O  O88  1  0.83936228  0.15221333  0.71707731  1  -0.438353  0.002221  -0.125008  -0.324829  0.000968  1.938797  0.002
O  O89  1  0.81191937  0.76518152  0.09754417  1  -0.428156  0.000202  -0.115683  -0.309482  -4.6e-05  1.912385  0.0
O  O90  1  0.81928634  0.66265357  0.22555377  1  -0.455288  8.4e-05  -0.120871  -0.31417  -0.000227  1.955031  0.0
