# generated using pymatgen
data_ZnH36C52(NO2)4
_symmetry_space_group_name_H-M   'P 1'
_cell_length_a   9.01657386
_cell_length_b   13.71806204
_cell_length_c   21.08756061
_cell_angle_alpha   92.67025738
_cell_angle_beta   89.99998957
_cell_angle_gamma   90.00000152
_symmetry_Int_Tables_number   1
_chemical_formula_structural   ZnH36C52(NO2)4
_chemical_formula_sum   'Zn2 H72 C104 N8 O16'
_cell_volume   2605.48654644
_cell_formula_units_Z   2
loop_
 _symmetry_equiv_pos_site_id
 _symmetry_equiv_pos_as_xyz
  1  'x, y, z'
loop_
 _atom_site_type_symbol
 _atom_site_label
 _atom_site_symmetry_multiplicity
 _atom_site_fract_x
 _atom_site_fract_y
 _atom_site_fract_z
 _atom_site_occupancy
 _atom_site_pbe_bader_charge
 _atom_site_pbe_bader_spin_density
 _atom_site_pbe_cm5_charge
 _atom_site_pbe_ddec_charge
 _atom_site_pbe_ddec_spin_density
 _atom_site_pbe_ddec_sum_bond_order
 _atom_site_pbe_magmom
Zn  Zn0  1  0.99999948  0.49999994  0.49999990  1  1.270349  0  0.716028  0.738083  0  2.394413  0
Zn  Zn1  1  0.50000035  0.50000016  0.99999982  1  1.270388  0  0.716038  0.73808  0  2.394406  0
H  H2  1  0.50633079  0.65151601  0.58594633  1  0.107148  0  0.104297  0.126253  0  1.017553  0
H  H3  1  0.00633038  0.34848437  0.91405364  1  0.107146  0  0.10429  0.126211  0  1.017572  0
H  H4  1  0.49366859  0.34848386  0.41405350  1  0.107135  0  0.104304  0.126264  0  1.017552  0
H  H5  1  0.99367011  0.65151697  0.08594624  1  0.107157  0  0.104289  0.126205  0  1.017576  0
H  H6  1  0.41128247  0.53813361  0.67808684  1  0.071495  0  0.099199  0.115001  0  1.048465  0
H  H7  1  0.91128167  0.46186678  0.82191310  1  0.071493  0  0.099202  0.115004  0  1.048442  0
H  H8  1  0.58871802  0.46186626  0.32191347  1  0.071497  0  0.099198  0.114998  0  1.048467  0
H  H9  1  0.08871771  0.53813383  0.17808676  1  0.071498  0  0.099166  0.114928  0  1.04842  0
H  H10  1  0.94289681  0.31073383  0.71213231  1  0.084637  0  0.106157  0.125222  0  1.002467  0
H  H11  1  0.44289646  0.68926583  0.78786761  1  0.084637  0  0.106161  0.125227  0  1.002458  0
H  H12  1  0.05710368  0.68926605  0.28786753  1  0.084635  0  0.106159  0.12522  0  1.002456  0
H  H13  1  0.55710292  0.31073405  0.21213223  1  0.084639  0  0.106159  0.12522  0  1.002467  0
H  H14  1  0.69798339  0.26350561  0.64433470  1  0.081184  0  0.102985  0.119148  0  1.017923  0
H  H15  1  0.19798413  0.73649404  0.85566523  1  0.081191  0  0.102998  0.119163  0  1.017913  0
H  H16  1  0.30201599  0.73649426  0.35566561  1  0.081189  0  0.10299  0.119144  0  1.01795  0
H  H17  1  0.80201636  0.26350583  0.14433461  1  0.081185  0  0.103  0.119161  0  1.017915  0
H  H18  1  0.59979758  0.60320580  0.47063295  1  0.073599  0  0.103687  0.113834  0  1.021906  0
H  H19  1  0.09979844  0.39679356  0.02936678  1  0.073604  0  0.10369  0.113835  0  1.021905  0
H  H20  1  0.40020180  0.39679335  0.52936734  1  0.073618  0  0.103676  0.113829  0  1.021854  0
H  H21  1  0.90020205  0.60320631  0.97063258  1  0.073603  0  0.103689  0.113829  0  1.021906  0
H  H22  1  0.80776350  0.71466789  0.45108978  1  0.11391  0  0.107039  0.108346  0  1.038469  0
H  H23  1  0.30776435  0.28533221  0.04891043  1  0.113906  0  0.107036  0.108335  0  1.038485  0
H  H24  1  0.19223477  0.28533125  0.54891051  1  0.113903  0  0.107049  0.108353  0  1.038455  0
H  H25  1  0.69223614  0.71466840  0.95108943  1  0.113913  0  0.107054  0.108393  0  1.038406  0
H  H26  1  0.50458404  0.95769434  0.45152494  1  0.116999  0  0.105476  0.108007  0  1.012116  0
H  H27  1  0.00458377  0.04230576  0.04847530  1  0.117  0  0.105476  0.10801  0  1.012116  0
H  H28  1  0.49541533  0.04230481  0.54847535  1  0.116921  0  0.105476  0.107998  0  1.012157  0
H  H29  1  0.99541672  0.95769412  0.95152501  1  0.116942  0  0.105491  0.108019  0  1.012086  0
H  H30  1  0.29495785  0.84521938  0.47037348  1  0.094387  0  0.103559  0.110223  0  1.018262  0
H  H31  1  0.79495827  0.15477999  0.02962671  1  0.094394  0  0.103561  0.11023  0  1.018214  0
H  H32  1  0.70504042  0.15477976  0.52962633  1  0.094378  0  0.10355  0.110215  0  1.018284  0
H  H33  1  0.20504222  0.84521989  0.97037360  1  0.094382  0  0.103565  0.110242  0  1.018212  0
H  H34  1  0.12325185  0.88498985  0.38117153  1  0.095499  0  0.10386  0.111583  0  1.012453  0
H  H35  1  0.62325112  0.11501097  0.11882872  1  0.095495  0  0.103843  0.111589  0  1.012446  0
H  H36  1  0.87674864  0.11501075  0.61882880  1  0.095495  0  0.103851  0.1116  0  1.012456  0
H  H37  1  0.37674826  0.88498963  0.88117114  1  0.095491  0  0.10386  0.111589  0  1.012473  0
H  H38  1  0.07198625  0.97251447  0.44374284  1  0.096981  0  0.102225  0.108853  0  1.011744  0
H  H39  1  0.57198776  0.02748563  0.05625739  1  0.096744  0  0.10222  0.108857  0  1.011731  0
H  H40  1  0.92801202  0.02748541  0.55625747  1  0.096743  0  0.10222  0.108862  0  1.011721  0
H  H41  1  0.42801273  0.97251498  0.94374294  1  0.096735  0  0.102195  0.108807  0  1.011767  0
H  H42  1  0.00318851  0.98599234  0.36483795  1  0.078  0  0.105653  0.11068  0  0.980091  0
H  H43  1  0.50318888  0.01400776  0.13516181  1  0.078007  0  0.105661  0.110693  0  0.980081  0
H  H44  1  0.99681197  0.01400754  0.63516188  1  0.077999  0  0.105651  0.110674  0  0.980086  0
H  H45  1  0.49681160  0.98599285  0.86483852  1  0.078004  0  0.105635  0.11064  0  0.980077  0
H  H46  1  0.11829755  0.53685128  0.76210144  1  0.078932  0  0.103092  0.108246  0  1.000396  0
H  H47  1  0.61829790  0.46314837  0.73789897  1  0.078917  0  0.103099  0.10826  0  1.000394  0
H  H48  1  0.88170183  0.46314859  0.23789934  1  0.07892  0  0.103081  0.10824  0  1.000418  0
H  H49  1  0.38170259  0.53685150  0.26210039  1  0.078936  0  0.103098  0.108273  0  1.000377  0
H  H50  1  0.22341506  0.48415869  0.86467295  1  0.127976  0  0.106167  0.108975  0  1.026549  0
H  H51  1  0.72341435  0.51584169  0.63532748  1  0.127992  0  0.106168  0.109003  0  1.026533  0
H  H52  1  0.77658542  0.51584118  0.13532736  1  0.127987  0  0.106172  0.108996  0  1.02654  0
H  H53  1  0.27658614  0.48415892  0.36467285  1  0.12798  0  0.106154  0.108968  0  1.026567  0
H  H54  1  0.40909980  0.22925017  0.76831991  1  0.094406  0  0.105401  0.105419  0  1.005998  0
H  H55  1  0.90909905  0.77074949  0.73168048  1  0.094407  0  0.105403  0.105432  0  1.00598  0
H  H56  1  0.59090069  0.77074898  0.23168037  1  0.094414  0  0.105395  0.10542  0  1.005995  0
H  H57  1  0.09090033  0.22925112  0.26831985  1  0.094418  0  0.105397  0.105415  0  1.005986  0
H  H58  1  0.29893381  0.27931882  0.66663269  1  0.098887  0  0.097335  0.103194  0  1.039975  0
H  H59  1  0.79893301  0.72068084  0.83336724  1  0.098893  0  0.097335  0.103216  0  1.039965  0
H  H60  1  0.70106668  0.72068106  0.33336715  1  0.098896  0  0.097339  0.103233  0  1.039955  0
H  H61  1  0.20106637  0.27931904  0.16663260  1  0.098898  0  0.097332  0.103197  0  1.039986  0
H  H62  1  0.58991678  0.14255497  0.92365021  1  0.117073  0  0.10242  0.11961  0  1.026408  0
H  H63  1  0.08991764  0.85744468  0.57635020  1  0.117041  0  0.102427  0.119633  0  1.026436  0
H  H64  1  0.41008370  0.85744490  0.07635010  1  0.117049  0  0.102413  0.119597  0  1.026428  0
H  H65  1  0.91008285  0.14255592  0.42364965  1  0.117049  0  0.102419  0.11962  0  1.026417  0
H  H66  1  0.43356470  0.18950484  0.96869387  1  0.066719  0  0.096229  0.097773  0  1.033504  0
H  H67  1  0.93356515  0.81049554  0.53130654  1  0.066735  0  0.09625  0.097792  0  1.033488  0
H  H68  1  0.56643578  0.81049576  0.03130646  1  0.066721  0  0.096242  0.097786  0  1.033462  0
H  H69  1  0.06643534  0.18950433  0.46869330  1  0.066724  0  0.096243  0.097792  0  1.033501  0
H  H70  1  0.59445841  0.26340943  0.96088204  1  0.080643  0  0.097694  0.102034  0  1.053225  0
H  H71  1  0.09445817  0.73659095  0.53911840  1  0.08066  0  0.0977  0.102047  0  1.053211  0
H  H72  1  0.40554207  0.73659117  0.03911830  1  0.080656  0  0.097698  0.102044  0  1.05321  0
H  H73  1  0.90554232  0.26340966  0.46088193  1  0.080645  0  0.097691  0.102045  0  1.053218  0
C  C74  1  0.30462560  0.64909162  0.47840107  1  -0.018229  0  0.00205  -0.077736  0  3.92476  0
C  C75  1  0.80462492  0.35090921  0.02159917  1  -0.018205  0  0.002022  -0.077738  0  3.924808  0
C  C76  1  0.69537378  0.35090826  0.52159924  1  -0.018418  0  0.002032  -0.077735  0  3.92474  0
C  C77  1  0.19537446  0.64909140  0.97840117  1  -0.018327  0  0.002012  -0.077758  0  3.924849  0
C  C78  1  0.29883846  0.59807111  0.53491808  1  0.441961  0  0.092177  0.183828  0  4.039805  0
C  C79  1  0.79883871  0.40192927  0.96508187  1  0.441955  0  0.092201  0.183888  0  4.039783  0
C  C80  1  0.70116092  0.40192876  0.46508176  1  0.442046  0  0.092166  0.183796  0  4.039831  0
C  C81  1  0.20116067  0.59807133  0.03491846  1  0.442049  0  0.092179  0.18381  0  4.03983  0
C  C82  1  0.40673531  0.60711371  0.58585927  1  -0.105531  0  -0.102859  -0.177617  0  3.958954  0
C  C83  1  0.90673447  0.39288595  0.91414065  1  -0.10552  0  -0.102853  -0.177555  0  3.958898  0
C  C84  1  0.59326407  0.39288544  0.41414102  1  -0.105512  0  -0.102866  -0.177615  0  3.958934  0
C  C85  1  0.09326602  0.60711393  0.08585919  1  -0.105549  0  -0.102841  -0.177538  0  3.958977  0
C  C86  1  0.35839654  0.54954191  0.63282154  1  -0.002381  0  -0.105752  -0.183925  0  3.979528  0
C  C87  1  0.85839683  0.45045847  0.86717841  1  -0.002387  0  -0.105757  -0.183921  0  3.979472  0
C  C88  1  0.64160284  0.45045796  0.36717830  1  -0.00235  0  -0.105739  -0.183922  0  3.979503  0
C  C89  1  0.14160255  0.54954213  0.13282145  1  -0.002352  0  -0.105741  -0.18387  0  3.979441  0
C  C90  1  0.22061583  0.50539232  0.61120373  1  0.38693  0  0.090221  0.183438  0  4.050147  0
C  C91  1  0.72061611  0.49460806  0.88879575  1  0.38693  0  0.09016  0.183343  0  4.050183  0
C  C92  1  0.77938355  0.49460828  0.38879613  1  0.386899  0  0.090237  0.183472  0  4.050103  0
C  C93  1  0.27938438  0.50539181  0.11120361  1  0.386904  0  0.090241  0.183463  0  4.050075  0
C  C94  1  0.13724491  0.43947856  0.64588937  1  0.054279  0  0.003384  -0.072622  0  3.919367  0
C  C95  1  0.63724521  0.56052110  0.85411057  1  0.054241  0  0.003358  -0.072651  0  3.919447  0
C  C96  1  0.86275447  0.56052132  0.35411094  1  0.054245  0  0.00337  -0.072647  0  3.919421  0
C  C97  1  0.36275528  0.43947878  0.14588879  1  0.054246  0  0.00338  -0.072634  0  3.919381  0
C  C98  1  0.00287902  0.39539184  0.62648991  1  0.413122  0  0.090784  0.181966  0  4.055921  0
C  C99  1  0.50288042  0.60460854  0.87351006  1  0.413032  0  0.090779  0.181952  0  4.05593  0
C  C100  1  0.99712036  0.60460803  0.37351040  1  0.413129  0  0.090801  0.181973  0  4.055923  0
C  C101  1  0.49712007  0.39539206  0.12648980  1  0.413102  0  0.090797  0.181951  0  4.055934  0
C  C102  1  0.91479302  0.33224816  0.66468491  1  -0.064026  0  -0.100205  -0.173573  0  3.971026  0
C  C103  1  0.41479154  0.66775223  0.83531503  1  -0.064039  0  -0.100192  -0.173541  0  3.971047  0
C  C104  1  0.08520747  0.66775172  0.33531492  1  -0.064133  0  -0.100197  -0.173533  0  3.970997  0
C  C105  1  0.58520673  0.33224765  0.16468481  1  -0.064126  0  -0.100194  -0.173538  0  3.971  0
C  C106  1  0.79084905  0.30784194  0.63009713  1  -0.08399  0  -0.105074  -0.189488  0  3.985621  0
C  C107  1  0.29084866  0.69215772  0.86990327  1  -0.083888  0  -0.105093  -0.189529  0  3.985672  0
C  C108  1  0.20915144  0.69215794  0.36990318  1  -0.083867  0  -0.105092  -0.189544  0  3.985627  0
C  C109  1  0.70915072  0.30784216  0.13009657  1  -0.083853  0  -0.105077  -0.189501  0  3.985618  0
C  C110  1  0.80318301  0.35538838  0.57027068  1  0.448382  0  0.091848  0.180619  0  4.044832  0
C  C111  1  0.30318260  0.64461201  0.92972927  1  0.448256  0  0.091842  0.180623  0  4.044838  0
C  C112  1  0.19681747  0.64461150  0.42972963  1  0.448261  0  0.09181  0.180648  0  4.044771  0
C  C113  1  0.69681678  0.35538860  0.07027059  1  0.44825  0  0.091822  0.180588  0  4.044885  0
C  C114  1  0.43215298  0.71580670  0.46973668  1  -0.04945  0  0.003175  0.096641  0  3.985816  0
C  C115  1  0.93215229  0.28419267  0.03026350  1  -0.049444  0  0.003153  0.096583  0  3.985859  0
C  C116  1  0.56784640  0.28419172  0.53026406  1  -0.049441  0  0.003167  0.096633  0  3.985808  0
C  C117  1  0.06784820  0.71580720  0.96973634  1  -0.049449  0  0.00317  0.096616  0  3.985894  0
C  C118  1  0.57811640  0.68062425  0.46580028  1  0.054011  0  -0.084787  -0.122078  0  3.93029  0
C  C119  1  0.07811615  0.31937585  0.03419995  1  0.054013  0  -0.084788  -0.122063  0  3.930259  0
C  C120  1  0.42188298  0.31937490  0.53420001  1  0.054023  0  -0.084755  -0.122004  0  3.930149  0
C  C121  1  0.92188434  0.68062403  0.96580035  1  0.05401  0  -0.084784  -0.122024  0  3.930243  0
C  C122  1  0.69559007  0.74354370  0.45476290  1  -0.091733  0  -0.083121  -0.089541  0  3.98034  0
C  C123  1  0.19558981  0.25645640  0.04523732  1  -0.09171  0  -0.083118  -0.089519  0  3.98037  0
C  C124  1  0.30440931  0.25645545  0.54523739  1  -0.091742  0  -0.083136  -0.089606  0  3.980321  0
C  C125  1  0.80441068  0.74354347  0.95476251  1  -0.091727  0  -0.083102  -0.089574  0  3.980268  0
C  C126  1  0.66902788  0.84348994  0.44865880  1  -0.075086  0  -0.026654  -0.068909  0  4.042887  0
C  C127  1  0.16902761  0.15651015  0.05134048  1  -0.075068  0  -0.026634  -0.068918  0  4.042928  0
C  C128  1  0.33097261  0.15650993  0.55134104  1  -0.075108  0  -0.026645  -0.068918  0  4.04289  0
C  C129  1  0.83097288  0.84348972  0.94865889  1  -0.075083  0  -0.026664  -0.068963  0  4.04289  0
C  C130  1  0.52391622  0.87973075  0.45492628  1  -0.079139  0  -0.084466  -0.088206  0  3.987426  0
C  C131  1  0.02391595  0.12026934  0.04507396  1  -0.07914  0  -0.084479  -0.088214  0  3.987473  0
C  C132  1  0.47608316  0.12026840  0.54507354  1  -0.079106  0  -0.084471  -0.088162  0  3.987411  0
C  C133  1  0.97608343  0.87973053  0.95492635  1  -0.079146  0  -0.084483  -0.088167  0  3.987402  0
C  C134  1  0.40696936  0.81646001  0.46498482  1  0.000966  0  -0.088352  -0.133484  0  3.969698  0
C  C135  1  0.90696978  0.18354009  0.03501491  1  0.000953  0  -0.08837  -0.133502  0  3.969686  0
C  C136  1  0.59303002  0.18353914  0.53501500  1  0.000968  0  -0.088373  -0.133545  0  3.969747  0
C  C137  1  0.09303071  0.81646052  0.96498495  1  0.000956  0  -0.088392  -0.133568  0  3.969708  0
C  C138  1  0.78933522  0.91380328  0.43641914  1  1.484043  0  0.228358  0.497305  0  4.134904  0
C  C139  1  0.28933494  0.08619535  0.06358055  1  1.484021  0  0.228421  0.497345  0  4.134981  0
C  C140  1  0.21066527  0.08619440  0.56358063  1  1.484021  0  0.228407  0.497345  0  4.134966  0
C  C141  1  0.71066444  0.91380452  0.93641928  1  1.484061  0  0.228415  0.4974  0  4.134915  0
C  C142  1  0.03560104  0.93328866  0.39992383  1  0.298353  0  -0.137492  -0.169182  0  3.869068  0
C  C143  1  0.53560143  0.06671143  0.10007592  1  0.298585  0  -0.137486  -0.169208  0  3.869041  0
C  C144  1  0.96439834  0.06671122  0.60007600  1  0.298587  0  -0.13748  -0.1692  0  3.869018  0
C  C145  1  0.46439795  0.93328844  0.89992391  1  0.298589  0  -0.137457  -0.169113  0  3.869057  0
C  C146  1  0.20059157  0.41094317  0.70781297  1  -0.021643  0  0.004335  0.099844  0  3.991172  0
C  C147  1  0.70058968  0.58905575  0.79218741  1  -0.021671  0  0.004346  0.099939  0  3.991168  0
C  C148  1  0.79941003  0.58905524  0.29218777  1  -0.021676  0  0.004372  0.099966  0  3.991174  0
C  C149  1  0.29940970  0.41094486  0.20781244  1  -0.021671  0  0.004368  0.099987  0  3.991107  0
C  C150  1  0.18092334  0.46894959  0.76369258  1  -0.035656  0  -0.086737  -0.136642  0  3.956332  0
C  C151  1  0.68092257  0.53105006  0.73630783  1  -0.035672  0  -0.086732  -0.136702  0  3.956406  0
C  C152  1  0.81907715  0.53105028  0.23630773  1  -0.035655  0  -0.086725  -0.136674  0  3.956368  0
C  C153  1  0.31907681  0.46894981  0.26369201  1  -0.03566  0  -0.086734  -0.136742  0  3.95636  0
C  C154  1  0.24018419  0.44021522  0.82092454  1  -0.066242  0  -0.076493  -0.070055  0  3.957524  0
C  C155  1  0.74018346  0.55978443  0.67907634  1  -0.066237  0  -0.076538  -0.070111  0  3.957497  0
C  C156  1  0.75981630  0.55978465  0.17907625  1  -0.06628  0  -0.076537  -0.070116  0  3.957505  0
C  C157  1  0.25981703  0.44021544  0.32092397  1  -0.066291  0  -0.076502  -0.070038  0  3.957507  0
C  C158  1  0.32259021  0.35379755  0.82282809  1  -0.000721  0  -0.022708  -0.061983  0  4.030398  0
C  C159  1  0.82259059  0.64620284  0.67717233  1  -0.000694  0  -0.02269  -0.061982  0  4.030369  0
C  C160  1  0.67740917  0.64620233  0.17717222  1  -0.000663  0  -0.022682  -0.061959  0  4.030356  0
C  C161  1  0.17740990  0.35379777  0.32282800  1  -0.000671  0  -0.022717  -0.062031  0  4.030413  0
C  C162  1  0.34440450  0.29613691  0.76683930  1  -0.113021  0  -0.085248  -0.091572  0  3.998567  0
C  C163  1  0.84440374  0.70386274  0.73316157  1  -0.113062  0  -0.085261  -0.091571  0  3.998588  0
C  C164  1  0.65559599  0.70386223  0.23316146  1  -0.113059  0  -0.085248  -0.091548  0  3.998589  0
C  C165  1  0.15559674  0.29613786  0.26683876  1  -0.113057  0  -0.085226  -0.091499  0  3.998528  0
C  C166  1  0.28292661  0.32425586  0.71006555  1  -0.018704  0  -0.09112  -0.134308  0  3.963891  0
C  C167  1  0.78292694  0.67574306  0.78993483  1  -0.018662  0  -0.091124  -0.134389  0  3.963977  0
C  C168  1  0.71707277  0.67574255  0.28993472  1  -0.018654  0  -0.091143  -0.134442  0  3.963994  0
C  C169  1  0.21707244  0.32425754  0.21006550  1  -0.018648  0  -0.091152  -0.134435  0  3.963978  0
C  C170  1  0.38314757  0.32479855  0.88453014  1  1.474728  0  0.236271  0.511942  0  4.096462  0
C  C171  1  0.88314687  0.67520183  0.61547075  1  1.474719  0  0.23629  0.512007  0  4.09632  0
C  C172  1  0.61685292  0.67520132  0.11546970  1  1.474738  0  0.236288  0.51199  0  4.096367  0
C  C173  1  0.11685362  0.32479877  0.38453005  1  1.474741  0  0.236291  0.512026  0  4.096406  0
C  C174  1  0.52493201  0.20752487  0.93706335  1  0.315222  0  -0.1477  -0.171776  0  3.847012  0
C  C175  1  0.02493287  0.79247551  0.56293709  1  0.315226  0  -0.147716  -0.171801  0  3.84701  0
C  C176  1  0.47506737  0.79247501  0.06293696  1  0.315228  0  -0.147711  -0.171782  0  3.846974  0
C  C177  1  0.97506762  0.20752509  0.43706324  1  0.31523  0  -0.147725  -0.171828  0  3.847069  0
N  N178  1  0.18701217  0.53605812  0.55168589  1  -1.216349  0  -0.363046  -0.369981  0  3.431635  0
N  N179  1  0.68701242  0.46394227  0.94831454  1  -1.216358  0  -0.362985  -0.369954  0  3.431602  0
N  N180  1  0.81298721  0.46394176  0.44831442  1  -1.216341  0  -0.363063  -0.369984  0  3.431594  0
N  N181  1  0.31298696  0.53605834  0.05168580  1  -1.216345  0  -0.363058  -0.36998  0  3.431575  0
N  N182  1  0.93294184  0.40780078  0.56945697  1  -1.213507  0  -0.360068  -0.373528  0  3.441246  0
N  N183  1  0.43294253  0.59219960  0.93054344  1  -1.213487  0  -0.36004  -0.373517  0  3.44124  0
N  N184  1  0.06705754  0.59219909  0.43054334  1  -1.213508  0  -0.36008  -0.373577  0  3.441261  0
N  N185  1  0.56705796  0.40780100  0.06945690  1  -1.213546  0  -0.360075  -0.373528  0  3.441245  0
O  O186  1  0.77957429  0.00264803  0.44601742  1  -1.156908  0  -0.283995  -0.483933  0  2.162652  0
O  O187  1  0.27957516  0.99735279  0.05398234  1  -1.156932  0  -0.284045  -0.483941  0  2.162686  0
O  O188  1  0.22042509  0.99735403  0.55398248  1  -1.156935  0  -0.284022  -0.483923  0  2.162751  0
O  O189  1  0.72042533  0.00264708  0.94601749  1  -1.156925  0  -0.284029  -0.483975  0  2.162687  0
O  O190  1  0.91312393  0.86925823  0.41275182  1  -1.05525  0  -0.171399  -0.193536  0  2.545982  0
O  O191  1  0.41312364  0.13074113  0.08724789  1  -1.055231  0  -0.171408  -0.193558  0  2.546046  0
O  O192  1  0.08687656  0.13074164  0.58724802  1  -1.055226  0  -0.171429  -0.193588  0  2.545998  0
O  O193  1  0.58687573  0.86925874  0.91275194  1  -1.055236  0  -0.171404  -0.193559  0  2.546016  0
O  O194  1  0.35966525  0.36883153  0.93575198  1  -1.153833  0  -0.269996  -0.474789  0  2.27027  0
O  O195  1  0.85966456  0.63116885  0.56424796  1  -1.153798  0  -0.270003  -0.474822  0  2.2702  0
O  O196  1  0.64033524  0.63116907  0.06424835  1  -1.153827  0  -0.269996  -0.474803  0  2.270267  0
O  O197  1  0.14033703  0.36883102  0.43575235  1  -1.15384  0  -0.269983  -0.47481  0  2.270241  0
O  O198  1  0.46608706  0.24288029  0.87858659  1  -1.064113  0  -0.175778  -0.19852  0  2.52793  0
O  O199  1  0.96608857  0.75712009  0.62141429  1  -1.064114  0  -0.175787  -0.198556  0  2.527907  0
O  O200  1  0.53391122  0.75712031  0.12141422  1  -1.064112  0  -0.175792  -0.198552  0  2.527885  0
O  O201  1  0.03391192  0.24288051  0.37858604  1  -1.064101  0  -0.175792  -0.198547  0  2.527952  0
