# generated using pymatgen
data_Cu2H11C14Br2N5
_symmetry_space_group_name_H-M   'P 1'
_cell_length_a   7.39286109
_cell_length_b   9.86364100
_cell_length_c   11.33791676
_cell_angle_alpha   71.00640874
_cell_angle_beta   84.16409917
_cell_angle_gamma   71.76006368
_symmetry_Int_Tables_number   1
_chemical_formula_structural   Cu2H11C14Br2N5
_chemical_formula_sum   'Cu4 H22 C28 Br4 N10'
_cell_volume   742.47362615
_cell_formula_units_Z   2
loop_
 _symmetry_equiv_pos_site_id
 _symmetry_equiv_pos_as_xyz
  1  'x, y, z'
loop_
 _atom_site_type_symbol
 _atom_site_label
 _atom_site_symmetry_multiplicity
 _atom_site_fract_x
 _atom_site_fract_y
 _atom_site_fract_z
 _atom_site_occupancy
 _atom_site_pbe_bader_spin_density
 _atom_site_pbe_cm5_charge
 _atom_site_pbe_ddec_charge
 _atom_site_pbe_ddec_spin_density
 _atom_site_pbe_ddec_sum_bond_order
 _atom_site_pbe_magmom
Cu  Cu0  1  0.47734048  0.26601331  0.30313203  1  0  0.383548  0.257121  0  2.599376  0
Cu  Cu1  1  0.52264554  0.73399060  0.69686276  1  0  0.383542  0.257126  0  2.599378  0
Cu  Cu2  1  0.27416653  0.10504086  0.46366942  1  0  0.293062  0.221064  0  2.572525  0
Cu  Cu3  1  0.72582030  0.89500011  0.53632379  1  0  0.293011  0.221074  0  2.572294  0
H  H4  1  0.41637708  0.05173177  0.23312190  1  0  0.277557  0.275813  0  1.029186  0
H  H5  1  0.58362577  0.94825642  0.76688239  1  0  0.277514  0.275794  0  1.029217  0
H  H6  1  0.44140213  0.97513135  0.10984300  1  0  0.291526  0.290038  0  1.021149  0
H  H7  1  0.55859571  0.02485571  0.89016104  1  0  0.291554  0.290141  0  1.021101  0
H  H8  1  0.82951283  0.41367596  0.90101770  1  0  0.099159  0.1258  0  1.062746  0
H  H9  1  0.17049146  0.58631561  0.09898555  1  0  0.099148  0.125776  0  1.062785  0
H  H10  1  0.82832809  0.57679081  0.97820339  1  0  0.093822  0.108883  0  1.05506  0
H  H11  1  0.17169055  0.42319515  0.02180403  1  0  0.093844  0.108935  0  1.054945  0
H  H12  1  0.81247003  0.76553128  0.08381259  1  0  0.104216  0.104097  0  1.000667  0
H  H13  1  0.18754768  0.23445356  0.91619344  1  0  0.104196  0.10404  0  1.000746  0
H  H14  1  0.66052783  0.73665303  0.29640621  1  0  0.095506  0.111069  0  1.04916  0
H  H15  1  0.33947611  0.26334303  0.70359580  1  0  0.095491  0.111014  0  1.049222  0
H  H16  1  0.52225420  0.52489601  0.38969389  1  0  0.106318  0.077209  0  1.012633  0
H  H17  1  0.47774202  0.47509892  0.61030540  1  0  0.106312  0.077234  0  1.012628  0
H  H18  1  0.02888300  0.36425081  0.52466343  1  0  0.105812  0.079494  0  1.013401  0
H  H19  1  0.97110690  0.63576763  0.47534646  1  0  0.105727  0.079317  0  1.013467  0
H  H20  1  0.83943726  0.42018431  0.70633858  1  0  0.093929  0.102966  0  1.06332  0
H  H21  1  0.16055126  0.57981279  0.29367383  1  0  0.093904  0.10302  0  1.063194  0
H  H22  1  0.91133694  0.94333403  0.86566240  1  0  0.10355  0.111728  0  1.019997  0
H  H23  1  0.08867745  0.05666319  0.13433421  1  0  0.103523  0.111717  0  1.020106  0
H  H24  1  0.10275144  0.90815316  0.67813571  1  0  0.101605  0.078562  0  1.033586  0
H  H25  1  0.89726606  0.09186094  0.32185422  1  0  0.10158  0.078553  0  1.033573  0
C  C26  1  0.59017146  0.12411869  0.09364150  1  0  0.340585  0.569985  0  4.086501  0
C  C27  1  0.40981669  0.87587959  0.90635914  1  0  0.340519  0.569936  0  4.08695  0
C  C28  1  0.76241672  0.20869837  0.91874941  1  0  0.126323  0.248906  0  4.032507  0
C  C29  1  0.23757806  0.79129318  0.08125357  1  0  0.126314  0.248982  0  4.032543  0
C  C30  1  0.76469962  0.32892132  0.95799434  1  0  -0.105382  -0.294696  0  3.92886  0
C  C31  1  0.23529572  0.67107583  0.04201057  1  0  -0.105318  -0.294578  0  3.928855  0
C  C32  1  0.68477425  0.33347888  0.07430599  1  0  0.12276  0.221828  0  3.992851  0
C  C33  1  0.31521397  0.66652278  0.92569282  1  0  0.122781  0.221788  0  3.992957  0
C  C34  1  0.68246870  0.45071840  0.12907379  1  0  0.107226  0.159369  0  3.951261  0
C  C35  1  0.31753067  0.54927541  0.87092562  1  0  0.107213  0.159483  0  3.951075  0
C  C36  1  0.76305950  0.56685352  0.07012626  1  0  -0.082423  -0.137545  0  3.914367  0
C  C37  1  0.23695245  0.43313583  0.92987359  1  0  -0.082492  -0.137755  0  3.914316  0
C  C38  1  0.75436931  0.67233274  0.12904674  1  0  -0.073332  -0.023657  0  3.94719  0
C  C39  1  0.24564706  0.32765212  0.87095496  1  0  -0.073299  -0.023501  0  3.947151  0
C  C40  1  0.67078976  0.65682815  0.24684924  1  0  -0.087416  -0.120342  0  3.956865  0
C  C41  1  0.32921581  0.34316005  0.75315311  1  0  -0.087386  -0.12026  0  3.956867  0
C  C42  1  0.59253492  0.53930328  0.29901666  1  0  0.039346  0.092366  0  3.94975  0
C  C43  1  0.40746216  0.46068942  0.70098144  1  0  0.039373  0.092372  0  3.94969  0
C  C44  1  0.00155586  0.27425572  0.60377211  1  0  0.036338  0.091694  0  3.937572  0
C  C45  1  0.99843901  0.72576053  0.39622837  1  0  0.036515  0.091939  0  3.937462  0
C  C46  1  0.89494341  0.30429539  0.70514878  1  0  -0.086045  -0.162238  0  3.946278  0
C  C47  1  0.10506397  0.69571303  0.29485221  1  0  -0.086088  -0.1624  0  3.94654  0
C  C48  1  0.86286773  0.18471132  0.80459418  1  0  0.005159  0.068285  0  3.954714  0
C  C49  1  0.13713501  0.81529149  0.19540249  1  0  0.005234  0.068295  0  3.955041  0
C  C50  1  0.93480742  0.04013051  0.79272818  1  0  -0.08602  -0.148379  0  3.912036  0
C  C51  1  0.06519805  0.95987232  0.20726567  1  0  -0.086007  -0.148337  0  3.911995  0
C  C52  1  0.04224651  0.01957953  0.68853798  1  0  0.037415  0.097211  0  3.92527  0
C  C53  1  0.95775688  0.98043228  0.31145703  1  0  0.037435  0.097221  0  3.925173  0
Br  Br54  1  0.13714611  0.30788040  0.27603223  1  0  -0.245827  -0.401494  0  1.758727  0
Br  Br55  1  0.86284806  0.69212026  0.72394178  1  0  -0.245837  -0.401493  0  1.758522  0
Br  Br56  1  0.57741514  0.15905229  0.52180268  1  0  -0.223276  -0.349217  0  2.005507  0
Br  Br57  1  0.42256194  0.84097852  0.47819752  1  0  -0.223276  -0.349208  0  2.005372  0
N  N58  1  0.60395229  0.22801801  0.14473210  1  0  -0.363829  -0.379456  0  3.523976  0
N  N59  1  0.39603721  0.77198027  0.85526934  1  0  -0.363756  -0.379364  0  3.524113  0
N  N60  1  0.67355947  0.10768133  0.98543668  1  0  -0.324792  -0.438686  0  3.266518  0
N  N61  1  0.32643525  0.89230688  0.01456018  1  0  -0.324845  -0.438752  0  3.266745  0
N  N62  1  0.48982172  0.03087054  0.15665453  1  0  -0.571994  -0.618908  0  3.366142  0
N  N63  1  0.51017620  0.96911989  0.84334857  1  0  -0.571977  -0.619032  0  3.366266  0
N  N64  1  0.59332253  0.44034359  0.24089843  1  0  -0.349333  -0.229681  0  3.598744  0
N  N65  1  0.40667200  0.55965585  0.75909619  1  0  -0.349364  -0.229807  0  3.598637  0
N  N66  1  0.08059266  0.13393707  0.59616021  1  0  -0.365061  -0.18921  0  3.640247  0
N  N67  1  0.91940322  0.86608369  0.40383806  1  0  -0.365116  -0.189247  0  3.640293  0
