# generated using pymatgen
data_AgH7C5(NO)4
_symmetry_space_group_name_H-M   'P 1'
_cell_length_a   3.66487104
_cell_length_b   10.38776750
_cell_length_c   11.06318855
_cell_angle_alpha   76.69616688
_cell_angle_beta   83.95145863
_cell_angle_gamma   83.51979395
_symmetry_Int_Tables_number   1
_chemical_formula_structural   AgH7C5(NO)4
_chemical_formula_sum   'Ag2 H14 C10 N8 O8'
_cell_volume   405.87681915
_cell_formula_units_Z   2
loop_
 _symmetry_equiv_pos_site_id
 _symmetry_equiv_pos_as_xyz
  1  'x, y, z'
loop_
 _atom_site_type_symbol
 _atom_site_label
 _atom_site_symmetry_multiplicity
 _atom_site_fract_x
 _atom_site_fract_y
 _atom_site_fract_z
 _atom_site_occupancy
 _atom_site_hle17_bader_spin_density
 _atom_site_hle17_ddec_charge
 _atom_site_hle17_ddec_spin_density
 _atom_site_hle17_ddec_sum_bond_order
 _atom_site_hle17_magmom
 _atom_site_hse06_10hf_bader_spin_density
 _atom_site_hse06_10hf_ddec_charge
 _atom_site_hse06_10hf_ddec_spin_density
 _atom_site_hse06_10hf_ddec_sum_bond_order
 _atom_site_hse06_10hf_magmom
 _atom_site_hse06_bader_spin_density
 _atom_site_hse06_ddec_charge
 _atom_site_hse06_ddec_spin_density
 _atom_site_hse06_ddec_sum_bond_order
 _atom_site_hse06_magmom
 _atom_site_pbe_bader_spin_density
 _atom_site_pbe_cm5_charge
 _atom_site_pbe_ddec_charge
 _atom_site_pbe_ddec_spin_density
 _atom_site_pbe_ddec_sum_bond_order
 _atom_site_pbe_magmom
Ag  Ag0  1  0.91407554  0.06020014  0.11139641  1  0  0.600627  0  1.379219  0  0  0.471284  0  1.836443  0  0  0.504317  0  1.779838  0  0  0.447659  0.448214  0  1.875589  0
Ag  Ag1  1  0.08590302  0.93980452  0.88860447  1  0  0.600644  0  1.379215  0  0  0.471268  0  1.836455  0  0  0.504304  0  1.779856  0  0  0.447666  0.448194  0  1.875598  0
H  H2  1  0.78116196  0.35792257  0.95579617  1  0  0.116212  0  0.957909  0  0  0.132901  0  1.024584  0  0  0.133939  0  1.024026  0  0  0.107286  0.131881  0  1.025352  0
H  H3  1  0.21883397  0.64207807  0.04420401  1  0  0.116189  0  0.957863  0  0  0.132883  0  1.024546  0  0  0.13392  0  1.023987  0  0  0.107278  0.131862  0  1.025313  0
H  H4  1  0.32955338  0.43789046  0.94575771  1  0  0.111949  0  0.939117  0  0  0.133815  0  0.999931  0  0  0.134182  0  1.000222  0  0  0.110339  0.13341  0  0.999872  0
H  H5  1  0.67043721  0.56210920  0.05424018  1  0  0.111913  0  0.939153  0  0  0.133808  0  0.999943  0  0  0.134174  0  1.000233  0  0  0.110336  0.133404  0  0.999882  0
H  H6  1  0.68935610  0.50374685  0.83399833  1  0  0.117375  0  0.960918  0  0  0.129876  0  1.03434  0  0  0.131664  0  1.032904  0  0  0.109446  0.128525  0  1.035127  0
H  H7  1  0.31063951  0.49625478  0.16599894  1  0  0.117364  0  0.960884  0  0  0.129858  0  1.034341  0  0  0.131643  0  1.032907  0  0  0.109442  0.128509  0  1.035129  0
H  H8  1  0.87189267  0.99482416  0.36648187  1  0  0.328031  0  0.926533  0  0  0.306201  0  0.997293  0  0  0.314883  0  0.989513  0  0  0.29529  0.30015  0  1.002688  0
H  H9  1  0.12812060  0.00517245  0.63351671  1  0  0.328028  0  0.926523  0  0  0.306199  0  0.997286  0  0  0.314879  0  0.989507  0  0  0.295302  0.300148  0  1.002682  0
H  H10  1  0.76829944  0.87453810  0.50332347  1  0  0.339222  0  0.917346  0  0  0.317539  0  0.981961  0  0  0.32665  0  0.974215  0  0  0.298838  0.31098  0  0.987619  0
H  H11  1  0.23170765  0.12546152  0.49667469  1  0  0.339186  0  0.917346  0  0  0.317523  0  0.981928  0  0  0.326633  0  0.974184  0  0  0.298824  0.310967  0  0.987584  0
H  H12  1  0.50589522  0.67044276  0.49560797  1  0  0.143817  0  0.963304  0  0  0.149747  0  1.026323  0  0  0.154047  0  1.024913  0  0  0.112166  0.146598  0  1.027498  0
H  H13  1  0.49410414  0.32955489  0.50439273  1  0  0.143839  0  0.963288  0  0  0.149741  0  1.026344  0  0  0.15404  0  1.024936  0  0  0.112168  0.146595  0  1.027518  0
H  H14  1  0.64685348  0.47073278  0.64787474  1  0  0.108814  0  0.940966  0  0  0.119519  0  1.001831  0  0  0.122352  0  0.998193  0  0  0.131226  0.117275  0  1.004624  0
H  H15  1  0.35315132  0.52926485  0.35212394  1  0  0.108783  0  0.940962  0  0  0.1195  0  1.001812  0  0  0.122333  0  0.998177  0  0  0.131195  0.117257  0  1.004605  0
C  C16  1  0.58292136  0.41301861  0.89081465  1  0  -0.165397  0  3.603446  0  0  -0.271127  0  3.854875  0  0  -0.266729  0  3.862392  0  0  -0.137828  -0.273765  0  3.849883  0
C  C17  1  0.41707411  0.58698401  0.10918512  1  0  -0.165212  0  3.603419  0  0  -0.270993  0  3.854902  0  0  -0.266592  0  3.862419  0  0  -0.137775  -0.273631  0  3.84991  0
C  C18  1  0.37521970  0.20777771  0.86168376  1  0  0.639846  0  3.887029  0  0  0.571599  0  4.174112  0  0  0.605826  0  4.175599  0  0  0.317818  0.548702  0  4.172264  0
C  C19  1  0.62477874  0.79222391  0.13831611  1  0  0.639842  0  3.887073  0  0  0.571658  0  4.174074  0  0  0.605879  0  4.175557  0  0  0.317821  0.548766  0  4.17223  0
C  C20  1  0.67664670  0.82786214  0.33864928  1  0  0.553248  0  3.835998  0  0  0.513628  0  4.10234  0  0  0.540807  0  4.111723  0  0  0.243397  0.49542  0  4.095516  0
C  C21  1  0.32334989  0.17213552  0.66135061  1  0  0.553126  0  3.836194  0  0  0.513539  0  4.10247  0  0  0.540725  0  4.111854  0  0  0.243361  0.495313  0  4.095666  0
C  C22  1  0.54366221  0.70219511  0.39485285  1  0  -0.305921  0  3.718071  0  0  -0.322428  0  3.984468  0  0  -0.338989  0  4.00286  0  0  -0.110912  -0.311648  0  3.972495  0
C  C23  1  0.45632863  0.29780356  0.60514615  1  0  -0.30591  0  3.717979  0  0  -0.322411  0  3.984365  0  0  -0.338974  0  4.002757  0  0  -0.110916  -0.311626  0  3.972396  0
C  C24  1  0.54330008  0.37365254  0.68120713  1  0  0.142795  0  3.681123  0  0  0.094715  0  3.935494  0  0  0.109952  0  3.949424  0  0  0.054343  0.084505  0  3.92647  0
C  C25  1  0.45669862  0.62634809  0.31879385  1  0  0.142808  0  3.681184  0  0  0.094719  0  3.935544  0  0  0.109949  0  3.949483  0  0  0.05433  0.084509  0  3.92652  0
N  N26  1  0.50370301  0.33063031  0.80767249  1  0  -0.151032  0  3.47306  0  0  -0.049838  0  3.693235  0  0  -0.072433  0  3.716439  0  0  -0.248669  -0.035212  0  3.677594  0
N  N27  1  0.49629838  0.66937031  0.19232658  1  0  -0.151175  0  3.473086  0  0  -0.049966  0  3.693236  0  0  -0.072563  0  3.716442  0  0  -0.248677  -0.03534  0  3.677594  0
N  N28  1  0.71377672  0.86958651  0.21230568  1  0  -0.602913  0  3.218042  0  0  -0.521442  0  3.52226  0  0  -0.553534  0  3.528222  0  0  -0.374011  -0.500147  0  3.517722  0
N  N29  1  0.28622169  0.13041511  0.78769329  1  0  -0.602942  0  3.218124  0  0  -0.521425  0  3.522315  0  0  -0.553537  0  3.528291  0  0  -0.374002  -0.500109  0  3.51777  0
N  N30  1  0.76596092  0.90637143  0.40797923  1  0  -0.624366  0  3.100274  0  0  -0.579038  0  3.329703  0  0  -0.601357  0  3.325566  0  0  -0.559052  -0.563694  0  3.332403  0
N  N31  1  0.23404099  0.09362721  0.59202205  1  0  -0.624307  0  3.100344  0  0  -0.578999  0  3.329749  0  0  -0.601317  0  3.325612  0  0  -0.559049  -0.563656  0  3.332456  0
N  N32  1  0.99247676  0.25989403  0.28244459  1  0  0.702567  0  4.132219  0  0  0.743522  0  4.41124  0  0  0.759718  0  4.435478  0  0  0.099576  0.723772  0  4.40713  0
N  N33  1  0.00753570  0.74010655  0.71755678  1  0  0.702561  0  4.132203  0  0  0.743611  0  4.41112  0  0  0.75971  0  4.435486  0  0  0.099596  0.723862  0  4.40701  0
O  O34  1  0.34526004  0.17457436  0.97928023  1  0  -0.628326  0  2.168543  0  0  -0.555492  0  2.466064  0  0  -0.58269  0  2.449791  0  0  -0.321817  -0.536679  0  2.47657  0
O  O35  1  0.65474179  0.82542428  0.02071835  1  0  -0.628327  0  2.168499  0  0  -0.555517  0  2.466004  0  0  -0.582712  0  2.44973  0  0  -0.321841  -0.536698  0  2.476494  0
O  O36  1  0.14114145  0.14475385  0.33329425  1  0  -0.518902  0  1.821859  0  0  -0.498864  0  2.040226  0  0  -0.512252  0  2.03769  0  0  -0.201222  -0.48628  0  2.045016  0
O  O37  1  0.85886838  0.85524575  0.66670381  1  0  -0.518897  0  1.821833  0  0  -0.498874  0  2.040147  0  0  -0.51222  0  2.037643  0  0  -0.201224  -0.486293  0  2.044938  0
O  O38  1  0.99454864  0.35600379  0.33388756  1  0  -0.467216  0  1.743537  0  0  -0.465486  0  1.957248  0  0  -0.475872  0  1.956855  0  0  -0.190842  -0.454443  0  1.960451  0
O  O39  1  0.00547306  0.64399279  0.66611703  1  0  -0.467226  0  1.743578  0  0  -0.465544  0  1.957252  0  0  -0.475907  0  1.956922  0  0  -0.190871  -0.454493  0  1.960436  0
O  O40  1  0.84640655  0.27474159  0.18094707  1  0  -0.440346  0  1.805442  0  0  -0.4206  0  2.035829  0  0  -0.43443  0  2.033757  0  0  -0.182997  -0.407547  0  2.040125  0
O  O41  1  0.15359200  0.72526003  0.81905641  1  0  -0.440368  0  1.805429  0  0  -0.420607  0  2.035717  0  0  -0.434419  0  2.033722  0  0  -0.182999  -0.407557  0  2.040014  0
