# generated using pymatgen
data_CdH14C14(NO2)3
_symmetry_space_group_name_H-M   'P 1'
_cell_length_a   8.44020643
_cell_length_b   9.58977931
_cell_length_c   10.33211410
_cell_angle_alpha   78.89507569
_cell_angle_beta   74.73401150
_cell_angle_gamma   74.07303285
_symmetry_Int_Tables_number   1
_chemical_formula_structural   CdH14C14(NO2)3
_chemical_formula_sum   'Cd2 H28 C28 N6 O12'
_cell_volume   769.24271558
_cell_formula_units_Z   2
loop_
 _symmetry_equiv_pos_site_id
 _symmetry_equiv_pos_as_xyz
  1  'x, y, z'
loop_
 _atom_site_type_symbol
 _atom_site_label
 _atom_site_symmetry_multiplicity
 _atom_site_fract_x
 _atom_site_fract_y
 _atom_site_fract_z
 _atom_site_occupancy
 _atom_site_hle17_bader_spin_density
 _atom_site_hle17_ddec_charge
 _atom_site_hle17_ddec_spin_density
 _atom_site_hle17_ddec_sum_bond_order
 _atom_site_hle17_magmom
 _atom_site_hse06_10hf_bader_spin_density
 _atom_site_hse06_10hf_ddec_charge
 _atom_site_hse06_10hf_ddec_spin_density
 _atom_site_hse06_10hf_ddec_sum_bond_order
 _atom_site_hse06_10hf_magmom
 _atom_site_hse06_bader_spin_density
 _atom_site_hse06_ddec_charge
 _atom_site_hse06_ddec_spin_density
 _atom_site_hse06_ddec_sum_bond_order
 _atom_site_hse06_magmom
 _atom_site_pbe_bader_spin_density
 _atom_site_pbe_cm5_charge
 _atom_site_pbe_ddec_charge
 _atom_site_pbe_ddec_spin_density
 _atom_site_pbe_ddec_sum_bond_order
 _atom_site_pbe_magmom
Cd  Cd0  1  0.79268256  0.96940739  0.12217858  1  0  1.17937  0  1.622705  0  0  0.995709  0  2.0627  0  0  1.05341  0  2.008928  0  0  0.776155  0.950712  0  2.103239  0
Cd  Cd1  1  0.20731041  0.03060075  0.87781541  1  0  1.179342  0  1.62259  0  0  0.995705  0  2.062557  0  0  1.053406  0  2.008782  0  0  0.77612  0.950705  0  2.103086  0
H  H2  1  0.50338928  0.06498484  0.29535479  1  0  0.420157  0  0.847174  0  0  0.395121  0  0.916693  0  0  0.404484  0  0.905444  0  0  0.301528  0.388059  0  0.925205  0
H  H3  1  0.49662575  0.93501854  0.70463639  1  0  0.420268  0  0.847011  0  0  0.395236  0  0.916504  0  0  0.404599  0  0.905266  0  0  0.30162  0.388181  0  0.925003  0
H  H4  1  0.42982636  0.05016195  0.17182359  1  0  0.427197  0  0.877115  0  0  0.393444  0  0.945927  0  0  0.404968  0  0.929263  0  0  0.286345  0.385125  0  0.95793  0
H  H5  1  0.57016683  0.94984511  0.82817538  1  0  0.427222  0  0.877087  0  0  0.393451  0  0.945912  0  0  0.404981  0  0.929245  0  0  0.286424  0.38513  0  0.957919  0
H  H6  1  0.73705679  0.99221796  0.63925946  1  0  0.100773  0  0.963775  0  0  0.109448  0  1.030673  0  0  0.113538  0  1.026567  0  0  0.110412  0.10683  0  1.032677  0
H  H7  1  0.26292962  0.00780122  0.36074844  1  0  0.100752  0  0.963714  0  0  0.109422  0  1.030604  0  0  0.113515  0  1.02649  0  0  0.110308  0.106806  0  1.032604  0
H  H8  1  0.94073388  0.31741419  0.73261449  1  0  0.124047  0  0.946856  0  0  0.127711  0  1.016565  0  0  0.131974  0  1.013003  0  0  0.113789  0.124702  0  1.018788  0
H  H9  1  0.05930554  0.68258004  0.26737320  1  0  0.123968  0  0.946696  0  0  0.12763  0  1.016442  0  0  0.131889  0  1.01288  0  0  0.113773  0.124622  0  1.018668  0
H  H10  1  0.93145590  0.30036749  0.32055480  1  0  0.125245  0  0.951008  0  0  0.131102  0  1.018908  0  0  0.13524  0  1.015379  0  0  0.11524  0.128095  0  1.0216  0
H  H11  1  0.06856403  0.69961621  0.67943984  1  0  0.125204  0  0.951163  0  0  0.131042  0  1.019062  0  0  0.135175  0  1.015538  0  0  0.115226  0.128039  0  1.021748  0
H  H12  1  0.64561642  0.33581603  0.16196363  1  0  0.090094  0  0.923598  0  0  0.105892  0  0.983259  0  0  0.107079  0  0.982445  0  0  0.114547  0.104648  0  0.984741  0
H  H13  1  0.35437491  0.66418787  0.83806147  1  0  0.089989  0  0.923483  0  0  0.105764  0  0.98324  0  0  0.106951  0  0.982427  0  0  0.114426  0.104517  0  0.984723  0
H  H14  1  0.82532578  0.35779664  0.03501045  1  0  0.077557  0  0.943662  0  0  0.093321  0  1.008149  0  0  0.093479  0  1.008481  0  0  0.108454  0.092918  0  1.008484  0
H  H15  1  0.17466620  0.64218544  0.96500489  1  0  0.077527  0  0.943648  0  0  0.093407  0  1.008005  0  0  0.093575  0  1.008347  0  0  0.108475  0.093004  0  1.008347  0
H  H16  1  0.76017171  0.71390867  0.86871252  1  0  0.148245  0  0.935846  0  0  0.169059  0  0.993165  0  0  0.17204  0  0.991019  0  0  0.105356  0.166903  0  0.994837  0
H  H17  1  0.23981970  0.28607661  0.13127235  1  0  0.148426  0  0.93575  0  0  0.169184  0  0.993128  0  0  0.17216  0  0.990989  0  0  0.105449  0.167029  0  0.994794  0
H  H18  1  0.92948575  0.56496812  0.89819390  1  0  0.125276  0  0.949508  0  0  0.142637  0  1.015775  0  0  0.144506  0  1.015506  0  0  0.098038  0.141467  0  1.015802  0
H  H19  1  0.07050788  0.43501820  0.10178742  1  0  0.125295  0  0.949663  0  0  0.142675  0  1.01592  0  0  0.144543  0  1.015651  0  0  0.098064  0.141504  0  1.015949  0
H  H20  1  0.93533111  0.74663768  0.91112924  1  0  0.141288  0  0.95323  0  0  0.158864  0  1.018455  0  0  0.161408  0  1.016496  0  0  0.102872  0.157065  0  1.019878  0
H  H21  1  0.06466397  0.25335294  0.08884229  1  0  0.141336  0  0.95316  0  0  0.158928  0  1.018353  0  0  0.161474  0  1.016386  0  0  0.102892  0.157127  0  1.019776  0
H  H22  1  0.56758710  0.48180394  0.34534074  1  0  0.119816  0  0.938816  0  0  0.134453  0  0.990248  0  0  0.137101  0  0.989344  0  0  0.127363  0.13251  0  0.991119  0
H  H23  1  0.43243388  0.51821460  0.65465807  1  0  0.119727  0  0.938716  0  0  0.134432  0  0.990089  0  0  0.137082  0  0.989182  0  0  0.127355  0.132485  0  0.990961  0
H  H24  1  0.63257845  0.74290161  0.37876910  1  0  0.120098  0  0.948246  0  0  0.13082  0  1.005476  0  0  0.133613  0  1.003899  0  0  0.119605  0.128674  0  1.006864  0
H  H25  1  0.36742980  0.25712469  0.62119615  1  0  0.120086  0  0.948148  0  0  0.130857  0  1.005315  0  0  0.133649  0  1.00374  0  0  0.119624  0.128714  0  1.006688  0
H  H26  1  0.65094838  0.51899717  0.88198418  1  0  0.078123  0  0.941852  0  0  0.099954  0  0.998275  0  0  0.100555  0  0.998949  0  0  0.095  0.099463  0  0.99779  0
H  H27  1  0.34904089  0.48096644  0.11802730  1  0  0.078427  0  0.941615  0  0  0.100098  0  0.998218  0  0  0.100707  0  0.99888  0  0  0.095041  0.099601  0  0.997729  0
H  H28  1  0.58603712  0.35436802  0.94254109  1  0  0.083427  0  0.927964  0  0  0.103642  0  0.983845  0  0  0.103748  0  0.985514  0  0  0.0974  0.103533  0  0.982756  0
H  H29  1  0.41395197  0.64559565  0.05749171  1  0  0.083537  0  0.928073  0  0  0.103738  0  0.983928  0  0  0.103845  0  0.985597  0  0  0.097492  0.10363  0  0.982836  0
C  C30  1  0.82385542  0.14206308  0.47095388  1  0  -0.05262  0  3.757375  0  0  -0.025539  0  3.990989  0  0  -0.035687  0  4.014378  0  0  -0.015571  -0.019403  0  3.976064  0
C  C31  1  0.17613251  0.85794519  0.52905373  1  0  -0.052718  0  3.757318  0  0  -0.025693  0  3.991005  0  0  -0.035845  0  4.01439  0  0  -0.015572  -0.019557  0  3.976086  0
C  C32  1  0.78932792  0.08833115  0.60820731  1  0  -0.049867  0  3.674692  0  0  -0.09091  0  3.924557  0  0  -0.086444  0  3.942386  0  0  -0.067843  -0.092336  0  3.911617  0
C  C33  1  0.21065955  0.91168367  0.39180406  1  0  -0.049957  0  3.674794  0  0  -0.090945  0  3.924568  0  0  -0.08648  0  3.942394  0  0  -0.067782  -0.092372  0  3.911622  0
C  C34  1  0.93680218  0.32440424  0.52237580  1  0  0.106867  0  3.759658  0  0  0.106719  0  4.014625  0  0  0.105479  0  4.034474  0  0  0.087805  0.106459  0  4.002041  0
C  C35  1  0.06321002  0.67559051  0.47762623  1  0  0.106612  0  3.759642  0  0  0.10647  0  4.014595  0  0  0.105223  0  4.034447  0  0  0.0877  0.106231  0  4.001976  0
C  C36  1  0.83158631  0.15091396  0.70230120  1  0  -0.061332  0  3.764293  0  0  -0.035939  0  4.005392  0  0  -0.046305  0  4.028159  0  0  -0.014703  -0.030432  0  3.991034  0
C  C37  1  0.16842068  0.84910157  0.29770109  1  0  -0.061289  0  3.764497  0  0  -0.035902  0  4.005547  0  0  -0.046253  0  4.028288  0  0  -0.014695  -0.03039  0  3.991185  0
C  C38  1  0.78823810  0.06878255  0.36910920  1  0  0.624464  0  3.957164  0  0  0.578808  0  4.242096  0  0  0.612066  0  4.238684  0  0  0.191831  0.555866  0  4.243514  0
C  C39  1  0.21173401  0.93122494  0.63090672  1  0  0.62457  0  3.956579  0  0  0.578926  0  4.241497  0  0  0.612184  0  4.238078  0  0  0.191813  0.55597  0  4.242936  0
C  C40  1  0.90594895  0.27041372  0.65960844  1  0  -0.092577  0  3.67646  0  0  -0.132513  0  3.933415  0  0  -0.127473  0  3.947151  0  0  -0.067882  -0.133785  0  3.923336  0
C  C41  1  0.09406931  0.72959615  0.34038863  1  0  -0.092323  0  3.676091  0  0  -0.132279  0  3.933036  0  0  -0.127232  0  3.946764  0  0  -0.067753  -0.133557  0  3.922944  0
C  C42  1  0.80338535  0.08745858  0.84778878  1  0  0.653834  0  3.897233  0  0  0.597419  0  4.189951  0  0  0.632843  0  4.183384  0  0  0.205553  0.572741  0  4.194522  0
C  C43  1  0.19660310  0.91255730  0.15222025  1  0  0.653809  0  3.897044  0  0  0.597399  0  4.189745  0  0  0.632818  0  4.18318  0  0  0.205481  0.57271  0  4.194329  0
C  C44  1  0.89944323  0.26045004  0.42753361  1  0  -0.096516  0  3.682501  0  0  -0.135861  0  3.93619  0  0  -0.131342  0  3.950989  0  0  -0.06926  -0.139414  0  3.927005  0
C  C45  1  0.10055951  0.73954815  0.57246979  1  0  -0.096359  0  3.682539  0  0  -0.135649  0  3.936209  0  0  -0.13113  0  3.951011  0  0  -0.069216  -0.139205  0  3.927008  0
C  C46  1  0.77142412  0.65152152  0.07743536  1  0  0.377041  0  3.681507  0  0  0.353251  0  3.945387  0  0  0.369994  0  3.960074  0  0  0.217779  0.342135  0  3.934836  0
C  C47  1  0.22858224  0.34847763  0.92254484  1  0  0.376916  0  3.682271  0  0  0.353298  0  3.945943  0  0  0.37004  0  3.960626  0  0  0.21771  0.342183  0  3.935388  0
C  C48  1  0.69581924  0.41354127  0.07943265  1  0  0.005959  0  3.615602  0  0  -0.055627  0  3.873489  0  0  -0.051038  0  3.884256  0  0  -0.05429  -0.059144  0  3.867481  0
C  C49  1  0.30417810  0.58644397  0.92057905  1  0  0.006192  0  3.615376  0  0  -0.055512  0  3.873339  0  0  -0.050944  0  3.884127  0  0  -0.054226  -0.05903  0  3.867326  0
C  C50  1  0.85378117  0.66994267  0.93165716  1  0  -0.403305  0  3.701871  0  0  -0.48767  0  3.949448  0  0  -0.491504  0  3.953762  0  0  -0.236541  -0.484788  0  3.946119  0
C  C51  1  0.14621413  0.33004687  0.06832032  1  0  -0.403537  0  3.702155  0  0  -0.48794  0  3.949705  0  0  -0.491808  0  3.954101  0  0  -0.236673  -0.485055  0  3.946371  0
C  C52  1  0.63218957  0.55882141  0.27527221  1  0  -0.066423  0  3.701887  0  0  -0.109975  0  3.968303  0  0  -0.109133  0  3.988323  0  0  -0.003159  -0.110527  0  3.954947  0
C  C53  1  0.36781802  0.44118212  0.72472437  1  0  -0.066093  0  3.702181  0  0  -0.109686  0  3.9686  0  0  -0.108842  0  3.988614  0  0  -0.003155  -0.110242  0  3.955245  0
C  C54  1  0.66406674  0.68685341  0.29034991  1  0  -0.003915  0  3.782046  0  0  -0.043787  0  4.059012  0  0  -0.041587  0  4.080575  0  0  -0.013175  -0.045343  0  4.044347  0
C  C55  1  0.33594559  0.31317070  0.70963520  1  0  -0.004367  0  3.782644  0  0  -0.044323  0  4.059734  0  0  -0.042123  0  4.081296  0  0  -0.013334  -0.045876  0  4.045056  0
C  C56  1  0.58938006  0.45693864  0.97333365  1  0  -0.127646  0  3.68146  0  0  -0.172092  0  3.945866  0  0  -0.173493  0  3.959863  0  0  -0.166247  -0.170688  0  3.935833  0
C  C57  1  0.41060887  0.54303588  0.02668562  1  0  -0.128127  0  3.681466  0  0  -0.172462  0  3.945855  0  0  -0.173866  0  3.959852  0  0  -0.166407  -0.171052  0  3.935825  0
N  N58  1  0.02413653  0.44036271  0.46813378  1  0  0.23808  0  3.627364  0  0  0.269654  0  3.910805  0  0  0.278883  0  3.926583  0  0  0.010128  0.263055  0  3.900318  0
N  N59  1  0.97589212  0.55962521  0.53186601  1  0  0.237986  0  3.627365  0  0  0.269698  0  3.910784  0  0  0.278916  0  3.926552  0  0  0.010153  0.263091  0  3.900275  0
N  N60  1  0.75073578  0.74325674  0.16678957  1  0  -0.46737  0  3.246534  0  0  -0.388994  0  3.529427  0  0  -0.413655  0  3.546108  0  0  -0.365738  -0.371397  0  3.517024  0
N  N61  1  0.24927092  0.25675109  0.83318223  1  0  -0.466966  0  3.246568  0  0  -0.388623  0  3.529408  0  0  -0.413274  0  3.546089  0  0  -0.365568  -0.371022  0  3.51699  0
N  N62  1  0.70096269  0.53735638  0.14125854  1  0  -0.112814  0  3.511155  0  0  -0.019821  0  3.724452  0  0  -0.035418  0  3.749973  0  0  -0.24019  -0.009406  0  3.707244  0
N  N63  1  0.29904425  0.46264497  0.85873373  1  0  -0.113011  0  3.511639  0  0  -0.020056  0  3.724957  0  0  -0.035653  0  3.750483  0  0  -0.240148  -0.009645  0  3.707755  0
O  O64  1  0.88737456  0.11632167  0.92302520  1  0  -0.674662  0  2.031576  0  0  -0.597281  0  2.293461  0  0  -0.628871  0  2.281699  0  0  -0.329467  -0.573862  0  2.303135  0
O  O65  1  0.11261678  0.88369743  0.07698168  1  0  -0.674731  0  2.031524  0  0  -0.59731  0  2.293359  0  0  -0.6289  0  2.281599  0  0  -0.329458  -0.57389  0  2.303043  0
O  O66  1  0.85302632  0.10946008  0.24438055  1  0  -0.65826  0  2.024023  0  0  -0.58847  0  2.273212  0  0  -0.620217  0  2.266615  0  0  -0.335574  -0.563935  0  2.27798  0
O  O67  1  0.14696799  0.89051761  0.75563411  1  0  -0.658289  0  2.023585  0  0  -0.588518  0  2.272808  0  0  -0.620256  0  2.266197  0  0  -0.335617  -0.56398  0  2.277583  0
O  O68  1  0.70159084  0.97429212  0.40820766  1  0  -0.633659  0  1.898278  0  0  -0.584979  0  2.115404  0  0  -0.608822  0  2.10682  0  0  -0.332238  -0.56718  0  2.120386  0
O  O69  1  0.29834370  0.02574763  0.59181423  1  0  -0.633659  0  1.898192  0  0  -0.585024  0  2.115384  0  0  -0.608872  0  2.106805  0  0  -0.332196  -0.567217  0  2.120363  0
O  O70  1  0.69899862  0.00733520  0.89535865  1  0  -0.618452  0  1.984449  0  0  -0.549066  0  2.20982  0  0  -0.577195  0  2.201  0  0  -0.301615  -0.528859  0  2.215213  0
O  O71  1  0.30099059  0.99268282  0.10464209  1  0  -0.618298  0  1.984168  0  0  -0.54897  0  2.209573  0  0  -0.577093  0  2.200754  0  0  -0.30152  -0.528752  0  2.214962  0
O  O72  1  0.50782098  0.09598957  0.19858099  1  0  -0.821673  0  1.839129  0  0  -0.762256  0  2.028348  0  0  -0.783491  0  1.99786  0  0  -0.581373  -0.747187  0  2.050703  0
O  O73  1  0.49217513  0.90402069  0.80141292  1  0  -0.821769  0  1.838988  0  0  -0.762336  0  2.02828  0  0  -0.783583  0  1.99779  0  0  -0.581514  -0.747268  0  2.050634  0
O  O74  1  0.13916817  0.42896193  0.35976252  1  0  -0.425764  0  1.725031  0  0  -0.416187  0  1.946219  0  0  -0.434636  0  1.947143  0  0  -0.190337  -0.403211  0  1.945329  0
O  O75  1  0.86088616  0.57100599  0.64025967  1  0  -0.4258  0  1.725082  0  0  -0.416194  0  1.946362  0  0  -0.434672  0  1.947271  0  0  -0.190312  -0.403232  0  1.945457  0
