# generated using pymatgen
data_CuH15C25N3O4
_symmetry_space_group_name_H-M   'P 1'
_cell_length_a   9.43792206
_cell_length_b   10.04220772
_cell_length_c   12.34798916
_cell_angle_alpha   99.38691412
_cell_angle_beta   105.84964053
_cell_angle_gamma   111.87171704
_symmetry_Int_Tables_number   1
_chemical_formula_structural   CuH15C25N3O4
_chemical_formula_sum   'Cu2 H30 C50 N6 O8'
_cell_volume   997.74880754
_cell_formula_units_Z   2
loop_
 _symmetry_equiv_pos_site_id
 _symmetry_equiv_pos_as_xyz
  1  'x, y, z'
loop_
 _atom_site_type_symbol
 _atom_site_label
 _atom_site_symmetry_multiplicity
 _atom_site_fract_x
 _atom_site_fract_y
 _atom_site_fract_z
 _atom_site_occupancy
 _atom_site_pbe_cm5_charge
 _atom_site_pbe_ddec_charge
 _atom_site_pbe_ddec_spin_density
 _atom_site_pbe_ddec_sum_bond_order
 _atom_site_pbe_magmom
Cu  Cu0  1  0.87452813  0.59103868  0.72524590  1  0.736007  0.732747  -0.759554  2.317512  -0.569
Cu  Cu1  1  0.12547047  0.40896744  0.27476002  1  0.735974  0.732706  0.759549  2.317441  0.569
H  H2  1  0.59773461  0.49679604  0.47792928  1  0.114015  0.085788  0.000104  1.056241  0.0
H  H3  1  0.40226829  0.50321906  0.52206982  1  0.113956  0.085766  -0.000104  1.056099  0.0
H  H4  1  0.89659817  0.29217424  0.58414679  1  0.110027  0.080451  4.9e-05  1.016713  0.0
H  H5  1  0.10341004  0.70784540  0.41586295  1  0.110055  0.08045  -4.9e-05  1.016738  0.0
H  H6  1  0.47806927  0.06166429  0.25839302  1  0.1063  0.111249  -2.2e-05  1.027785  0.0
H  H7  1  0.52193748  0.93834752  0.74161620  1  0.106313  0.111311  2.2e-05  1.027711  0.0
H  H8  1  0.95033320  0.88619632  0.28162400  1  0.09862  0.101465  6.3e-05  1.009107  0.0
H  H9  1  0.04964985  0.11379061  0.71837528  1  0.098623  0.101454  -6.3e-05  1.009074  0.0
H  H10  1  0.86774658  0.70576099  0.39630641  1  0.095877  0.09278  6.8e-05  1.022314  0.0
H  H11  1  0.13224187  0.29423048  0.60369624  1  0.095911  0.092795  -6.8e-05  1.022414  0.0
H  H12  1  0.70681232  0.73723698  0.51820503  1  0.098368  0.103512  5e-05  1.050194  0.0
H  H13  1  0.29317807  0.26276345  0.48180162  1  0.098357  0.103491  -5e-05  1.050133  0.0
H  H14  1  0.62034979  0.94310127  0.52210813  1  0.092179  0.092284  3e-05  1.037257  0.0
H  H15  1  0.37964071  0.05689692  0.47789421  1  0.09218  0.092324  -3e-05  1.037244  0.0
H  H16  1  0.52875641  0.42282145  0.74179823  1  0.118952  0.090581  -0.001278  1.013016  -0.002
H  H17  1  0.47124356  0.57717799  0.25820064  1  0.118946  0.090563  0.001277  1.013014  0.002
H  H18  1  0.41408444  0.21751955  0.83017305  1  0.108144  0.113138  -0.000565  1.038938  -0.001
H  H19  1  0.58591355  0.78247316  0.16981967  1  0.108146  0.113176  0.000565  1.038913  0.001
H  H20  1  0.59642750  0.11531488  0.93623218  1  0.123282  0.132904  -3.7e-05  0.95828  0.0
H  H21  1  0.40356748  0.88467108  0.06374849  1  0.123262  0.132878  3.7e-05  0.958319  0.0
H  H22  1  0.87956999  0.11879057  0.99975924  1  0.11546  0.143791  -0.000327  1.006625  0.0
H  H23  1  0.12042623  0.88119095  0.00021950  1  0.115441  0.143763  0.000327  1.00661  0.0
H  H24  1  0.16311736  0.22386096  0.00381990  1  0.110486  0.135971  -0.000281  1.015979  0.0
H  H25  1  0.83688024  0.77612839  0.99616662  1  0.110502  0.136038  0.000281  1.016007  0.0
H  H26  1  0.38062540  0.40688378  0.94539628  1  0.110651  0.108876  -3.4e-05  1.014392  0.0
H  H27  1  0.61937748  0.59311012  0.05460331  1  0.110668  0.108909  3.4e-05  1.014404  0.0
H  H28  1  0.45863322  0.61721822  0.85288534  1  0.108375  0.118257  -0.000602  1.030478  -0.001
H  H29  1  0.54136630  0.38277786  0.14711138  1  0.108361  0.118219  0.000602  1.030508  0.001
H  H30  1  0.24499117  0.69362245  0.75600190  1  0.118205  0.087224  -0.001277  1.038896  -0.002
H  H31  1  0.75500998  0.30637477  0.24399613  1  0.118184  0.087188  0.001276  1.038988  0.002
C  C32  1  0.36579617  0.27726825  0.27425648  1  0.202939  0.560417  0.002229  4.248554  0.0
C  C33  1  0.63420244  0.72273787  0.72574863  1  0.202938  0.56045  -0.002229  4.248417  0.0
C  C34  1  0.51819304  0.27831758  0.35747082  1  -0.01419  -0.069153  0.008168  3.960056  0.009
C  C35  1  0.48180988  0.72169529  0.64253123  1  -0.01427  -0.069175  -0.008168  3.959976  -0.009
C  C36  1  0.62270761  0.40005805  0.45847098  1  0.045395  0.072946  -0.000173  3.917233  0.0
C  C37  1  0.37729365  0.59995369  0.54153300  1  0.045459  0.072905  0.000173  3.917146  0.0
C  C38  1  0.78946689  0.28695878  0.51772761  1  0.048244  0.051499  -2.1e-05  3.928179  0.0
C  C39  1  0.21053761  0.71305524  0.48227979  1  0.048083  0.051336  2.2e-05  3.928542  0.0
C  C40  1  0.69513233  0.16013786  0.41845867  1  -0.000228  0.03688  0.000772  3.998884  0.001
C  C41  1  0.30487060  0.83987279  0.58154715  1  -0.000115  0.03694  -0.000772  3.999194  -0.001
C  C42  1  0.55718970  0.15741956  0.33687880  1  -0.065706  -0.111933  0.001101  3.914971  0.001
C  C43  1  0.44281263  0.84259219  0.66312865  1  -0.065688  -0.11199  -0.001101  3.914754  -0.001
C  C44  1  0.74037823  0.03306830  0.40722325  1  -0.011395  0.02969  0.00199  3.998311  0.002
C  C45  1  0.25962970  0.96693906  0.59278970  1  -0.011389  0.029597  -0.001991  3.998442  -0.002
C  C46  1  0.83318783  0.01614496  0.33891644  1  -0.00769  -0.048498  0.008793  3.925199  0.01
C  C47  1  0.16682062  0.98386353  0.66109677  1  -0.007756  -0.048453  -0.008795  3.925113  -0.01
C  C48  1  0.88584430  0.12202101  0.26841660  1  0.200721  0.569224  0.001549  4.241631  -0.002
C  C49  1  0.11417183  0.87798758  0.73160476  1  0.200586  0.568938  -0.00155  4.242  0.002
C  C50  1  0.87734490  0.89722307  0.33442248  1  -0.090836  -0.11054  0.002658  3.990562  0.002
C  C51  1  0.12264728  0.10277180  0.66558707  1  -0.090739  -0.110405  -0.002658  3.990353  -0.002
C  C52  1  0.83084731  0.79658101  0.39777418  1  -0.094058  -0.083615  0.000188  4.023505  0.0
C  C53  1  0.16914696  0.20341836  0.60223560  1  -0.094158  -0.083681  -0.000188  4.023557  0.0
C  C54  1  0.73848434  0.81282823  0.46566615  1  -0.095444  -0.078912  0.002476  4.000512  0.002
C  C55  1  0.26151043  0.18717226  0.53434632  1  -0.095417  -0.078906  -0.002476  4.000535  -0.002
C  C56  1  0.69287467  0.92993728  0.46946950  1  -0.096692  -0.134275  -0.000237  3.993026  0.0
C  C57  1  0.30712553  0.07006998  0.53053934  1  -0.096715  -0.134297  0.000236  3.993221  0.0
C  C58  1  0.60448547  0.37535976  0.78822887  1  0.058521  0.114966  0.000736  3.91112  0.002
C  C59  1  0.39551729  0.62464083  0.21176670  1  0.058473  0.114967  -0.000735  3.910989  -0.002
C  C60  1  0.54190667  0.26093874  0.83836303  1  -0.081437  -0.130784  -0.004099  3.975934  -0.005
C  C61  1  0.45809078  0.73905508  0.16162566  1  -0.081473  -0.13091  0.004099  3.976004  0.005
C  C62  1  0.64206234  0.20279153  0.89554391  1  -0.052985  -0.061034  0.002871  3.888231  0.003
C  C63  1  0.35793144  0.79719665  0.10443921  1  -0.052917  -0.06092  -0.002871  3.88814  -0.003
C  C64  1  0.80589966  0.25756940  0.90087637  1  0.002748  0.054055  -0.002501  3.984295  -0.003
C  C65  1  0.19409634  0.74241658  0.09911100  1  0.00273  0.05396  0.002501  3.984303  0.003
C  C66  1  0.85812549  0.37298812  0.84796288  1  0.110359  0.109387  -0.001399  4.00013  -0.001
C  C67  1  0.14186867  0.62700342  0.15202804  1  0.110399  0.109363  0.0014  4.000221  0.001
C  C68  1  0.91986669  0.20441081  0.95636995  1  -0.071701  -0.109583  -0.001042  3.933561  -0.001
C  C69  1  0.08013056  0.79557296  0.04361172  1  -0.07174  -0.10945  0.001043  3.933413  0.001
C  C70  1  0.07706105  0.26310167  0.95824669  1  -0.078075  -0.12214  -0.000972  3.945697  -0.001
C  C71  1  0.92293600  0.73688656  0.04174119  1  -0.078031  -0.122279  0.000973  3.945678  0.001
C  C72  1  0.13223203  0.37945564  0.90501945  1  0.000811  0.050597  -0.002732  4.00533  -0.003
C  C73  1  0.86775890  0.62053363  0.09496644  1  0.000721  0.050534  0.002732  4.005448  0.003
C  C74  1  0.02211099  0.43431557  0.85008913  1  0.112559  0.112185  -0.00147  4.000372  -0.001
C  C75  1  0.97788418  0.56567822  0.14990473  1  0.112606  0.112302  0.001471  4.000246  0.001
C  C76  1  0.29242031  0.44616484  0.90425385  1  -0.062861  -0.075936  0.003071  3.930376  0.003
C  C77  1  0.70758039  0.55382902  0.09574203  1  -0.062894  -0.076013  -0.00307  3.930589  -0.003
C  C78  1  0.33471133  0.55954858  0.85199559  1  -0.083218  -0.135453  -0.004101  3.965705  -0.005
C  C79  1  0.66528988  0.44044864  0.14799759  1  -0.083146  -0.135325  0.004101  3.965585  0.005
C  C80  1  0.21635809  0.60557878  0.79853801  1  0.06276  0.124121  0.00117  3.902077  0.002
C  C81  1  0.78364638  0.39441849  0.20146074  1  0.062826  0.124181  -0.001171  3.901914  -0.002
N  N82  1  0.75579600  0.40494074  0.53750932  1  -0.322439  -0.246654  0.000594  3.472842  0.0
N  N83  1  0.24420958  0.59507552  0.46249536  1  -0.322359  -0.246449  -0.000594  3.472819  0.0
N  N84  1  0.75919823  0.43087970  0.79385294  1  -0.338191  -0.265889  -0.055818  3.628507  -0.07
N  N85  1  0.24080169  0.56912197  0.20614459  1  -0.338137  -0.265807  0.055829  3.628505  0.07
N  N86  1  0.06400445  0.54442307  0.79749798  1  -0.338744  -0.269206  -0.058093  3.624593  -0.073
N  N87  1  0.93600005  0.45557420  0.20249835  1  -0.338811  -0.269269  0.058085  3.624575  0.073
O  O88  1  0.31703323  0.36575729  0.32549536  1  -0.331031  -0.553222  0.059902  2.43575  0.081
O  O89  1  0.68296869  0.63424888  0.67451209  1  -0.331008  -0.553149  -0.059902  2.435633  -0.081
O  O90  1  0.30456427  0.19794417  0.16967518  1  -0.320373  -0.532285  0.00118  2.103984  0.002
O  O91  1  0.69543641  0.80206867  0.83032882  1  -0.320389  -0.532369  -0.00118  2.104033  -0.002
O  O92  1  0.00225649  0.25304552  0.33397180  1  -0.328304  -0.531159  0.077514  2.35699  0.106
O  O93  1  0.99774967  0.74696294  0.66604657  1  -0.328249  -0.531033  -0.077511  2.356919  -0.106
O  O94  1  0.81773038  0.07794073  0.15908002  1  -0.324396  -0.546742  0.001486  2.088328  0.003
O  O95  1  0.18230484  0.92206366  0.84093518  1  -0.324308  -0.546598  -0.001486  2.088797  -0.003
