# generated using pymatgen
data_ZnH13C19N3O5
_symmetry_space_group_name_H-M   'P 1'
_cell_length_a   8.36913716
_cell_length_b   10.06913960
_cell_length_c   11.68718992
_cell_angle_alpha   113.48143690
_cell_angle_beta   101.76341723
_cell_angle_gamma   98.37582366
_symmetry_Int_Tables_number   1
_chemical_formula_structural   ZnH13C19N3O5
_chemical_formula_sum   'Zn2 H26 C38 N6 O10'
_cell_volume   855.64930679
_cell_formula_units_Z   2
loop_
 _symmetry_equiv_pos_site_id
 _symmetry_equiv_pos_as_xyz
  1  'x, y, z'
loop_
 _atom_site_type_symbol
 _atom_site_label
 _atom_site_symmetry_multiplicity
 _atom_site_fract_x
 _atom_site_fract_y
 _atom_site_fract_z
 _atom_site_occupancy
 _atom_site_pbe_bader_spin_density
 _atom_site_pbe_cm5_charge
 _atom_site_pbe_ddec_charge
 _atom_site_pbe_ddec_spin_density
 _atom_site_pbe_ddec_sum_bond_order
 _atom_site_pbe_magmom
Zn  Zn0  1  0.38617155  0.65273278  0.55965848  1  0  0.687672  0.825763  0  2.326073  0
Zn  Zn1  1  0.61382898  0.34726718  0.44034130  1  0  0.687671  0.82576  0  2.326068  0
H  H2  1  0.90603039  0.17583124  0.18336954  1  0  0.304461  0.284461  0  1.006153  0
H  H3  1  0.09397014  0.82416872  0.81663024  1  0  0.304453  0.284449  0  1.006167  0
H  H4  1  0.40869440  0.70325740  0.32833665  1  0  0.119472  0.093928  0  1.011811  0
H  H5  1  0.59130613  0.29674256  0.67166314  1  0  0.119473  0.093923  0  1.011821  0
H  H6  1  0.28239332  0.58613197  0.08594431  1  0  0.107269  0.112937  0  0.99957  0
H  H7  1  0.71760567  0.41386687  0.91405487  1  0  0.107262  0.112917  0  0.999536  0
H  H8  1  0.05670000  0.34652791  0.97716799  1  0  0.109462  0.123964  0  1.049174  0
H  H9  1  0.94329932  0.65347205  0.02283247  1  0  0.109462  0.123954  0  1.049186  0
H  H10  1  0.09927532  0.36425125  0.35766199  1  0  0.122617  0.115635  0  1.018212  0
H  H11  1  0.90072611  0.63574760  0.64233754  1  0  0.122613  0.115637  0  1.018216  0
H  H12  1  0.38144857  0.60593997  0.81166637  1  0  0.118051  0.094271  0  1.007548  0
H  H13  1  0.61855164  0.39405887  0.18833298  1  0  0.118047  0.094267  0  1.00755  0
H  H14  1  0.53078363  0.74054679  0.05324421  1  0  0.111221  0.118113  0  0.988206  0
H  H15  1  0.46921627  0.25945094  0.94675643  1  0  0.111238  0.118133  0  0.988211  0
H  H16  1  0.74458132  0.98280434  0.14017199  1  0  0.108962  0.102691  0  1.070186  0
H  H17  1  0.25541767  0.01719450  0.85982805  1  0  0.108953  0.102673  0  1.07021  0
H  H18  1  0.64684844  0.93620754  0.74719246  1  0  0.125582  0.108649  0  0.995285  0
H  H19  1  0.35314997  0.06379354  0.25280826  1  0  0.125549  0.108605  0  0.995316  0
H  H20  1  0.06248235  0.39840242  0.66681809  1  0  0.099868  0.101261  0  1.031092  0
H  H21  1  0.93751850  0.60159866  0.33318213  1  0  0.09987  0.101255  0  1.031091  0
H  H22  1  0.90793461  0.23705360  0.74723446  1  0  0.099455  0.105567  0  1.044426  0
H  H23  1  0.09206592  0.76294636  0.25276532  1  0  0.09946  0.105578  0  1.044404  0
H  H24  1  0.97954816  0.00010842  0.72419702  1  0  0.101798  0.101392  0  1.014706  0
H  H25  1  0.02045205  0.99989042  0.27580233  1  0  0.101797  0.101388  0  1.014711  0
H  H26  1  0.35042551  0.07615292  0.53582128  1  0  0.110203  0.124384  0  0.998208  0
H  H27  1  0.64957533  0.92384816  0.46417808  1  0  0.110201  0.124395  0  0.998211  0
C  C28  1  0.31212915  0.59782699  0.27695753  1  0  0.039049  0.069372  0  3.949897  0
C  C29  1  0.68787139  0.40217297  0.72304311  1  0  0.039063  0.069407  0  3.949935  0
C  C30  1  0.24115575  0.53193092  0.14279247  1  0  -0.083703  -0.110444  0  4.016622  0
C  C31  1  0.75884479  0.46806904  0.85720731  1  0  -0.083685  -0.110411  0  4.01668  0
C  C32  1  0.11391820  0.39959260  0.08179936  1  0  -0.07716  -0.139072  0  3.918897  0
C  C33  1  0.88608201  0.60040624  0.91820085  1  0  -0.077179  -0.139059  0  3.918889  0
C  C34  1  0.05877673  0.33653798  0.15920554  1  0  0.105581  0.210685  0  3.986681  0
C  C35  1  0.94122348  0.66346086  0.84079381  1  0  0.105588  0.210661  0  3.986699  0
C  C36  1  0.13900523  0.40928428  0.29436375  1  0  0.049787  0.003866  0  3.867177  0
C  C37  1  0.86099466  0.59071344  0.70563517  1  0  0.049785  0.003847  0  3.867299  0
C  C38  1  0.82982172  0.12650265  0.98596832  1  0  0.240345  0.467524  0  4.133352  0
C  C39  1  0.17017791  0.87349843  0.01403257  1  0  0.24037  0.467574  0  4.133358  0
C  C40  1  0.47726862  0.71163677  0.85500453  1  0  0.051195  0.096929  0  3.924258  0
C  C41  1  0.52273377  0.28836543  0.14499886  1  0  0.051208  0.096944  0  3.924205  0
C  C42  1  0.55988061  0.78694590  0.98793885  1  0  -0.083113  -0.127698  0  3.984534  0
C  C43  1  0.44011993  0.21305406  0.01206179  1  0  -0.08314  -0.127719  0  3.984464  0
C  C44  1  0.67958096  0.92252605  0.03643987  1  0  -0.065054  -0.050708  0  3.924  0
C  C45  1  0.32042079  0.07747391  0.96356095  1  0  -0.065076  -0.050745  0  3.92398  0
C  C46  1  0.71135664  0.98008160  0.95017858  1  0  -0.013066  -0.080461  0  3.980619  0
C  C47  1  0.28864145  0.01991836  0.04982170  1  0  -0.013042  -0.080436  0  3.980511  0
C  C48  1  0.62402553  0.89582391  0.81754801  1  0  0.059943  0.084344  0  3.876794  0
C  C49  1  0.37597533  0.10417717  0.18245391  1  0  0.059997  0.084429  0  3.876725  0
C  C50  1  0.21662643  0.24837428  0.59805790  1  0  -0.023708  -0.056715  0  3.998412  0
C  C51  1  0.78337441  0.75162680  0.40194146  1  0  -0.023711  -0.056704  0  3.998437  0
C  C52  1  0.09291527  0.29420757  0.65880850  1  0  -0.085184  -0.079998  0  3.95183  0
C  C53  1  0.90708526  0.70579239  0.34119128  1  0  -0.085198  -0.079996  0  3.95185  0
C  C54  1  0.00750867  0.20491402  0.70362848  1  0  -0.095023  -0.088192  0  3.996516  0
C  C55  1  0.99249032  0.79508482  0.29636984  1  0  -0.095029  -0.088228  0  3.996491  0
C  C56  1  0.04764703  0.07110958  0.69063572  1  0  -0.078915  -0.075084  0  3.955102  0
C  C57  1  0.95235228  0.92889038  0.30936389  1  0  -0.078924  -0.075079  0  3.955192  0
C  C58  1  0.17307143  0.02495062  0.63236031  1  0  -0.023346  -0.052857  0  3.982412  0
C  C59  1  0.82692909  0.97504934  0.36763862  1  0  -0.023345  -0.052841  0  3.982504  0
C  C60  1  0.25612508  0.11347725  0.58455756  1  0  -0.075807  -0.099693  0  3.918007  0
C  C61  1  0.74387545  0.88652271  0.41544137  1  0  -0.075787  -0.099692  0  3.91803  0
C  C62  1  0.21434021  0.88066484  0.62056889  1  0  0.202168  0.568848  0  4.225116  0
C  C63  1  0.78566032  0.11933512  0.37943090  1  0  0.202171  0.568821  0  4.225136  0
C  C64  1  0.30367057  0.34449707  0.54762367  1  0  0.215764  0.579682  0  4.205169  0
C  C65  1  0.69633150  0.65550401  0.45237587  1  0  0.215776  0.579659  0  4.2052  0
N  N66  1  0.26266068  0.53546223  0.35092759  1  0  -0.320665  -0.22508  0  3.563949  0
N  N67  1  0.73734107  0.46453773  0.64907151  1  0  -0.320672  -0.225096  0  3.563999  0
N  N68  1  0.93221469  0.20430741  0.11176835  1  0  -0.391068  -0.374564  0  3.556406  0
N  N69  1  0.06778552  0.79569143  0.88823100  1  0  -0.39106  -0.374545  0  3.556384  0
N  N70  1  0.51064511  0.76457311  0.77083205  1  0  -0.313207  -0.222371  0  3.504992  0
N  N71  1  0.48935420  0.23542685  0.22916755  1  0  -0.313209  -0.222395  0  3.505052  0
O  O72  1  0.28630542  0.47812406  0.58814210  1  0  -0.311967  -0.548247  0  2.407935  0
O  O73  1  0.71369420  0.52187702  0.41185793  1  0  -0.311979  -0.548236  0  2.407932  0
O  O74  1  0.38646020  0.28745718  0.46889305  1  0  -0.315151  -0.55893  0  2.418316  0
O  O75  1  0.61354033  0.71254279  0.53110673  1  0  -0.315142  -0.558907  0  2.418323  0
O  O76  1  0.32511651  0.84076766  0.56152288  1  0  -0.322338  -0.541678  0  2.327938  0
O  O77  1  0.67488556  0.15923342  0.43847750  1  0  -0.322319  -0.541659  0  2.327982  0
O  O78  1  0.14213494  0.80670812  0.66994017  1  0  -0.331303  -0.584799  0  2.212146  0
O  O79  1  0.85786713  0.19329296  0.33005937  1  0  -0.331332  -0.584807  0  2.2121  0
O  O80  1  0.83240596  0.17101729  0.90128834  1  0  -0.280147  -0.477676  0  2.19361  0
O  O81  1  0.16759457  0.82898267  0.09871144  1  0  -0.28018  -0.477717  0  2.193623  0
