# generated using pymatgen
data_CuSiH12C24(N2F5)2
_symmetry_space_group_name_H-M   'P 1'
_cell_length_a   8.25731010
_cell_length_b   13.84560732
_cell_length_c   13.86286913
_cell_angle_alpha   89.68350708
_cell_angle_beta   102.51741851
_cell_angle_gamma   102.68425328
_symmetry_Int_Tables_number   1
_chemical_formula_structural   CuSiH12C24(N2F5)2
_chemical_formula_sum   'Cu1 Si1 H12 C24 N4 F10'
_cell_volume   1508.00033570
_cell_formula_units_Z   1
loop_
 _symmetry_equiv_pos_site_id
 _symmetry_equiv_pos_as_xyz
  1  'x, y, z'
loop_
 _atom_site_type_symbol
 _atom_site_label
 _atom_site_symmetry_multiplicity
 _atom_site_fract_x
 _atom_site_fract_y
 _atom_site_fract_z
 _atom_site_occupancy
 _atom_site_pbe_bader_charge
 _atom_site_pbe_bader_spin_density
 _atom_site_pbe_cm5_charge
 _atom_site_pbe_ddec_charge
 _atom_site_pbe_ddec_spin_density
 _atom_site_pbe_ddec_sum_bond_order
 _atom_site_pbe_magmom
Cu  Cu0  1  0.50025407  0.50061861  0.49943669  1  1.104644  0.582257  0.763857  0.774961  0.739526  2.039782  0.583
Si  Si1  1  0.00003440  0.49847629  0.50161121  1  3.22314  -0.000141  0.240443  1.730283  -0.000235  3.905795  0.0
H  H2  1  0.25712628  0.62380333  0.44144095  1  0.247009  0.002499  0.119364  0.115534  0.001307  1.074142  0.002
H  H3  1  0.23460934  0.79763926  0.44070714  1  0.118336  0.000724  0.12373  0.141064  0.00038  0.967134  0.0
H  H4  1  0.78203169  0.87943842  0.55521104  1  0.105999  0.001837  0.124005  0.157259  0.000939  0.968054  0.001
H  H5  1  0.22015847  0.12236846  0.43634752  1  0.122863  0.001763  0.124359  0.157657  0.00091  0.968429  0.001
H  H6  1  0.74057406  0.37627860  0.56680135  1  0.24256  0.002486  0.119915  0.116258  0.001306  1.067555  0.002
H  H7  1  0.76138962  0.20199301  0.56999822  1  0.14141  0.000727  0.123185  0.140166  0.000387  0.967513  0.0
H  H8  1  0.25926949  0.43516482  0.62424193  1  0.252612  0.002477  0.119603  0.11678  0.001313  1.068269  0.002
H  H9  1  0.23741464  0.43226612  0.79812999  1  0.09519  0.000741  0.123788  0.141022  0.000382  0.967811  0.0
H  H10  1  0.78100310  0.56031930  0.87791133  1  0.115256  0.001789  0.123694  0.156965  0.000918  0.96894  0.001
H  H11  1  0.21683028  0.44777387  0.12074597  1  0.139644  0.001817  0.123576  0.156786  0.000946  0.969885  0.001
H  H12  1  0.74327348  0.55650074  0.37539877  1  0.245834  0.002513  0.120179  0.116547  0.001313  1.074583  0.002
H  H13  1  0.76565813  0.55703670  0.20167498  1  0.1136  0.00072  0.122798  0.13992  0.000378  0.967524  0.0
C  C14  1  0.37096881  0.68224268  0.46580609  1  0.415149  -0.000534  0.059627  0.131328  -0.001644  3.885237  -0.001
C  C15  1  0.35901475  0.78043758  0.46534205  1  0.059564  0.006013  -0.072331  -0.171342  0.004054  3.873532  0.005
C  C16  1  0.50690443  0.85526455  0.49847147  1  0.058951  -0.002599  0.023276  0.202286  -0.002989  4.118638  -0.002
C  C17  1  0.66195047  0.82620447  0.52951375  1  0.070633  0.004844  -0.086319  -0.298892  0.003462  3.900021  0.004
C  C18  1  0.66005044  0.72573559  0.52720952  1  1.074073  0.002386  0.238107  0.445442  0.001576  4.082513  0.002
C  C19  1  0.50125012  0.95659736  0.50049104  1  -0.270455  -0.000741  -0.026483  -0.086855  -0.000839  4.063556  0.0
C  C20  1  0.49695796  0.04400329  0.50227592  1  -0.075276  -0.000754  -0.022962  -0.082552  -0.000882  4.06254  0.0
C  C21  1  0.49186342  0.14545405  0.50341605  1  0.086482  -0.002571  0.022505  0.199676  -0.002953  4.123631  -0.002
C  C22  1  0.33912000  0.17518752  0.46605829  1  0.083713  0.004746  -0.086959  -0.298429  0.003414  3.902998  0.004
C  C23  1  0.34260937  0.27587720  0.46636828  1  1.058891  0.002286  0.239301  0.445711  0.001426  4.079217  0.002
C  C24  1  0.62758853  0.31814818  0.53924084  1  0.413274  -0.000513  0.058481  0.130127  -0.001565  3.888081  -0.001
C  C25  1  0.63853281  0.21976437  0.54099196  1  0.001988  0.005997  -0.070061  -0.168979  0.004034  3.873532  0.005
C  C26  1  0.37247499  0.46173256  0.68232153  1  0.408354  -0.000453  0.059707  0.131296  -0.001538  3.886788  -0.001
C  C27  1  0.36096695  0.46012616  0.78051322  1  0.043185  0.006013  -0.071867  -0.171835  0.004053  3.876859  0.005
C  C28  1  0.50806227  0.49626996  0.85476296  1  0.128329  -0.002555  0.022503  0.200552  -0.002938  4.125254  -0.002
C  C29  1  0.66171378  0.53186360  0.82510653  1  0.044568  0.004757  -0.086497  -0.298452  0.003424  3.903181  0.004
C  C30  1  0.65885765  0.53134378  0.72462444  1  1.055631  0.00239  0.237911  0.444806  0.0015  4.081994  0.002
C  C31  1  0.50259157  0.49756608  0.95602580  1  -0.076114  -0.000743  -0.023513  -0.082704  -0.000871  4.064078  0.0
C  C32  1  0.49816131  0.49945393  0.04331695  1  -0.273403  -0.000732  -0.026138  -0.087182  -0.000829  4.064433  0.0
C  C33  1  0.49263546  0.50170869  0.14453617  1  0.095026  -0.002591  0.023063  0.202714  -0.002977  4.120838  -0.002
C  C34  1  0.33722958  0.47230958  0.17379040  1  0.030763  0.004898  -0.086515  -0.299503  0.003473  3.902331  0.004
C  C35  1  0.33917985  0.47491680  0.27413519  1  1.108536  0.002386  0.239436  0.447061  0.001645  4.079133  0.002
C  C36  1  0.62910988  0.53322065  0.31716181  1  0.422974  -0.000519  0.058785  0.13053  -0.001624  3.884754  -0.001
C  C37  1  0.64100550  0.53353051  0.21905287  1  0.020878  0.006057  -0.070962  -0.169649  0.004065  3.873725  0.005
N  N38  1  0.51999397  0.65377462  0.49795529  1  -1.191762  0.08837  -0.328733  -0.329735  0.058273  3.509729  0.076
N  N39  1  0.48114032  0.34733079  0.50096026  1  -1.207656  0.086985  -0.329415  -0.328717  0.057482  3.511133  0.075
N  N40  1  0.51984503  0.49846393  0.65319609  1  -1.195999  0.087547  -0.32737  -0.329247  0.057815  3.505853  0.076
N  N41  1  0.47966496  0.50264230  0.34583952  1  -1.222266  0.089132  -0.328448  -0.33142  0.058735  3.504932  0.077
F  F42  1  0.20103840  0.48501665  0.48876383  1  -0.834061  0.001355  -0.225927  -0.55465  0.000361  1.303895  0.002
F  F43  1  0.79898284  0.51217198  0.51412238  1  -0.833261  0.001347  -0.227212  -0.555677  0.000361  1.306146  0.002
F  F44  1  0.00047454  0.58621681  0.41235351  1  -0.835045  0.000924  -0.242898  -0.531332  0.000627  1.096864  0.001
F  F45  1  0.99960575  0.41082109  0.59080961  1  -0.836673  0.000785  -0.244081  -0.533  0.000533  1.090749  0.001
F  F46  1  0.09716528  0.58883714  0.59028252  1  -0.834958  -3.6e-05  -0.268576  -0.553729  -2.4e-05  1.06915  0.0
F  F47  1  0.90284126  0.40815889  0.41288948  1  -0.83472  -4.1e-05  -0.269315  -0.553851  -2.8e-05  1.069129  0.0
F  F48  1  0.80805880  0.69894558  0.55605451  1  -0.60699  0.00099  -0.057575  -0.112732  0.000403  1.430321  0.001
F  F49  1  0.19779054  0.30365221  0.42884840  1  -0.607251  0.000968  -0.058384  -0.114191  0.000392  1.426171  0.001
F  F50  1  0.80499126  0.56657360  0.69712376  1  -0.608261  0.000986  -0.058531  -0.114139  0.000405  1.427589  0.001
F  F51  1  0.19066505  0.44820937  0.30101946  1  -0.604907  0.001011  -0.058128  -0.113939  0.000414  1.429801  0.001
