# generated using pymatgen
data_H14PbC18(BrN2)2
_symmetry_space_group_name_H-M   'P 1'
_cell_length_a   4.13236007
_cell_length_b   13.25594220
_cell_length_c   17.30888730
_cell_angle_alpha   89.99847386
_cell_angle_beta   90.00116049
_cell_angle_gamma   90.99549585
_symmetry_Int_Tables_number   1
_chemical_formula_structural   H14PbC18(BrN2)2
_chemical_formula_sum   'H28 Pb2 C36 Br4 N8'
_cell_volume   948.00876474
_cell_formula_units_Z   2
loop_
 _symmetry_equiv_pos_site_id
 _symmetry_equiv_pos_as_xyz
  1  'x, y, z'
loop_
 _atom_site_type_symbol
 _atom_site_label
 _atom_site_symmetry_multiplicity
 _atom_site_fract_x
 _atom_site_fract_y
 _atom_site_fract_z
 _atom_site_occupancy
 _atom_site_hle17_bader_spin_density
 _atom_site_hle17_ddec_charge
 _atom_site_hle17_ddec_spin_density
 _atom_site_hle17_ddec_sum_bond_order
 _atom_site_hle17_magmom
 _atom_site_hse06_10hf_bader_spin_density
 _atom_site_hse06_10hf_ddec_charge
 _atom_site_hse06_10hf_ddec_spin_density
 _atom_site_hse06_10hf_ddec_sum_bond_order
 _atom_site_hse06_10hf_magmom
 _atom_site_hse06_bader_spin_density
 _atom_site_hse06_ddec_charge
 _atom_site_hse06_ddec_spin_density
 _atom_site_hse06_ddec_sum_bond_order
 _atom_site_hse06_magmom
 _atom_site_pbe_bader_spin_density
 _atom_site_pbe_cm5_charge
 _atom_site_pbe_ddec_charge
 _atom_site_pbe_ddec_spin_density
 _atom_site_pbe_ddec_sum_bond_order
 _atom_site_pbe_magmom
H  H0  1  0.84309012  0.69289605  0.87819530  1  0  0.054979  0  0.957306  0  0  0.062519  0  1.032366  0  0  0.065462  0  1.028519  0  0  0.097655  0.060346  0  1.035222  0
H  H1  1  0.15697186  0.80707946  0.37819208  1  0  0.05494  0  0.957191  0  0  0.062421  0  1.032317  0  0  0.065365  0  1.028477  0  0  0.097576  0.060249  0  1.035172  0
H  H2  1  0.15691528  0.30710057  0.12180462  1  0  0.054986  0  0.95719  0  0  0.062529  0  1.032251  0  0  0.065473  0  1.028404  0  0  0.097651  0.060358  0  1.035106  0
H  H3  1  0.84309969  0.19290176  0.62179570  1  0  0.054912  0  0.957229  0  0  0.062478  0  1.032317  0  0  0.065427  0  1.02846  0  0  0.097627  0.060307  0  1.035172  0
H  H4  1  0.38218693  0.66810668  0.94363883  1  0  0.092058  0  0.990189  0  0  0.099816  0  1.059716  0  0  0.102404  0  1.058386  0  0  0.088821  0.097927  0  1.060773  0
H  H5  1  0.61780036  0.83188810  0.44365008  1  0  0.09209  0  0.990047  0  0  0.099815  0  1.059628  0  0  0.102423  0  1.05827  0  0  0.088816  0.097887  0  1.060715  0
H  H6  1  0.61783127  0.33189668  0.05636166  1  0  0.092017  0  0.990262  0  0  0.099776  0  1.059795  0  0  0.10236  0  1.058461  0  0  0.08879  0.097843  0  1.060894  0
H  H7  1  0.38220980  0.16810775  0.55635041  1  0  0.092074  0  0.990078  0  0  0.099799  0  1.059664  0  0  0.102412  0  1.058297  0  0  0.08883  0.097869  0  1.060756  0
H  H8  1  0.80736194  0.37488985  0.92410088  1  0  0.091241  0  0.97748  0  0  0.102198  0  1.041387  0  0  0.104221  0  1.041657  0  0  0.098341  0.100772  0  1.041238  0
H  H9  1  0.19262506  0.12510764  0.42409520  1  0  0.091228  0  0.977393  0  0  0.102203  0  1.0413  0  0  0.104228  0  1.041566  0  0  0.098333  0.100778  0  1.041152  0
H  H10  1  0.19264151  0.62511131  0.07589730  1  0  0.091263  0  0.977435  0  0  0.102183  0  1.041387  0  0  0.104207  0  1.041656  0  0  0.098326  0.100758  0  1.041238  0
H  H11  1  0.80735809  0.87488457  0.57590760  1  0  0.091213  0  0.977423  0  0  0.102205  0  1.041312  0  0  0.104228  0  1.041581  0  0  0.098337  0.100781  0  1.041164  0
H  H12  1  0.80700301  0.52441978  0.69738634  1  0  0.08223  0  0.947418  0  0  0.083517  0  1.024215  0  0  0.087282  0  1.019847  0  0  0.108751  0.080802  0  1.027278  0
H  H13  1  0.19301722  0.97558169  0.19738507  1  0  0.082299  0  0.947339  0  0  0.083531  0  1.024171  0  0  0.087296  0  1.019802  0  0  0.108775  0.080818  0  1.027232  0
H  H14  1  0.19302626  0.47557371  0.30261415  1  0  0.082353  0  0.947303  0  0  0.083593  0  1.024117  0  0  0.087359  0  1.019748  0  0  0.108809  0.080882  0  1.027174  0
H  H15  1  0.80699404  0.02442472  0.80260965  1  0  0.082297  0  0.947359  0  0  0.083532  0  1.024187  0  0  0.087296  0  1.019819  0  0  0.108758  0.080818  0  1.02725  0
H  H16  1  0.31740506  0.86078351  0.66615960  1  0  0.114055  0  0.951435  0  0  0.121494  0  1.013855  0  0  0.125159  0  1.012389  0  0  0.109088  0.11886  0  1.015097  0
H  H17  1  0.68255520  0.63922535  0.16615430  1  0  0.114031  0  0.951398  0  0  0.121404  0  1.013904  0  0  0.12507  0  1.012439  0  0  0.10906  0.118769  0  1.015143  0
H  H18  1  0.68256679  0.13921630  0.33384667  1  0  0.114119  0  0.95144  0  0  0.121486  0  1.013931  0  0  0.125151  0  1.012465  0  0  0.10909  0.118853  0  1.015171  0
H  H19  1  0.31743203  0.36078269  0.83383753  1  0  0.114037  0  0.951446  0  0  0.121442  0  1.013908  0  0  0.125107  0  1.012442  0  0  0.109068  0.118806  0  1.015147  0
H  H20  1  0.09834983  0.81104782  0.79629156  1  0  0.100522  0  0.966838  0  0  0.107758  0  1.035618  0  0  0.111108  0  1.032568  0  0  0.094182  0.105236  0  1.03793  0
H  H21  1  0.90167286  0.68894273  0.29628632  1  0  0.100501  0  0.966812  0  0  0.107763  0  1.035567  0  0  0.111116  0  1.032513  0  0  0.094193  0.105241  0  1.037878  0
H  H22  1  0.90163840  0.18894662  0.20371413  1  0  0.100513  0  0.966888  0  0  0.107785  0  1.035625  0  0  0.111136  0  1.032573  0  0  0.094205  0.105264  0  1.037939  0
H  H23  1  0.09834277  0.31105913  0.70370493  1  0  0.100602  0  0.966859  0  0  0.10781  0  1.035674  0  0  0.111161  0  1.03262  0  0  0.094166  0.105288  0  1.037983  0
H  H24  1  0.26849251  0.73610819  0.55703242  1  0  0.068872  0  0.963377  0  0  0.073874  0  1.036849  0  0  0.076379  0  1.034717  0  0  0.103967  0.07203  0  1.0384  0
H  H25  1  0.73145034  0.76391578  0.05703233  1  0  0.068977  0  0.963271  0  0  0.074002  0  1.036749  0  0  0.076447  0  1.034667  0  0  0.103941  0.072114  0  1.038339  0
H  H26  1  0.73150626  0.26389451  0.44297212  1  0  0.068936  0  0.963322  0  0  0.073871  0  1.036861  0  0  0.076375  0  1.03473  0  0  0.103954  0.072028  0  1.038412  0
H  H27  1  0.26849664  0.23610075  0.94296817  1  0  0.068854  0  0.963417  0  0  0.07386  0  1.036892  0  0  0.07636  0  1.034766  0  0  0.103927  0.072014  0  1.038443  0
Pb  Pb28  1  0.99997207  0.49999233  0.50001158  1  0  0.989448  0  1.786922  0  0  0.796722  0  2.248773  0  0  0.854576  0  2.21012  0  0  0.405231  0.756441  0  2.274445  0
Pb  Pb29  1  0.99998033  0.00000105  0.99999394  1  0  0.989476  0  1.786931  0  0  0.796789  0  2.248731  0  0  0.854614  0  2.210109  0  0  0.405239  0.756501  0  2.274391  0
C  C30  1  0.60989770  0.52399187  0.92491580  1  0  0.201324  0  3.84398  0  0  0.205957  0  4.089837  0  0  0.20988  0  4.114051  0  0  0.085448  0.203295  0  4.073348  0
C  C31  1  0.39008088  0.97600435  0.42491779  1  0  0.201481  0  3.843954  0  0  0.206023  0  4.089938  0  0  0.209949  0  4.114145  0  0  0.085457  0.203362  0  4.073454  0
C  C32  1  0.39009608  0.47600934  0.07508816  1  0  0.201348  0  3.84362  0  0  0.205913  0  4.089586  0  0  0.209833  0  4.113796  0  0  0.085481  0.203252  0  4.07309  0
C  C33  1  0.60989743  0.02398788  0.57508155  1  0  0.201325  0  3.84416  0  0  0.205957  0  4.09  0  0  0.209882  0  4.114211  0  0  0.085466  0.203296  0  4.073515  0
C  C34  1  0.43636309  0.59467817  0.96851595  1  0  -0.151399  0  3.748502  0  0  -0.16655  0  3.989326  0  0  -0.171515  0  4.013462  0  0  -0.097186  -0.163112  0  3.972936  0
C  C35  1  0.56362937  0.90532254  0.46852428  1  0  -0.151453  0  3.748612  0  0  -0.166568  0  3.989523  0  0  -0.171545  0  4.013631  0  0  -0.097188  -0.163093  0  3.973168  0
C  C36  1  0.56366479  0.40532514  0.03148338  1  0  -0.151297  0  3.748365  0  0  -0.166441  0  3.989245  0  0  -0.171395  0  4.013373  0  0  -0.097154  -0.162968  0  3.972883  0
C  C37  1  0.43636862  0.09467262  0.53147736  1  0  -0.151407  0  3.748679  0  0  -0.16655  0  3.989561  0  0  -0.171529  0  4.013662  0  0  -0.097216  -0.163074  0  3.973205  0
C  C38  1  0.94119148  0.66302596  0.75728801  1  0  -0.005982  0  3.788468  0  0  0.018269  0  4.019265  0  0  0.011594  0  4.043902  0  0  -0.00664  0.022392  0  4.002696  0
C  C39  1  0.05884729  0.83696509  0.25728544  1  0  -0.005899  0  3.788821  0  0  0.018275  0  4.019693  0  0  0.011594  0  4.044337  0  0  -0.006626  0.02239  0  4.003133  0
C  C40  1  0.05883311  0.33696907  0.24271421  1  0  -0.005994  0  3.788317  0  0  0.018172  0  4.01923  0  0  0.011494  0  4.043871  0  0  -0.006604  0.022293  0  4.002665  0
C  C41  1  0.94118761  0.16303593  0.74270697  1  0  -0.00604  0  3.788472  0  0  0.018315  0  4.019159  0  0  0.011633  0  4.0438  0  0  -0.006541  0.022428  0  4.002601  0
C  C42  1  0.66874609  0.42882667  0.95742334  1  0  -0.125788  0  3.739327  0  0  -0.142987  0  3.982542  0  0  -0.146505  0  4.004936  0  0  -0.089966  -0.140507  0  3.967274  0
C  C43  1  0.33125767  0.07116508  0.45742117  1  0  -0.125809  0  3.739404  0  0  -0.142978  0  3.982619  0  0  -0.146501  0  4.005021  0  0  -0.089961  -0.140499  0  3.967357  0
C  C44  1  0.33126664  0.57117067  0.04257773  1  0  -0.125803  0  3.739202  0  0  -0.14295  0  3.98243  0  0  -0.146467  0  4.004827  0  0  -0.089973  -0.140473  0  3.967175  0
C  C45  1  0.66873306  0.92883011  0.54258048  1  0  -0.125761  0  3.739583  0  0  -0.142978  0  3.982774  0  0  -0.146499  0  4.005174  0  0  -0.089989  -0.140498  0  3.967514  0
C  C46  1  0.92065855  0.59918060  0.69256464  1  0  0.114512  0  3.657594  0  0  0.077236  0  3.904058  0  0  0.084954  0  3.921864  0  0  0.059191  0.072305  0  3.891926  0
C  C47  1  0.07935154  0.90082033  0.19256375  1  0  0.114456  0  3.657468  0  0  0.077254  0  3.903935  0  0  0.084975  0  3.921746  0  0  0.05916  0.072324  0  3.891812  0
C  C48  1  0.07935887  0.40081522  0.30743643  1  0  0.114336  0  3.657412  0  0  0.077153  0  3.903873  0  0  0.084865  0  3.921688  0  0  0.059077  0.072225  0  3.891739  0
C  C49  1  0.92064981  0.09918386  0.80743385  1  0  0.114475  0  3.657573  0  0  0.077222  0  3.904019  0  0  0.084944  0  3.921824  0  0  0.05913  0.072293  0  3.891896  0
C  C50  1  0.20345003  0.78697431  0.67526291  1  0  -0.111364  0  3.732075  0  0  -0.121158  0  3.981539  0  0  -0.127686  0  4.001937  0  0  -0.081342  -0.117103  0  3.967907  0
C  C51  1  0.79654678  0.71302953  0.17525898  1  0  -0.111351  0  3.732098  0  0  -0.121067  0  3.981534  0  0  -0.127591  0  4.001917  0  0  -0.081323  -0.117008  0  3.967882  0
C  C52  1  0.79655786  0.21302306  0.32473989  1  0  -0.111454  0  3.732007  0  0  -0.121167  0  3.981486  0  0  -0.127693  0  4.001884  0  0  -0.081382  -0.117111  0  3.967852  0
C  C53  1  0.20344747  0.28697621  0.82473516  1  0  -0.111149  0  3.732121  0  0  -0.120913  0  3.981591  0  0  -0.127435  0  4.001986  0  0  -0.081291  -0.116857  0  3.967951  0
C  C54  1  0.82730061  0.63308469  0.83388337  1  0  0.130816  0  3.706646  0  0  0.096917  0  3.965274  0  0  0.106225  0  3.979449  0  0  0.073761  0.090746  0  3.955605  0
C  C55  1  0.17272304  0.86690760  0.33387844  1  0  0.130697  0  3.70703  0  0  0.096874  0  3.965657  0  0  0.10618  0  3.979838  0  0  0.073759  0.090709  0  3.955988  0
C  C56  1  0.17271719  0.36691489  0.16611712  1  0  0.130891  0  3.706553  0  0  0.09701  0  3.96519  0  0  0.106318  0  3.979366  0  0  0.073872  0.09084  0  3.955524  0
C  C57  1  0.82730623  0.13308589  0.66610992  1  0  0.130924  0  3.706515  0  0  0.096919  0  3.965186  0  0  0.106227  0  3.979362  0  0  0.073713  0.090754  0  3.955519  0
C  C58  1  0.08162436  0.75930961  0.74730277  1  0  -0.035909  0  3.673764  0  0  -0.062308  0  3.917306  0  0  -0.059622  0  3.935835  0  0  -0.061624  -0.063651  0  3.904612  0
C  C59  1  0.91839277  0.74069094  0.24729713  1  0  -0.036019  0  3.674059  0  0  -0.062395  0  3.917567  0  0  -0.059714  0  3.93611  0  0  -0.061691  -0.063737  0  3.904874  0
C  C60  1  0.91837120  0.24068555  0.25270235  1  0  -0.035936  0  3.673943  0  0  -0.062341  0  3.917496  0  0  -0.059654  0  3.936026  0  0  -0.061694  -0.063684  0  3.904806  0
C  C61  1  0.08161342  0.25931323  0.75269296  1  0  -0.036068  0  3.67407  0  0  -0.062475  0  3.917614  0  0  -0.059794  0  3.936156  0  0  -0.061652  -0.063815  0  3.904925  0
C  C62  1  0.17586914  0.71820204  0.61462129  1  0  0.118836  0  3.718754  0  0  0.088167  0  3.971276  0  0  0.095316  0  3.990388  0  0  0.043024  0.083589  0  3.958275  0
C  C63  1  0.82408730  0.78181236  0.11461724  1  0  0.118902  0  3.718697  0  0  0.088195  0  3.97113  0  0  0.095398  0  3.990258  0  0  0.043115  0.083654  0  3.958136  0
C  C64  1  0.82411333  0.28180677  0.38538267  1  0  0.118878  0  3.718895  0  0  0.088255  0  3.971392  0  0  0.095405  0  3.990507  0  0  0.043161  0.083675  0  3.95839  0
C  C65  1  0.17589775  0.21819795  0.88537516  1  0  0.118672  0  3.718936  0  0  0.087998  0  3.971439  0  0  0.095146  0  3.990555  0  0  0.042962  0.083424  0  3.958432  0
Br  Br66  1  0.49586274  0.37616838  0.58396964  1  0  -0.555318  0  0.939154  0  0  -0.478004  0  1.221278  0  0  -0.501237  0  1.200754  0  0  -0.214316  -0.461477  0  1.23548  0
Br  Br67  1  0.50411801  0.12383842  0.08394067  1  0  -0.555356  0  0.939117  0  0  -0.478092  0  1.22127  0  0  -0.501312  0  1.200742  0  0  -0.214349  -0.461563  0  1.235471  0
Br  Br68  1  0.50409468  0.62383225  0.41606725  1  0  -0.555358  0  0.939168  0  0  -0.47807  0  1.221325  0  0  -0.501299  0  1.200797  0  0  -0.214342  -0.461545  0  1.235526  0
Br  Br69  1  0.49584785  0.87617349  0.91604827  1  0  -0.555322  0  0.939138  0  0  -0.478027  0  1.221258  0  0  -0.501246  0  1.200722  0  0  -0.214328  -0.4615  0  1.235461  0
N  N70  1  0.03418817  0.62641399  0.62304125  1  0  -0.344728  0  3.238076  0  0  -0.268505  0  3.493502  0  0  -0.29044  0  3.51775  0  0  -0.30473  -0.253633  0  3.476803  0
N  N71  1  0.96580719  0.87359541  0.12303891  1  0  -0.344861  0  3.238093  0  0  -0.268646  0  3.493535  0  0  -0.290574  0  3.517753  0  0  -0.304705  -0.253765  0  3.476806  0
N  N72  1  0.96583150  0.37358031  0.37696213  1  0  -0.344777  0  3.238362  0  0  -0.268563  0  3.493769  0  0  -0.290497  0  3.51802  0  0  -0.304771  -0.253693  0  3.477073  0
N  N73  1  0.03416592  0.12641647  0.87695522  1  0  -0.344676  0  3.238235  0  0  -0.268455  0  3.493657  0  0  -0.290383  0  3.517898  0  0  -0.30463  -0.253574  0  3.476936  0
N  N74  1  0.72287877  0.54344296  0.85004509  1  0  -0.33369  0  3.061428  0  0  -0.29655  0  3.32749  0  0  -0.310254  0  3.34327  0  0  -0.309023  -0.287021  0  3.316419  0
N  N75  1  0.27708050  0.95654532  0.35004924  1  0  -0.333597  0  3.061818  0  0  -0.296428  0  3.327874  0  0  -0.310133  0  3.343655  0  0  -0.308941  -0.286899  0  3.31681  0
N  N76  1  0.27712865  0.45654988  0.14995771  1  0  -0.333719  0  3.061524  0  0  -0.296548  0  3.327603  0  0  -0.310251  0  3.343384  0  0  -0.309125  -0.287017  0  3.316537  0
N  N77  1  0.72290539  0.04344989  0.64995299  1  0  -0.333714  0  3.061585  0  0  -0.296539  0  3.327674  0  0  -0.310245  0  3.343454  0  0  -0.308983  -0.287008  0  3.316609  0
