# generated using pymatgen
data_MnH12(C3N)6
_symmetry_space_group_name_H-M   'P 1'
_cell_length_a   5.37532686
_cell_length_b   9.28628162
_cell_length_c   11.84479025
_cell_angle_alpha   96.90943738
_cell_angle_beta   95.92120181
_cell_angle_gamma   98.25421689
_symmetry_Int_Tables_number   1
_chemical_formula_structural   MnH12(C3N)6
_chemical_formula_sum   'Mn1 H12 C18 N6'
_cell_volume   576.49883072
_cell_formula_units_Z   1
loop_
 _symmetry_equiv_pos_site_id
 _symmetry_equiv_pos_as_xyz
  1  'x, y, z'
loop_
 _atom_site_type_symbol
 _atom_site_label
 _atom_site_symmetry_multiplicity
 _atom_site_fract_x
 _atom_site_fract_y
 _atom_site_fract_z
 _atom_site_occupancy
 _atom_site_pbe_bader_charge
 _atom_site_pbe_bader_spin_density
 _atom_site_pbe_cm5_charge
 _atom_site_pbe_ddec_charge
 _atom_site_pbe_ddec_spin_density
 _atom_site_pbe_ddec_sum_bond_order
 _atom_site_pbe_magmom
Mn  Mn0  1  0.00002299  0.00004621  0.99965228  1  1.460067  4.468117  0.630787  0.796706  4.611636  2.58151  4.384
H  H1  1  0.18205487  0.29786511  0.89842664  1  0.063866  0.000627  0.098175  0.103251  0.000197  1.03444  0.0
H  H2  1  0.37125486  0.55600525  0.89535478  1  0.042067  0.00049  0.098221  0.111589  0.000109  1.008106  0.0
H  H3  1  0.32935123  0.89527153  0.79367853  1  0.140037  0.001407  0.118378  0.087966  0.000562  1.039038  0.001
H  H4  1  0.31767596  0.87775322  0.58484856  1  0.098261  0.000725  0.106778  0.110308  0.000427  1.016068  0.0
H  H5  1  0.73178300  0.13035505  0.79538458  1  0.108688  0.001368  0.120381  0.087346  0.000585  1.016152  0.0
H  H6  1  0.69720368  0.12912479  0.58551459  1  0.077564  0.000778  0.106469  0.111139  0.000457  1.012515  0.0
H  H7  1  0.81790836  0.70215025  0.10157927  1  0.063882  0.00062  0.098135  0.103317  0.000189  1.034382  0.0
H  H8  1  0.62871249  0.44398014  0.10464227  1  0.042028  0.000491  0.09823  0.111635  0.00011  1.008092  0.0
H  H9  1  0.67062963  0.10473009  0.20635593  1  0.140179  0.001395  0.118278  0.087991  0.000551  1.038701  0.0
H  H10  1  0.68229942  0.12222932  0.41516894  1  0.097695  0.000722  0.106708  0.110338  0.000427  1.01642  0.0
H  H11  1  0.26820855  0.86963878  0.20465152  1  0.108935  0.001345  0.120285  0.087401  0.000564  1.016058  0.0
H  H12  1  0.30273828  0.87087163  0.41451326  1  0.077375  0.000772  0.106498  0.111198  0.000455  1.01258  0.0
C  C13  1  0.10094581  0.38631795  0.94244255  1  -0.078475  0.005324  -0.108678  -0.172774  0.003926  4.027451  0.003
C  C14  1  0.56013212  0.17138423  0.02621856  1  1.502188  0.04087  0.298191  0.440135  0.036776  4.28455  0.032
C  C15  1  0.20695935  0.53169421  0.94080047  1  -0.016659  0.005448  -0.109927  -0.183733  0.00414  4.022112  0.003
C  C16  1  0.00517010  0.00224829  0.56294379  1  -0.057397  0.004559  0.007122  0.095377  0.003467  3.990372  0.003
C  C17  1  0.89186935  0.35200703  0.00170050  1  0.379814  0.006818  0.079242  0.225129  0.005391  4.080217  0.004
C  C18  1  0.18852593  0.94395429  0.74434280  1  0.500764  0.005195  0.055208  0.101831  0.003846  3.934278  0.003
C  C19  1  0.18179427  0.93569923  0.62603845  1  -0.096978  0.002047  -0.086152  -0.178225  0.001268  3.954224  0.001
C  C20  1  0.85751903  0.07541194  0.74445212  1  0.521931  0.00429  0.055091  0.099207  0.0032  3.955342  0.002
C  C21  1  0.83992766  0.07358543  0.62634833  1  -0.052825  0.002286  -0.086056  -0.181024  0.001469  3.955539  0.001
C  C22  1  0.89906074  0.61369959  0.05758263  1  -0.077389  0.005324  -0.108441  -0.172486  0.003922  4.026808  0.003
C  C23  1  0.43999828  0.82860470  0.97382172  1  1.502299  0.04085  0.29801  0.439777  0.036775  4.284565  0.032
C  C24  1  0.79305060  0.46831015  0.05922640  1  -0.014924  0.005462  -0.10986  -0.18371  0.004154  4.021466  0.003
C  C25  1  0.99478543  0.99772982  0.43706307  1  -0.012072  0.0043  0.00685  0.095382  0.003277  3.991499  0.002
C  C26  1  0.10814919  0.64800029  0.99831775  1  0.380871  0.006815  0.079274  0.225138  0.005389  4.080384  0.004
C  C27  1  0.81147729  0.05602819  0.25568541  1  0.500088  0.00497  0.055071  0.101696  0.003657  3.933325  0.003
C  C28  1  0.81816664  0.06427409  0.37399787  1  -0.096607  0.002153  -0.086181  -0.178439  0.001374  3.954637  0.001
C  C29  1  0.14242962  0.92458753  0.25556955  1  0.521248  0.004077  0.055077  0.099144  0.003021  3.955067  0.002
C  C30  1  0.16001288  0.92639475  0.37368832  1  -0.053213  0.002377  -0.086319  -0.181342  0.001559  3.955735  0.001
N  N31  1  0.02955329  0.01265621  0.80391842  1  -1.242219  0.049594  -0.299819  -0.220375  0.03565  3.450755  0.023
N  N32  1  0.35403148  0.13082156  0.05021979  1  -1.341329  0.062692  -0.418723  -0.592281  0.04024  3.195182  0.013
N  N33  1  0.78670184  0.20301882  0.00154262  1  -1.304104  0.070927  -0.349364  -0.443116  0.051906  3.529664  0.035
N  N34  1  0.97045488  0.98736341  0.19606141  1  -1.240009  0.049453  -0.299035  -0.220498  0.035518  3.447309  0.023
N  N35  1  0.64608401  0.86923115  0.94985505  1  -1.342619  0.062778  -0.419065  -0.592405  0.040267  3.197005  0.013
N  N36  1  0.21335096  0.79696608  0.99839289  1  -1.303025  0.070924  -0.348841  -0.442595  0.051926  3.529094  0.035
