# generated using pymatgen
data_CuH18C22(SN6)2
_symmetry_space_group_name_H-M   'P 1'
_cell_length_a   9.61178519
_cell_length_b   9.61197327
_cell_length_c   13.57989281
_cell_angle_alpha   94.82745012
_cell_angle_beta   94.85397581
_cell_angle_gamma   100.84494082
_symmetry_Int_Tables_number   1
_chemical_formula_structural   CuH18C22(SN6)2
_chemical_formula_sum   'Cu2 H36 C44 S4 N24'
_cell_volume   1221.35854632
_cell_formula_units_Z   2
loop_
 _symmetry_equiv_pos_site_id
 _symmetry_equiv_pos_as_xyz
  1  'x, y, z'
loop_
 _atom_site_type_symbol
 _atom_site_label
 _atom_site_symmetry_multiplicity
 _atom_site_fract_x
 _atom_site_fract_y
 _atom_site_fract_z
 _atom_site_occupancy
 _atom_site_pbe_cm5_charge
 _atom_site_pbe_ddec_charge
 _atom_site_pbe_ddec_spin_density
 _atom_site_pbe_ddec_sum_bond_order
 _atom_site_pbe_magmom
Cu  Cu0  1  0.99999739  0.49999628  0.00000025  1  0.80803  0.766304  -0.751462  2.476241  -0.598
Cu  Cu1  1  0.49999655  0.00000080  0.50000025  1  0.807552  0.766309  -0.751478  2.474332  -0.598
H  H2  1  0.27214117  0.71098804  0.89598130  1  0.105017  0.120096  8.5e-05  1.013348  0.0
H  H3  1  0.28905257  0.72797270  0.60400280  1  0.105018  0.119924  8.5e-05  1.013687  0.0
H  H4  1  0.72785969  0.28901699  0.10400713  1  0.104995  0.120022  8.5e-05  1.013458  0.0
H  H5  1  0.71094625  0.27202073  0.39599593  1  0.104977  0.119862  8.5e-05  1.013774  0.0
H  H6  1  0.52239761  0.81298266  0.86437180  1  0.089874  0.09727  3.9e-05  1.028985  0.0
H  H7  1  0.18701665  0.47768978  0.63561050  1  0.089818  0.09719  3.9e-05  1.029349  0.0
H  H8  1  0.47760518  0.18701600  0.13561418  1  0.089922  0.097323  3.9e-05  1.028976  0.0
H  H9  1  0.81299493  0.52230489  0.36438974  1  0.089851  0.097296  3.9e-05  1.029414  0.0
H  H10  1  0.70141309  0.66215305  0.85366955  1  0.095277  0.092976  4.1e-05  1.051015  0.0
H  H11  1  0.33780007  0.29861604  0.64632730  1  0.095307  0.093044  4.2e-05  1.050965  0.0
H  H12  1  0.29858711  0.33784246  0.14632348  1  0.095268  0.093005  4.2e-05  1.050869  0.0
H  H13  1  0.66221188  0.70138073  0.35367013  1  0.095272  0.092988  4.2e-05  1.051004  0.0
H  H14  1  0.64192606  0.40193673  0.86687954  1  0.102653  0.120045  0.000108  1.027888  0.0
H  H15  1  0.59800979  0.35805619  0.63313218  1  0.102674  0.119955  0.000109  1.027946  0.0
H  H16  1  0.35807012  0.59805978  0.13311185  1  0.102678  0.120087  0.000108  1.027815  0.0
H  H17  1  0.40200458  0.64194805  0.36686654  1  0.102682  0.119936  0.000109  1.028008  0.0
H  H18  1  0.32080188  0.06690636  0.92469121  1  0.122669  0.090296  -0.000221  1.014718  0.0
H  H19  1  0.93306621  0.67921817  0.57536164  1  0.122805  0.090263  -0.000221  1.014782  0.0
H  H20  1  0.67920100  0.93309776  0.07530907  1  0.122696  0.09032  -0.000221  1.014664  0.0
H  H21  1  0.06694278  0.32079036  0.42464659  1  0.122789  0.090267  -0.000221  1.014668  0.0
H  H22  1  0.49812482  0.14643578  0.90229256  1  0.125573  0.095753  -4e-06  1.009283  0.0
H  H23  1  0.85356049  0.50191167  0.59773785  1  0.125485  0.095587  -4e-06  1.009554  0.0
H  H24  1  0.50187470  0.85356721  0.09770526  1  0.12558  0.095826  -4e-06  1.009221  0.0
H  H25  1  0.14644864  0.49809787  0.40226602  1  0.125511  0.095594  -4e-06  1.009567  0.0
H  H26  1  0.12832338  0.07752267  0.75358878  1  0.123362  0.126356  -0.0006  1.027478  -0.001
H  H27  1  0.92253044  0.87161864  0.74644013  1  0.123437  0.126435  -0.0006  1.027996  -0.001
H  H28  1  0.87167598  0.92247929  0.24641193  1  0.12334  0.126312  -0.0006  1.027474  -0.001
H  H29  1  0.07747132  0.12838451  0.25357034  1  0.123441  0.126449  -0.0006  1.027935  -0.001
H  H30  1  0.17095821  0.00504490  0.55729364  1  0.115339  0.111553  -0.000369  1.03843  -0.001
H  H31  1  0.99496042  0.82883438  0.94277838  1  0.115331  0.111801  -0.000369  1.038215  -0.001
H  H32  1  0.82903269  0.99495062  0.44270992  1  0.11533  0.111509  -0.000369  1.038354  -0.001
H  H33  1  0.00502348  0.17115687  0.05723119  1  0.115357  0.111888  -0.000369  1.038249  -0.001
H  H34  1  0.56702691  0.07910622  0.73374993  1  0.127907  0.100308  -0.000264  1.043876  0.0
H  H35  1  0.92090640  0.43290207  0.76629902  1  0.127966  0.100194  -0.000265  1.04414  0.0
H  H36  1  0.43296920  0.92088397  0.26624626  1  0.127871  0.100292  -0.000264  1.043952  0.0
H  H37  1  0.07909029  0.56709669  0.23370283  1  0.127963  0.100234  -0.000265  1.044076  0.0
C  C38  1  0.31703245  0.49765016  0.89624968  1  0.09142  0.111907  8e-06  4.066886  0.0
C  C39  1  0.50236284  0.68300947  0.60377299  1  0.091492  0.11202  8e-06  4.066943  0.0
C  C40  1  0.68297026  0.50235292  0.10375274  1  0.091417  0.111929  8e-06  4.066927  0.0
C  C41  1  0.49764299  0.31699363  0.39622739  1  0.091468  0.111941  8e-06  4.067085  0.0
C  C42  1  0.35149846  0.64465479  0.88867028  1  -0.085478  -0.132047  3.2e-05  3.952651  0.0
C  C43  1  0.35536205  0.64855687  0.61133068  1  -0.085482  -0.132076  3.2e-05  3.953209  0.0
C  C44  1  0.64850561  0.35535036  0.11132571  1  -0.085417  -0.131889  3.2e-05  3.952946  0.0
C  C45  1  0.64464277  0.35144088  0.38866714  1  -0.085425  -0.131888  3.2e-05  3.953417  0.0
C  C46  1  0.49028976  0.69961306  0.87164469  1  -0.098375  -0.090423  -3.2e-05  4.002329  0.0
C  C47  1  0.30037283  0.50975225  0.62835931  1  -0.098427  -0.090416  -3.1e-05  4.003049  0.0
C  C48  1  0.50971079  0.30038993  0.12835098  1  -0.098487  -0.090627  -3.1e-05  4.002527  0.0
C  C49  1  0.69963663  0.49024237  0.37163860  1  -0.098517  -0.090731  -3.1e-05  4.003467  0.0
C  C50  1  0.59299997  0.61236702  0.86419827  1  -0.091491  -0.064254  -0.0  3.979906  0.0
C  C51  1  0.38758494  0.40702592  0.63580725  1  -0.091267  -0.064086  -0.0  3.97972  0.0
C  C52  1  0.40700127  0.38763388  0.13580101  1  -0.091476  -0.064196  -0.0  3.979788  0.0
C  C53  1  0.61242609  0.59297184  0.36418503  1  -0.091241  -0.063976  -0.0  3.979742  0.0
C  C54  1  0.56065404  0.46678734  0.87127493  1  -0.092545  -0.153294  1.6e-05  3.980903  0.0
C  C55  1  0.53318049  0.43934973  0.62873240  1  -0.092521  -0.15301  1.6e-05  3.980725  0.0
C  C56  1  0.43934509  0.53321352  0.12872275  1  -0.09254  -0.153374  1.6e-05  3.980775  0.0
C  C57  1  0.46683054  0.56065341  0.37126607  1  -0.092516  -0.152968  1.7e-05  3.980859  0.0
C  C58  1  0.41958237  0.41085847  0.88612491  1  0.103528  0.079371  4e-06  4.02754  0.0
C  C59  1  0.58913017  0.58042655  0.61390172  1  0.103325  0.079152  4e-06  4.027595  0.0
C  C60  1  0.58041888  0.58914245  0.11387510  1  0.10355  0.079572  4e-06  4.027357  0.0
C  C61  1  0.41088003  0.41957765  0.38609823  1  0.10335  0.079182  4e-06  4.027523  0.0
C  C62  1  0.38442437  0.13959017  0.87972115  1  0.066716  0.008139  -0.000912  3.859615  -0.001
C  C63  1  0.86041025  0.61554319  0.62030898  1  0.066769  0.008649  -0.000914  3.859196  -0.001
C  C64  1  0.61557289  0.86041177  0.12027943  1  0.066703  0.008079  -0.000911  3.859637  -0.001
C  C65  1  0.13959827  0.38446314  0.37969320  1  0.066769  0.008475  -0.000913  3.859205  -0.001
C  C66  1  0.22323933  0.06254259  0.71978096  1  -0.003314  -0.113693  -0.002608  3.921794  -0.003
C  C67  1  0.93745833  0.77668781  0.78024586  1  -0.003333  -0.113515  -0.002609  3.921351  -0.003
C  C68  1  0.77675439  0.93745716  0.28021858  1  -0.003263  -0.113631  -0.002608  3.921609  -0.003
C  C69  1  0.06253736  0.22331098  0.21976036  1  -0.003323  -0.113561  -0.002609  3.921264  -0.003
C  C70  1  0.24658661  0.02857233  0.62312560  1  0.001104  -0.026511  -0.001531  3.993614  -0.002
C  C71  1  0.97145197  0.75329077  0.87693409  1  0.000758  -0.027504  -0.001525  3.992752  -0.002
C  C72  1  0.75340277  0.97142633  0.37687658  1  0.001181  -0.026342  -0.00153  3.99338  -0.002
C  C73  1  0.02853981  0.24670373  0.12307315  1  0.000771  -0.027548  -0.001525  3.992915  -0.002
C  C74  1  0.45415408  0.06816047  0.71091323  1  0.14529  0.104027  0.002103  3.884387  0.0
C  C75  1  0.93185390  0.54576053  0.78913911  1  0.145384  0.104301  0.002104  3.885115  0.0
C  C76  1  0.54584227  0.93183083  0.28908672  1  0.145267  0.10399  0.002103  3.884657  0.0
C  C77  1  0.06813947  0.45423714  0.21086397  1  0.145362  0.104224  0.002104  3.885169  0.0
C  C78  1  0.81855638  0.20807199  0.91794239  1  0.140198  0.263251  -0.003717  4.346727  -0.009
C  C79  1  0.79195160  0.18145121  0.58203712  1  0.140186  0.263137  -0.003699  4.347571  -0.009
C  C80  1  0.18143787  0.79191927  0.08205671  1  0.14021  0.263376  -0.003714  4.346862  -0.009
C  C81  1  0.20804824  0.81855297  0.41797184  1  0.140223  0.263229  -0.003694  4.347873  -0.009
S  S82  1  0.75307174  0.03915990  0.89757178  1  -0.162911  -0.335107  -0.014159  2.287276  -0.016
S  S83  1  0.96081847  0.24691627  0.60240397  1  -0.162852  -0.334966  -0.014193  2.288313  -0.016
S  S84  1  0.24692359  0.96083140  0.10243032  1  -0.16293  -0.335191  -0.014158  2.28731  -0.016
S  S85  1  0.03917125  0.75307286  0.39759917  1  -0.1629  -0.335127  -0.01419  2.288131  -0.016
N  N86  1  0.19068156  0.41208517  0.91294636  1  -0.189269  -0.21413  0.001465  3.381441  0.0
N  N87  1  0.58792155  0.80936494  0.58705634  1  -0.189448  -0.214383  0.001478  3.381815  0.0
N  N88  1  0.80932088  0.58792214  0.08705554  1  -0.189366  -0.214429  0.001465  3.381581  0.0
N  N89  1  0.41208152  0.19064024  0.41294327  1  -0.189437  -0.214312  0.001478  3.38184  0.0
N  N90  1  0.20789430  0.28122291  0.91272454  1  -0.074541  -0.070671  0.000122  3.153366  0.0
N  N91  1  0.71877440  0.79211221  0.58728030  1  -0.07443  -0.070373  0.000127  3.153354  0.0
N  N92  1  0.79210250  0.71878219  0.08727546  1  -0.074471  -0.070383  0.000122  3.153259  0.0
N  N93  1  0.28122760  0.20789292  0.41271705  1  -0.074411  -0.07043  0.000127  3.153455  0.0
N  N94  1  0.34608127  0.27697963  0.89719963  1  -0.139826  0.04745  2.7e-05  3.728384  0.0
N  N95  1  0.72302342  0.65391530  0.60281850  1  -0.139738  0.04722  3.1e-05  3.727556  0.0
N  N96  1  0.65391804  0.72302229  0.10279739  1  -0.139887  0.047165  2.7e-05  3.728488  0.0
N  N97  1  0.27698363  0.34608886  0.39718054  1  -0.139752  0.047359  3.1e-05  3.727569  0.0
N  N98  1  0.35547852  0.08680582  0.77445182  1  -0.242459  0.017421  -0.001121  3.751558  -0.002
N  N99  1  0.91321109  0.64446481  0.72558985  1  -0.242669  0.01734  -0.001123  3.751462  -0.002
N  N100  1  0.64451921  0.91319293  0.22554861  1  -0.242459  0.017436  -0.001122  3.75184  -0.002
N  N101  1  0.08678642  0.35553824  0.27441522  1  -0.242729  0.017407  -0.001122  3.751365  -0.002
N  N102  1  0.39052092  0.03230894  0.61900466  1  -0.358675  -0.271194  -0.059868  3.607202  -0.08
N  N103  1  0.96771986  0.60935816  0.88103023  1  -0.358449  -0.270625  -0.059868  3.608812  -0.08
N  N104  1  0.60947353  0.96768339  0.38099523  1  -0.358712  -0.271318  -0.059869  3.607623  -0.08
N  N105  1  0.03226980  0.39063629  0.11897394  1  -0.358472  -0.270667  -0.059868  3.608901  -0.08
N  N106  1  0.86370149  0.33265957  0.93275533  1  -0.420913  -0.498242  -0.042926  3.349297  -0.054
N  N107  1  0.66736550  0.13629907  0.56722056  1  -0.420971  -0.498122  -0.042906  3.349017  -0.054
N  N108  1  0.13629540  0.66733487  0.06724040  1  -0.420965  -0.498384  -0.04293  3.349543  -0.054
N  N109  1  0.33261865  0.86371116  0.43277681  1  -0.420981  -0.498003  -0.042905  3.349304  -0.054
