# generated using pymatgen
data_CuH11C11N6O5
_symmetry_space_group_name_H-M   'P 1'
_cell_length_a   6.89300406
_cell_length_b   13.33809297
_cell_length_c   16.53863501
_cell_angle_alpha   90.00016891
_cell_angle_beta   89.99992920
_cell_angle_gamma   92.01227795
_symmetry_Int_Tables_number   1
_chemical_formula_structural   CuH11C11N6O5
_chemical_formula_sum   'Cu4 H44 C44 N24 O20'
_cell_volume   1519.61662530
_cell_formula_units_Z   4
loop_
 _symmetry_equiv_pos_site_id
 _symmetry_equiv_pos_as_xyz
  1  'x, y, z'
loop_
 _atom_site_type_symbol
 _atom_site_label
 _atom_site_symmetry_multiplicity
 _atom_site_fract_x
 _atom_site_fract_y
 _atom_site_fract_z
 _atom_site_occupancy
 _atom_site_pbe_bader_charge
 _atom_site_pbe_bader_spin_density
 _atom_site_pbe_cm5_charge
 _atom_site_pbe_ddec_charge
 _atom_site_pbe_ddec_spin_density
 _atom_site_pbe_ddec_sum_bond_order
 _atom_site_pbe_magmom
Cu  Cu0  1  0.92575336  0.83880488  0.30580060  1  1.09465  0.584172  0.732267  0.812209  0.738507  2.192982  0.584
Cu  Cu1  1  0.07424327  0.66118968  0.80579590  1  1.095056  0.584174  0.732285  0.812198  0.738522  2.193062  0.584
Cu  Cu2  1  0.07425591  0.16119107  0.69420078  1  1.094556  0.584162  0.732244  0.811991  0.738494  2.193185  0.584
Cu  Cu3  1  0.92574840  0.33880522  0.19420305  1  1.094513  0.584158  0.732241  0.812052  0.738492  2.193185  0.584
H  H4  1  0.10429708  0.06762741  0.29213179  1  0.295461  0.000133  0.146192  0.13987  -8.7e-05  1.049365  0.0
H  H5  1  0.89569141  0.43236282  0.79213705  1  0.295463  0.000133  0.146245  0.139853  -8.7e-05  1.04942  0.0
H  H6  1  0.89569991  0.93237338  0.70786112  1  0.295626  0.000133  0.146223  0.139831  -8.7e-05  1.049485  0.0
H  H7  1  0.10430026  0.56763208  0.20786372  1  0.295538  0.000133  0.146212  0.13982  -8.7e-05  1.049406  0.0
H  H8  1  0.16854493  0.20280261  0.48405348  1  0.136843  0.000374  0.122116  0.11855  0.000284  1.006388  0.0
H  H9  1  0.83144693  0.29719414  0.98406083  1  0.136679  0.000374  0.122121  0.118591  0.000285  1.006513  0.0
H  H10  1  0.83146135  0.79720170  0.51594125  1  0.136645  0.000374  0.122123  0.118565  0.000285  1.006424  0.0
H  H11  1  0.16855197  0.70280057  0.01593692  1  0.136692  0.000374  0.122133  0.118616  0.000285  1.006481  0.0
H  H12  1  0.18611610  0.22319060  0.37656035  1  0.141708  4.6e-05  0.126458  0.130784  -1.5e-05  0.994373  0.0
H  H13  1  0.81387386  0.27680135  0.87656826  1  0.141888  4.6e-05  0.126446  0.130754  -1.5e-05  0.994468  0.0
H  H14  1  0.81388825  0.77681075  0.62343438  1  0.141834  4.6e-05  0.126449  0.130727  -1.5e-05  0.994491  0.0
H  H15  1  0.18611322  0.72319216  0.12343070  1  0.141889  4.6e-05  0.126462  0.130759  -1.5e-05  0.994518  0.0
H  H16  1  0.46520769  0.29014913  0.46191384  1  0.105931  0.000134  0.136678  0.129749  6.3e-05  0.933943  0.0
H  H17  1  0.53478398  0.20984605  0.96192596  1  0.106005  0.000134  0.136704  0.129915  6.3e-05  0.933955  0.0
H  H18  1  0.53480484  0.70984900  0.53808270  1  0.106123  0.000134  0.136658  0.129798  6.3e-05  0.933951  0.0
H  H19  1  0.46520864  0.79014582  0.03808207  1  0.106169  0.000134  0.136683  0.129808  6.3e-05  0.934006  0.0
H  H20  1  0.52263692  0.16449292  0.48597187  1  0.112565  0.000182  0.121541  0.106703  0.000115  1.002654  0.0
H  H21  1  0.47735736  0.33550980  0.98598072  1  0.112381  0.000182  0.121544  0.106814  0.000115  1.002786  0.0
H  H22  1  0.47736115  0.83550558  0.51402286  1  0.112505  0.000182  0.121518  0.106715  0.000115  1.002615  0.0
H  H23  1  0.52264289  0.66449316  0.01402367  1  0.112435  0.000182  0.121483  0.10666  0.000115  1.002655  0.0
H  H24  1  0.63453799  0.36505185  0.34040266  1  0.183295  8.6e-05  0.155002  0.13774  -7.7e-05  0.968557  0.0
H  H25  1  0.36545076  0.13494981  0.84041164  1  0.182983  8.6e-05  0.154991  0.137684  -7.7e-05  0.968694  0.0
H  H26  1  0.36547321  0.63494707  0.65959388  1  0.183237  8.6e-05  0.155078  0.137775  -7.7e-05  0.968628  0.0
H  H27  1  0.63452176  0.86505235  0.15959639  1  0.183273  8.6e-05  0.155033  0.137727  -7.7e-05  0.968649  0.0
H  H28  1  0.16086580  0.85154143  0.47595211  1  0.158184  0.000121  0.139684  0.105661  -5.4e-05  0.988977  0.0
H  H29  1  0.83914208  0.64845412  0.97595120  1  0.158289  0.000121  0.139675  0.105623  -5.4e-05  0.989063  0.0
H  H30  1  0.83913962  0.14845763  0.52404745  1  0.158155  0.000121  0.139691  0.105679  -5.4e-05  0.989054  0.0
H  H31  1  0.16086128  0.35154124  0.02404957  1  0.158224  0.000121  0.139645  0.10561  -5.4e-05  0.989001  0.0
H  H32  1  0.59806340  0.96756531  0.34519166  1  0.616543  1.4e-05  0.28562  0.365271  3.4e-05  0.967127  0.0
H  H33  1  0.40193436  0.53243687  0.84519249  1  0.616596  1.4e-05  0.28561  0.365205  3.4e-05  0.967201  0.0
H  H34  1  0.40192805  0.03243713  0.65480669  1  0.616626  1.4e-05  0.285627  0.36527  3.4e-05  0.967119  0.0
H  H35  1  0.59806793  0.46756077  0.15480828  1  0.616615  1.4e-05  0.285611  0.365223  3.4e-05  0.967186  0.0
H  H36  1  0.68961313  0.93878794  0.42508452  1  0.616242  0.000123  0.269077  0.320479  0.000171  1.054935  0.0
H  H37  1  0.31037380  0.56121175  0.92508548  1  0.616181  0.000123  0.269024  0.320394  0.000171  1.055086  0.0
H  H38  1  0.31037831  0.06121449  0.57491322  1  0.616219  0.000123  0.269059  0.320476  0.000171  1.054965  0.0
H  H39  1  0.68962258  0.43878529  0.07491590  1  0.616252  0.000123  0.269059  0.320447  0.000171  1.055  0.0
H  H40  1  0.00992182  0.82131128  0.03469441  1  0.075868  0.000711  0.097006  0.089363  0.000436  1.065798  0.0
H  H41  1  0.99009736  0.67869166  0.53469350  1  0.075893  0.000711  0.097042  0.089417  0.000436  1.065872  0.0
H  H42  1  0.99007529  0.17869026  0.96530515  1  0.075842  0.000711  0.09703  0.08941  0.000436  1.065758  0.0
H  H43  1  0.00990556  0.32131875  0.46530969  1  0.075947  0.000711  0.097017  0.089372  0.000436  1.065795  0.0
H  H44  1  0.78412418  0.09538824  0.22670000  1  0.204906  0.000447  0.138367  0.11516  0.000341  1.020158  0.0
H  H45  1  0.21588029  0.40460965  0.72670254  1  0.2049  0.000448  0.138309  0.115074  0.000341  1.020007  0.0
H  H46  1  0.21587749  0.90460565  0.77329472  1  0.205055  0.000447  0.138288  0.114999  0.000341  1.020173  0.0
H  H47  1  0.78412080  0.59538952  0.27329823  1  0.204903  0.000448  0.138296  0.114998  0.000341  1.02007  0.0
C  C48  1  0.02195892  0.07354411  0.06160494  1  -0.068121  0.011271  -0.014608  -0.037883  0.007691  3.940226  0.008
C  C49  1  0.97803443  0.42646259  0.56160651  1  -0.068122  0.011273  -0.014705  -0.038026  0.007692  3.940522  0.008
C  C50  1  0.97804312  0.92645203  0.93839523  1  -0.068837  0.01127  -0.014557  -0.03784  0.00769  3.940058  0.008
C  C51  1  0.02196221  0.57354497  0.43839789  1  -0.068614  0.011274  -0.014592  -0.037628  0.007692  3.940379  0.008
C  C52  1  0.04019500  0.15476043  0.12492344  1  1.575443  -0.000193  0.196993  0.560181  -0.000442  4.23031  -0.002
C  C53  1  0.95979515  0.34523676  0.62491393  1  1.575424  -0.000194  0.197228  0.560514  -0.000443  4.230119  -0.002
C  C54  1  0.95980113  0.84523511  0.87507914  1  1.575638  -0.000192  0.197018  0.560185  -0.000441  4.230579  -0.002
C  C55  1  0.04020728  0.65477065  0.37508503  1  1.575365  -0.000193  0.197204  0.560366  -0.000442  4.23  -0.002
C  C56  1  0.13073663  0.03013214  0.34950648  1  0.958007  -0.000281  0.175064  0.100364  -0.000727  3.825107  0.0
C  C57  1  0.86927257  0.46986149  0.84951004  1  0.958532  -0.000279  0.174992  0.100415  -0.000725  3.825338  0.0
C  C58  1  0.86926519  0.96987153  0.65048946  1  0.958143  -0.00028  0.175042  0.100442  -0.000726  3.82528  0.0
C  C59  1  0.13074055  0.53013136  0.15049315  1  0.958083  -0.00028  0.175047  0.10054  -0.000726  3.825171  0.0
C  C60  1  0.24446696  0.18232648  0.42826527  1  0.243574  0.00105  -0.043682  -0.127831  0.000745  3.85627  0.001
C  C61  1  0.75553481  0.31766759  0.92827574  1  0.244273  0.00105  -0.043714  -0.127839  0.000746  3.856353  0.001
C  C62  1  0.75553462  0.81767569  0.57172946  1  0.243794  0.00105  -0.043685  -0.127802  0.000745  3.856458  0.001
C  C63  1  0.24445843  0.68232803  0.07172503  1  0.243809  0.00105  -0.043755  -0.127928  0.000746  3.856549  0.001
C  C64  1  0.45725123  0.21241510  0.44023057  1  0.318943  0.000755  -0.033723  -0.100841  0.000556  3.868002  0.001
C  C65  1  0.54272735  0.28757960  0.94024228  1  0.319154  0.000754  -0.033736  -0.101239  0.000556  3.868476  0.001
C  C66  1  0.54274816  0.78758261  0.55976537  1  0.318665  0.000755  -0.03368  -0.100958  0.000556  3.868268  0.001
C  C67  1  0.45725274  0.71241560  0.05976211  1  0.318713  0.000755  -0.03362  -0.100791  0.000556  3.868001  0.001
C  C68  1  0.72231584  0.14954376  0.26732013  1  0.96111  0.000192  0.15551  0.15891  -0.000106  3.938355  0.001
C  C69  1  0.27768804  0.35045126  0.76732974  1  0.961849  0.000193  0.155552  0.158873  -0.000105  3.938374  0.001
C  C70  1  0.27769199  0.85045223  0.73267822  1  0.961531  0.000192  0.155638  0.159069  -0.000106  3.938072  0.001
C  C71  1  0.72231003  0.64954724  0.23267405  1  0.961892  0.000192  0.155703  0.159195  -0.000105  3.938398  0.001
C  C72  1  0.64992795  0.28684772  0.32501978  1  1.00836  -0.000946  0.177243  0.113066  -0.001473  3.848304  0.0
C  C73  1  0.35006312  0.21315006  0.82502596  1  1.008689  -0.000946  0.177158  0.112975  -0.001472  3.848399  0.0
C  C74  1  0.35007855  0.71314905  0.67497737  1  1.008386  -0.000946  0.17707  0.112824  -0.001472  3.848585  0.0
C  C75  1  0.64992350  0.78684948  0.17497844  1  1.008296  -0.000945  0.177124  0.112966  -0.001471  3.848466  0.0
C  C76  1  0.16614763  0.92240734  0.44393686  1  0.996233  -0.000164  0.154476  0.151494  -0.000476  3.993015  0.001
C  C77  1  0.83386950  0.57759088  0.94393516  1  0.996088  -0.000164  0.154386  0.151478  -0.000476  3.993349  0.001
C  C78  1  0.83386335  0.07759910  0.55606451  1  0.996278  -0.000164  0.154432  0.151397  -0.000476  3.993201  0.001
C  C79  1  0.16614315  0.42240800  0.05606621  1  0.996398  -0.000163  0.154464  0.15152  -0.000476  3.993274  0.001
C  C80  1  0.05848541  0.92802534  0.16442774  1  1.582386  -0.000673  0.197605  0.567  -0.001336  4.248078  -0.003
C  C81  1  0.94152475  0.57197822  0.66443080  1  1.582619  -0.000672  0.197647  0.566961  -0.001337  4.248375  -0.003
C  C82  1  0.94151687  0.07197230  0.83556759  1  1.582364  -0.000673  0.197641  0.567097  -0.001337  4.248016  -0.003
C  C83  1  0.05849732  0.42802493  0.33557602  1  1.582105  -0.00067  0.197562  0.56682  -0.001334  4.248523  -0.003
C  C84  1  0.02966393  0.97118710  0.08117245  1  -0.016916  0.013084  -0.009318  -0.027629  0.008924  3.936352  0.01
C  C85  1  0.97033005  0.52881362  0.58117840  1  -0.016963  0.013086  -0.009238  -0.027416  0.008925  3.936224  0.01
C  C86  1  0.97033438  0.02881290  0.91882470  1  -0.016568  0.013091  -0.009299  -0.027598  0.008928  3.936186  0.01
C  C87  1  0.02965973  0.47119638  0.41882721  1  -0.016596  0.013084  -0.009343  -0.027843  0.008924  3.936725  0.01
C  C88  1  0.00622055  0.90040477  0.01930208  1  0.012783  0.003215  -0.092176  -0.135567  0.002113  3.984636  0.002
C  C89  1  0.99378999  0.59959834  0.51930397  1  0.012753  0.003217  -0.092165  -0.135717  0.002114  3.98459  0.002
C  C90  1  0.99379211  0.09959411  0.98069507  1  0.012518  0.003215  -0.092186  -0.135619  0.002113  3.984637  0.002
C  C91  1  0.00621702  0.40041046  0.48070405  1  0.012443  0.003219  -0.092187  -0.135529  0.002115  3.984506  0.002
N  N92  1  0.23258270  0.00818943  0.47561719  1  -0.71481  0.005487  -0.212132  -0.256087  0.003398  3.199357  0.004
N  N93  1  0.76742185  0.49181374  0.97561785  1  -0.714601  0.005485  -0.212223  -0.256247  0.003397  3.199348  0.004
N  N94  1  0.76741696  0.99181881  0.52438297  1  -0.714595  0.005486  -0.212126  -0.256082  0.003398  3.199534  0.004
N  N95  1  0.23257729  0.50818248  0.02438111  1  -0.714843  0.005485  -0.212074  -0.256012  0.003397  3.199435  0.004
N  N96  1  0.10084776  0.93261605  0.36681324  1  -1.212486  0.07415  -0.363326  -0.309159  0.049054  3.598752  0.064
N  N97  1  0.89915161  0.56737863  0.86680724  1  -1.212924  0.074147  -0.363212  -0.309072  0.049052  3.599135  0.064
N  N98  1  0.89914948  0.06738623  0.63319116  1  -1.212796  0.07414  -0.363351  -0.309091  0.049047  3.598769  0.064
N  N99  1  0.10085031  0.43261676  0.13318990  1  -1.212711  0.074144  -0.363287  -0.309138  0.04905  3.598915  0.064
N  N100  1  0.20798974  0.07563106  0.41488858  1  -0.832911  0.002424  -0.134378  0.169188  0.001406  3.739438  0.002
N  N101  1  0.79200784  0.42436383  0.91489146  1  -0.833775  0.002426  -0.134274  0.16936  0.001406  3.739182  0.002
N  N102  1  0.79200907  0.92437194  0.58510736  1  -0.833157  0.002425  -0.13433  0.169254  0.001406  3.739529  0.002
N  N103  1  0.20799093  0.57563014  0.08510871  1  -0.833229  0.002425  -0.134398  0.169036  0.001406  3.739606  0.002
N  N104  1  0.57015480  0.20931082  0.36621838  1  -0.841351  0.002196  -0.132684  0.169525  0.00131  3.738507  0.002
N  N105  1  0.42983616  0.29068710  0.86622593  1  -0.841763  0.002196  -0.132661  0.169589  0.001309  3.738593  0.002
N  N106  1  0.42984013  0.79068626  0.63377574  1  -0.841429  0.002196  -0.132712  0.16954  0.00131  3.738713  0.002
N  N107  1  0.57014864  0.70931024  0.13377968  1  -0.841422  0.002196  -0.132696  0.169524  0.00131  3.738553  0.002
N  N108  1  0.61372053  0.12093758  0.32997402  1  -0.722102  0.005788  -0.21547  -0.26574  0.003641  3.126956  0.004
N  N109  1  0.38627318  0.37905865  0.82998063  1  -0.722537  0.005788  -0.215459  -0.265613  0.003641  3.127018  0.004
N  N110  1  0.38627416  0.87905799  0.67002010  1  -0.722377  0.005787  -0.215466  -0.265712  0.00364  3.126989  0.004
N  N111  1  0.61373067  0.62093971  0.17002075  1  -0.72248  0.005788  -0.215505  -0.265747  0.00364  3.127212  0.004
N  N112  1  0.75071216  0.25136054  0.26272073  1  -1.151311  0.068105  -0.358371  -0.305672  0.045224  3.556152  0.059
N  N113  1  0.24928656  0.24863836  0.76272524  1  -1.151404  0.068104  -0.358323  -0.305477  0.045223  3.555968  0.059
N  N114  1  0.24928939  0.74863260  0.73727581  1  -1.151608  0.068109  -0.358321  -0.305506  0.045225  3.55587  0.059
N  N115  1  0.75069861  0.75136122  0.23727976  1  -1.151531  0.068107  -0.358379  -0.305709  0.045225  3.556018  0.059
O  O116  1  0.64224971  0.90821513  0.37390917  1  -1.249561  -0.000281  -0.609498  -0.767667  -0.000471  2.049908  0.001
O  O117  1  0.35773446  0.59178448  0.87390958  1  -1.24951  -0.000281  -0.609433  -0.767561  -0.000471  2.049985  0.001
O  O118  1  0.35773884  0.09178738  0.62608918  1  -1.249588  -0.000281  -0.609497  -0.767676  -0.00047  2.049912  0.001
O  O119  1  0.64226035  0.40821185  0.12609180  1  -1.249617  -0.000281  -0.609461  -0.767587  -0.000471  2.049904  0.001
O  O120  1  0.13295768  0.14096423  0.18846976  1  -1.174832  0.002717  -0.32163  -0.547204  0.000837  2.161899  0.003
O  O121  1  0.86703005  0.35904601  0.68847000  1  -1.174574  0.002722  -0.321816  -0.547454  0.00084  2.161498  0.003
O  O122  1  0.86703980  0.85903955  0.81153585  1  -1.175019  0.002716  -0.321629  -0.547151  0.000836  2.162105  0.003
O  O123  1  0.13296998  0.64096448  0.31153077  1  -1.174667  0.00272  -0.32177  -0.547351  0.000839  2.161538  0.003
O  O124  1  0.94841444  0.23566756  0.10706331  1  -1.11939  0.104488  -0.334448  -0.55736  0.06545  2.311586  0.095
O  O125  1  0.05159495  0.26434037  0.60706556  1  -1.119647  0.104466  -0.334492  -0.557461  0.065437  2.311924  0.095
O  O126  1  0.05158880  0.76432704  0.89293081  1  -1.119707  0.104481  -0.334493  -0.557446  0.065446  2.311631  0.095
O  O127  1  0.94840905  0.73566776  0.39293340  1  -1.11952  0.104465  -0.334516  -0.557476  0.065436  2.311884  0.095
O  O128  1  0.91680557  0.94075495  0.21500244  1  -1.124707  0.117787  -0.325107  -0.562145  0.073847  2.324632  0.106
O  O129  1  0.08319806  0.55924518  0.71500109  1  -1.124944  0.117778  -0.325151  -0.56219  0.073842  2.324844  0.106
O  O130  1  0.08319804  0.05924191  0.78499954  1  -1.124859  0.117794  -0.325094  -0.562119  0.073852  2.324684  0.106
O  O131  1  0.91682001  0.44075130  0.28500149  1  -1.124548  0.117793  -0.32512  -0.561994  0.07385  2.324721  0.106
O  O132  1  0.20136854  0.87534161  0.17687122  1  -1.170104  0.003299  -0.326324  -0.560427  0.001124  2.129562  0.003
O  O133  1  0.79866355  0.62467197  0.67686604  1  -1.170216  0.003298  -0.326372  -0.560407  0.001124  2.129819  0.003
O  O134  1  0.79863869  0.12465966  0.82313076  1  -1.169949  0.003303  -0.326375  -0.560476  0.001127  2.129481  0.003
O  O135  1  0.20137447  0.37534884  0.32313111  1  -1.170172  0.003297  -0.326314  -0.560319  0.001123  2.12983  0.003
