# generated using pymatgen
data_Ag3H7C13(NO3)2
_symmetry_space_group_name_H-M   'P 1'
_cell_length_a   8.54864959
_cell_length_b   10.52881261
_cell_length_c   15.86700000
_cell_angle_alpha   97.27445413
_cell_angle_beta   98.42545707
_cell_angle_gamma   102.77648687
_symmetry_Int_Tables_number   1
_chemical_formula_structural   Ag3H7C13(NO3)2
_chemical_formula_sum   'Ag12 H28 C52 N8 O24'
_cell_volume   1358.90306902
_cell_formula_units_Z   4
loop_
 _symmetry_equiv_pos_site_id
 _symmetry_equiv_pos_as_xyz
  1  'x, y, z'
loop_
 _atom_site_type_symbol
 _atom_site_label
 _atom_site_symmetry_multiplicity
 _atom_site_fract_x
 _atom_site_fract_y
 _atom_site_fract_z
 _atom_site_occupancy
 _atom_site_pbe_bader_charge
 _atom_site_pbe_bader_spin_density
 _atom_site_pbe_cm5_charge
 _atom_site_pbe_ddec_charge
 _atom_site_pbe_ddec_spin_density
 _atom_site_pbe_ddec_sum_bond_order
 _atom_site_pbe_magmom
Ag  Ag0  1  0.27681269  0.27614690  0.18304416  1  0.601042  0  0.392613  0.394016  0  2.140305  0
Ag  Ag1  1  0.72318591  0.72385280  0.81695842  1  0.601053  0  0.392586  0.393986  0  2.140308  0
Ag  Ag2  1  0.48006561  0.41797048  0.39794964  1  0.606703  0  0.438612  0.376075  0  2.039102  0
Ag  Ag3  1  0.51993211  0.58203020  0.60205106  1  0.606762  0  0.438595  0.376057  0  2.039213  0
Ag  Ag4  1  0.21349136  0.18876042  0.33620061  1  0.592862  0  0.38332  0.394355  0  2.113014  0
Ag  Ag5  1  0.78650576  0.81123829  0.66380114  1  0.592723  0  0.38334  0.394369  0  2.113056  0
Ag  Ag6  1  0.67918121  0.30470633  0.25747408  1  0.616071  0  0.467784  0.35926  0  1.912665  0
Ag  Ag7  1  0.32082153  0.69529139  0.74252361  1  0.616028  0  0.467802  0.359277  0  1.91264  0
Ag  Ag8  1  0.92825063  0.12537752  0.18209807  1  0.55521  0  0.429731  0.28784  0  2.192104  0
Ag  Ag9  1  0.07175181  0.87461922  0.81789763  1  0.555364  0  0.429764  0.287857  0  2.192177  0
Ag  Ag10  1  0.11569816  0.99231085  0.08207550  1  0.571403  0  0.407563  0.397258  0  2.13648  0
Ag  Ag11  1  0.88430752  0.00768095  0.91792256  1  0.571275  0  0.407569  0.397244  0  2.136545  0
H  H12  1  0.84342663  0.00989370  0.49123659  1  0.153632  0  0.119885  0.134202  0  1.00377  0
H  H13  1  0.15657315  0.99010599  0.50875914  1  0.153784  0  0.119888  0.134205  0  1.00371  0
H  H14  1  0.51426829  0.25404701  0.54832093  1  0.162826  0  0.127591  0.11379  0  1.016059  0
H  H15  1  0.48572793  0.74594873  0.45167734  1  0.163309  0  0.127582  0.113758  0  1.016075  0
H  H16  1  0.90320252  0.35116132  0.79313208  1  0.103201  0  0.103261  0.105806  0  1.050666  0
H  H17  1  0.09679518  0.64883147  0.20686984  1  0.103228  0  0.103291  0.105838  0  1.050652  0
H  H18  1  0.57512129  0.42287685  0.09165135  1  0.192773  0  0.124836  0.112068  0  1.04161  0
H  H19  1  0.42488145  0.57712482  0.90835172  1  0.192773  0  0.124817  0.112087  0  1.041645  0
H  H20  1  0.85142831  0.10801417  0.35422047  1  0.164774  0  0.121118  0.109257  0  1.0296  0
H  H21  1  0.14856704  0.89198652  0.64577500  1  0.164777  0  0.12115  0.109284  0  1.029582  0
H  H22  1  0.07450457  0.52595008  0.58277620  1  0.122978  0  0.107768  0.121572  0  1.009737  0
H  H23  1  0.92549522  0.47405356  0.41722869  1  0.122994  0  0.107718  0.121487  0  1.009693  0
H  H24  1  0.66991753  0.08646623  0.59324409  1  0.159775  0  0.113273  0.127373  0  1.033216  0
H  H25  1  0.33008076  0.91352853  0.40675238  1  0.159714  0  0.113264  0.127344  0  1.0333  0
H  H26  1  0.14637398  0.14490030  0.62310848  1  0.087683  0  0.107432  0.110043  0  1.023626  0
H  H27  1  0.85362433  0.85510235  0.37689117  1  0.087652  0  0.107413  0.110006  0  1.023639  0
H  H28  1  0.02317189  0.24418885  0.01980985  1  0.162438  0  0.113338  0.088185  0  1.075255  0
H  H29  1  0.97682910  0.75581874  0.98018539  1  0.162014  0  0.113377  0.088208  0  1.075279  0
H  H30  1  0.40363902  0.79954654  0.30169206  1  0.099141  0  0.108282  0.11109  0  1.029342  0
H  H31  1  0.59636283  0.20045217  0.69830879  1  0.098963  0  0.108282  0.11112  0  1.029341  0
H  H32  1  0.55273951  0.00433862  0.09763025  1  0.144519  0  0.105232  0.12337  0  1.006864  0
H  H33  1  0.44725789  0.99565713  0.90236938  1  0.144594  0  0.105219  0.123351  0  1.00691  0
H  H34  1  0.65425353  0.62683624  0.11958945  1  0.09266  0  0.104883  0.103547  0  1.039384  0
H  H35  1  0.34574832  0.37316247  0.88040952  1  0.092521  0  0.104858  0.103444  0  1.039408  0
H  H36  1  0.91371734  0.38054917  0.91785130  1  0.12089  0  0.117993  0.126213  0  1.001921  0
H  H37  1  0.08627774  0.61946237  0.08214821  1  0.120873  0  0.117979  0.126233  0  1.001964  0
H  H38  1  0.68142884  0.47999966  0.95613945  1  0.152287  0  0.122307  0.139344  0  0.981787  0
H  H39  1  0.31856563  0.52000596  0.04386266  1  0.152309  0  0.122288  0.139276  0  0.981844  0
C  C40  1  0.98336908  0.45117264  0.69168175  1  0.012589  0  -0.017978  -0.025098  0  3.961355  0
C  C41  1  0.01662655  0.54882508  0.30832043  1  0.012688  0  -0.017977  -0.025189  0  3.961316  0
C  C42  1  0.77451921  0.08258675  0.47701726  1  -0.033754  0  -0.050853  -0.055271  0  3.873045  0
C  C43  1  0.22547909  0.91741195  0.52297765  1  -0.033879  0  -0.050877  -0.055327  0  3.872983  0
C  C44  1  0.59112463  0.21495602  0.50790450  1  0.469566  0  0.066914  0.079741  0  3.859036  0
C  C45  1  0.40887337  0.78504170  0.49209219  1  0.469224  0  0.066933  0.079793  0  3.858955  0
C  C46  1  0.96623771  0.34690466  0.73862153  1  -0.072249  0  -0.079478  -0.102429  0  3.923794  0
C  C47  1  0.03375881  0.65309208  0.26137937  1  -0.072222  0  -0.079519  -0.102441  0  3.923784  0
C  C48  1  0.67335931  0.38567968  0.06939316  1  0.46652  0  0.062085  0.072989  0  3.863021  0
C  C49  1  0.32664107  0.61432199  0.93060846  1  0.466555  0  0.062111  0.072917  0  3.863078  0
C  C50  1  0.02780309  0.23765230  0.71541308  1  -0.004602  0  -0.017385  -0.034182  0  3.986531  0
C  C51  1  0.97219610  0.76234543  0.28458685  1  -0.004549  0  -0.017316  -0.034096  0  3.986485  0
C  C52  1  0.77778075  0.13535614  0.40057789  1  0.470015  0  0.061803  0.075828  0  3.864737  0
C  C53  1  0.22221548  0.86464356  0.59941820  1  0.469937  0  0.061809  0.075868  0  3.864736  0
C  C54  1  0.06119804  0.44498167  0.61966010  1  -0.051892  0  -0.073498  -0.098747  0  3.901613  0
C  C55  1  0.93880057  0.55502197  0.38034280  1  -0.051944  0  -0.07339  -0.098488  0  3.901166  0
C  C56  1  0.01713762  0.13058504  0.76914602  1  1.541196  0  0.20832  0.571896  0  4.164293  0
C  C57  1  0.98286422  0.86941367  0.23085358  1  1.541257  0  0.208289  0.571831  0  4.164202  0
C  C58  1  0.67847627  0.12390432  0.53256924  1  -0.007198  0  -0.05068  -0.064078  0  3.884222  0
C  C59  1  0.32152055  0.87609340  0.46742672  1  -0.007391  0  -0.050668  -0.064026  0  3.884232  0
C  C60  1  0.10049218  0.23054107  0.64220123  1  0.017818  0  -0.071114  -0.091116  0  3.919319  0
C  C61  1  0.89950671  0.76945961  0.35780082  1  0.017683  0  -0.07114  -0.091127  0  3.919327  0
C  C62  1  0.11752143  0.33346324  0.59396492  1  -0.02567  0  -0.017178  -0.030161  0  3.958468  0
C  C63  1  0.88247866  0.66654139  0.40603882  1  -0.025432  0  -0.01725  -0.030311  0  3.958465  0
C  C64  1  0.91825597  0.28375577  0.02941503  1  0.44458  0  0.051177  0.056618  0  3.897215  0
C  C65  1  0.08174530  0.71624886  0.97058250  1  0.44455  0  0.051148  0.056567  0  3.897484  0
C  C66  1  0.46272850  0.80501178  0.24562601  1  0.045534  0  -0.068469  -0.083481  0  3.885286  0
C  C67  1  0.53727039  0.19498496  0.75437193  1  0.04567  0  -0.068441  -0.083436  0  3.885492  0
C  C68  1  0.92126579  0.56941425  0.72048297  1  1.551864  0  0.192481  0.54853  0  4.203943  0
C  C69  1  0.07873519  0.43058939  0.27952327  1  1.551111  0  0.192396  0.548546  0  4.204052  0
C  C70  1  0.69726929  0.82590605  0.02402360  1  1.559897  0  0.201185  0.578763  0  4.176395  0
C  C71  1  0.30273433  0.17409463  0.97597756  1  1.560004  0  0.201168  0.578743  0  4.176521  0
C  C72  1  0.54664835  0.91942328  0.13061479  1  -0.060924  0  -0.079853  -0.099983  0  3.917657  0
C  C73  1  0.45335232  0.08057543  0.86938472  1  -0.061179  0  -0.079823  -0.099938  0  3.917675  0
C  C74  1  0.19730871  0.32119584  0.51551622  1  1.568507  0  0.194892  0.574229  0  4.193232  0
C  C75  1  0.80269492  0.67880880  0.48448717  1  1.568289  0  0.195  0.574335  0  4.193138  0
C  C76  1  0.47127313  0.91429178  0.20310020  1  -0.113984  0  -0.023421  -0.036568  0  3.984552  0
C  C77  1  0.52872665  0.08570791  0.79689743  1  -0.113783  0  -0.023492  -0.036649  0  3.984621  0
C  C78  1  0.51704311  0.58251995  0.26056648  1  1.586452  0  0.198552  0.568987  0  4.200134  0
C  C79  1  0.48295874  0.41747875  0.73943311  1  1.586443  0  0.198589  0.569114  0  4.200029  0
C  C80  1  0.60128300  0.70654474  0.14247195  1  -0.013206  0  -0.073397  -0.098971  0  3.933085  0
C  C81  1  0.39871737  0.29345298  0.85752681  1  -0.013085  0  -0.073348  -0.098743  0  3.932986  0
C  C82  1  0.61198155  0.81566183  0.10007161  1  -0.011423  0  -0.023021  -0.039257  0  3.985035  0
C  C83  1  0.38801971  0.18433886  0.89992937  1  -0.01143  0  -0.023003  -0.039277  0  3.985025  0
C  C84  1  0.40019092  0.02625682  0.23328306  1  1.544673  0  0.188191  0.533044  0  4.233098  0
C  C85  1  0.59980797  0.97373991  0.76671677  1  1.544719  0  0.188187  0.533049  0  4.233305  0
C  C86  1  0.52743746  0.70066677  0.21551959  1  -0.032461  0  -0.014829  -0.026821  0  3.95177  0
C  C87  1  0.47256083  0.29932799  0.78447876  1  -0.032454  0  -0.014888  -0.027001  0  3.951879  0
C  C88  1  0.85905262  0.36257561  0.97423982  1  -0.02278  0  -0.049374  -0.053199  0  3.891583  0
C  C89  1  0.14094422  0.63743001  0.02575933  1  -0.022561  0  -0.049359  -0.053278  0  3.891844  0
C  C90  1  0.73212712  0.41511690  0.99456591  1  0.003506  0  -0.046158  -0.053769  0  3.879839  0
C  C91  1  0.26786912  0.58488674  0.00543429  1  0.003402  0  -0.046187  -0.053664  0  3.879978  0
N  N92  1  0.85607226  0.25812594  0.09979514  1  -0.662709  0  -0.224312  -0.050263  0  3.543403  0
N  N93  1  0.14393107  0.74187770  0.90020120  1  -0.662467  0  -0.224365  -0.050298  0  3.543524  0
N  N94  1  0.69053087  0.22127733  0.37943035  1  -0.665414  0  -0.21578  -0.080696  0  3.511951  0
N  N95  1  0.30946625  0.77872138  0.62056698  1  -0.664973  0  -0.215762  -0.080661  0  3.512018  0
N  N96  1  0.59656646  0.26062998  0.43326834  1  -0.647489  0  -0.217033  -0.075513  0  3.538734  0
N  N97  1  0.40342947  0.73936873  0.56673079  1  -0.647788  0  -0.217083  -0.075631  0  3.538856  0
N  N98  1  0.73471826  0.31052406  0.12080050  1  -0.655116  0  -0.205838  -0.069153  0  3.404282  0
N  N99  1  0.26528684  0.68947761  0.87919835  1  -0.655183  0  -0.205795  -0.069019  0  3.404212  0
O  O100  1  0.05791238  0.02601392  0.73974542  1  -1.125552  0  -0.32448  -0.487451  0  2.419171  0
O  O101  1  0.94208918  0.97398775  0.26025314  1  -1.125533  0  -0.324471  -0.487408  0  2.41901  0
O  O102  1  0.18479862  0.20322872  0.47862887  1  -1.145976  0  -0.338082  -0.541856  0  2.278474  0
O  O103  1  0.81521211  0.79677591  0.52137760  1  -1.146083  0  -0.338121  -0.541856  0  2.278537  0
O  O104  1  0.27001863  0.42630015  0.49235226  1  -1.16094  0  -0.333765  -0.537828  0  2.301752  0
O  O105  1  0.72998057  0.57370547  0.50765212  1  -1.160797  0  -0.333798  -0.537874  0  2.301664  0
O  O106  1  0.33487939  0.02292930  0.29982535  1  -1.128931  0  -0.307927  -0.485388  0  2.353712  0
O  O107  1  0.66511980  0.97706842  0.70017458  1  -1.128912  0  -0.307919  -0.485411  0  2.353891  0
O  O108  1  0.95954245  0.66970106  0.68340696  1  -1.136436  0  -0.32335  -0.534621  0  2.422471  0
O  O109  1  0.04046207  0.33030259  0.31659894  1  -1.136084  0  -0.323369  -0.534765  0  2.422482  0
O  O110  1  0.41140517  0.11853980  0.18678572  1  -1.132723  0  -0.336376  -0.537726  0  2.527139  0
O  O111  1  0.58859431  0.88145891  0.81321495  1  -1.132792  0  -0.336346  -0.537697  0  2.527225  0
O  O112  1  0.70800439  0.72355460  0.97670610  1  -1.170589  0  -0.319718  -0.532402  0  2.223781  0
O  O113  1  0.29199657  0.27644509  0.02329540  1  -1.170567  0  -0.319684  -0.532337  0  2.223832  0
O  O114  1  0.83920207  0.56180538  0.78145199  1  -1.11808  0  -0.323902  -0.494773  0  2.344048  0
O  O115  1  0.16080068  0.43819629  0.21855486  1  -1.117902  0  -0.323835  -0.494679  0  2.344076  0
O  O116  1  0.54321817  0.47946153  0.21945665  1  -1.177735  0  -0.333876  -0.56439  0  2.378434  0
O  O117  1  0.45678072  0.52053521  0.78054380  1  -1.17768  0  -0.333833  -0.56436  0  2.378399  0
O  O118  1  0.75570189  0.94611456  0.01512973  1  -1.116015  0  -0.339944  -0.530055  0  2.489826  0
O  O119  1  0.24430144  0.05388514  0.98487007  1  -1.116081  0  -0.339953  -0.530092  0  2.489837  0
O  O120  1  0.97063688  0.15229886  0.84108167  1  -1.125188  0  -0.324875  -0.495085  0  2.401665  0
O  O121  1  0.02936762  0.84769689  0.15891852  1  -1.125256  0  -0.324859  -0.495081  0  2.40166  0
O  O122  1  0.48223913  0.59420578  0.33593454  1  -1.126378  0  -0.316479  -0.484945  0  2.337001  0
O  O123  1  0.51777071  0.40579589  0.66406594  1  -1.126401  0  -0.316541  -0.485045  0  2.336951  0
