# generated using pymatgen
data_CuH8C6S(NO2)2
_symmetry_space_group_name_H-M   'P 1'
_cell_length_a   7.25175484
_cell_length_b   7.25110778
_cell_length_c   19.48328600
_cell_angle_alpha   96.48100776
_cell_angle_beta   96.47960108
_cell_angle_gamma   117.52898773
_symmetry_Int_Tables_number   1
_chemical_formula_structural   CuH8C6S(NO2)2
_chemical_formula_sum   'Cu4 H32 C24 S4 N8 O16'
_cell_volume   886.71971672
_cell_formula_units_Z   4
loop_
 _symmetry_equiv_pos_site_id
 _symmetry_equiv_pos_as_xyz
  1  'x, y, z'
loop_
 _atom_site_type_symbol
 _atom_site_label
 _atom_site_symmetry_multiplicity
 _atom_site_fract_x
 _atom_site_fract_y
 _atom_site_fract_z
 _atom_site_occupancy
 _atom_site_hle17_ddec_charge
 _atom_site_hle17_ddec_spin_density
 _atom_site_hle17_ddec_sum_bond_order
 _atom_site_hle17_magmom
 _atom_site_hse06_10hf_ddec_charge
 _atom_site_hse06_10hf_ddec_spin_density
 _atom_site_hse06_10hf_ddec_sum_bond_order
 _atom_site_hse06_10hf_magmom
 _atom_site_hse06_ddec_charge
 _atom_site_hse06_ddec_spin_density
 _atom_site_hse06_ddec_sum_bond_order
 _atom_site_hse06_magmom
 _atom_site_pbe_cm5_charge
 _atom_site_pbe_ddec_charge
 _atom_site_pbe_ddec_spin_density
 _atom_site_pbe_ddec_sum_bond_order
 _atom_site_pbe_magmom
Cu  Cu0  1  0.86637904  0.63529836  0.96666236  1  0.948622  0.70407  1.666461  0.508  0.941878  0.796772  2.048658  0.63  1.034031  0.868556  1.977023  0.714  0.716785  0.881887  0.736703  2.100188  0.57
Cu  Cu1  1  0.36469762  0.13362713  0.53334758  1  0.948665  -0.703963  1.66593  -0.508  0.941935  -0.796706  2.048148  -0.63  1.034105  -0.868542  1.976515  -0.714  0.71674  0.881953  -0.736628  2.09967  -0.57
Cu  Cu2  1  0.13359501  0.36469152  0.03333363  1  0.948561  -0.704043  1.66655  -0.508  0.941806  -0.796753  2.048775  -0.63  1.033924  -0.868539  1.977145  -0.714  0.716764  0.881859  -0.736683  2.100242  -0.57
Cu  Cu3  1  0.63531545  0.86637720  0.46665667  1  0.948612  0.703947  1.666117  0.508  0.941905  0.796701  2.048382  0.63  1.034083  0.868527  1.97673  0.714  0.716698  0.881849  0.736608  2.099971  0.57
H  H4  1  0.47675134  0.34148373  0.92872088  1  0.34774  -0.000497  0.921753  -0.001  0.336655  0.000221  0.979071  0.0  0.344653  7.4e-05  0.97376  0.0  0.285008  0.331048  0.000333  0.982896  0.0
H  H5  1  0.65851708  0.52329130  0.57127455  1  0.347736  0.000502  0.921779  0.001  0.336657  -0.00022  0.979089  0.0  0.344656  -7.4e-05  0.973773  0.0  0.285017  0.331043  -0.000332  0.982928  0.0
H  H6  1  0.52321794  0.65849040  0.07127637  1  0.347527  0.000501  0.921781  0.001  0.336489  -0.00022  0.979063  0.0  0.344459  -7.4e-05  0.973806  0.0  0.284972  0.330881  -0.000333  0.982893  0.0
H  H7  1  0.34149987  0.47670970  0.42872612  1  0.347843  -0.000499  0.921689  -0.001  0.336809  0.00022  0.978926  0.0  0.344785  7.4e-05  0.97365  0.0  0.285066  0.331197  0.000333  0.982764  0.0
H  H8  1  0.56877416  0.31586368  0.00625388  1  0.341883  -0.000255  0.922002  -0.001  0.329459  0.000478  0.981968  0.0  0.337783  0.000323  0.976484  0.0  0.283729  0.323547  0.000566  0.986074  0.0
H  H9  1  0.68411550  0.43123248  0.49374388  1  0.34192  0.000256  0.922019  0.001  0.329537  -0.000479  0.98191  0.0  0.337858  -0.000324  0.976427  0.0  0.283784  0.323625  -0.000566  0.986017  0.0
H  H10  1  0.43120050  0.68412157  0.99374504  1  0.341861  0.000258  0.922059  0.001  0.329497  -0.000478  0.981926  0.0  0.337822  -0.000323  0.976435  0.0  0.28374  0.323586  -0.000565  0.986033  0.0
H  H11  1  0.31589324  0.56877168  0.50625608  1  0.341934  -0.000254  0.921987  -0.001  0.329544  0.000479  0.981888  0.0  0.33787  0.000324  0.976398  0.0  0.283773  0.323631  0.000566  0.985995  0.0
H  H12  1  0.65098270  0.25469653  0.93561741  1  0.335198  -0.000213  0.885521  -0.001  0.329335  0.0006  0.93886  0.0  0.336427  0.000354  0.934867  0.0  0.292972  0.324256  0.000773  0.942001  0.0
H  H13  1  0.74527375  0.34903926  0.56438033  1  0.334876  0.000213  0.885688  0.001  0.329191  -0.000599  0.938816  0.0  0.336286  -0.000354  0.934823  0.0  0.292855  0.324105  -0.000773  0.941966  0.0
H  H14  1  0.34900288  0.74529982  0.06438288  1  0.335221  0.000218  0.885547  0.001  0.329346  -0.0006  0.938888  0.0  0.336441  -0.000354  0.934889  0.0  0.292941  0.324266  -0.000773  0.942025  0.0
H  H15  1  0.25474542  0.65096643  0.43561907  1  0.334854  -0.000213  0.885729  -0.001  0.329204  0.000599  0.938815  0.0  0.336293  0.000353  0.934831  0.0  0.292841  0.324116  0.000773  0.941971  0.0
H  H16  1  0.22001159  0.80909326  0.93198418  1  0.342199  8.7e-05  0.886588  0.0  0.335391  0.000762  0.940273  0.001  0.34324  0.00052  0.935222  0.0  0.290843  0.329793  0.000916  0.944092  0.001
H  H17  1  0.19080849  0.77991227  0.56800144  1  0.342315  -8.5e-05  0.8865  0.0  0.33552  -0.000761  0.940153  -0.001  0.343368  -0.00052  0.935097  0.0  0.290883  0.329933  -0.000915  0.943959  -0.001
H  H18  1  0.77996090  0.19089039  0.06801408  1  0.342134  -8.8e-05  0.886635  0.0  0.335345  -0.000762  0.940299  -0.001  0.343189  -0.00052  0.935248  0.0  0.29083  0.329752  -0.000916  0.944108  -0.001
H  H19  1  0.80920212  0.22008714  0.43199841  1  0.34238  8.6e-05  0.886414  0.0  0.335574  0.000762  0.940083  0.001  0.343418  0.00052  0.935031  0.0  0.290912  0.329983  0.000916  0.943895  0.001
H  H20  1  0.24346760  0.95760900  0.00630527  1  0.335219  -0.000262  0.931658  -0.001  0.32399  0.000472  0.991283  0.0  0.332081  0.000312  0.985919  0.0  0.282451  0.318269  0.000576  0.995296  0.0
H  H21  1  0.04240380  0.75655594  0.49367595  1  0.335093  0.000262  0.931852  0.001  0.3239  -0.000472  0.991389  0.0  0.331986  -0.000312  0.986032  0.0  0.282513  0.318183  -0.000576  0.995401  0.0
H  H22  1  0.75651580  0.04238876  0.99369088  1  0.335147  0.000262  0.931794  0.001  0.323916  -0.000472  0.991418  0.0  0.332005  -0.000312  0.986058  0.0  0.28248  0.318197  -0.000576  0.995431  0.0
H  H23  1  0.95761056  0.24345131  0.50632281  1  0.335053  -0.000263  0.931921  -0.001  0.323878  0.000472  0.991452  0.0  0.331965  0.000312  0.986094  0.0  0.282481  0.318157  0.000576  0.995466  0.0
H  H24  1  0.12503366  0.97711182  0.93267271  1  0.349977  -0.000587  0.927326  -0.001  0.337225  0.000141  0.988145  0.0  0.345466  4e-06  0.982175  -0.001  0.283358  0.331395  0.000245  0.99252  0.0
H  H25  1  0.02285252  0.87495605  0.56730797  1  0.349878  0.000587  0.927579  0.001  0.337176  -0.000141  0.98827  0.0  0.345417  -4e-06  0.982305  0.001  0.283416  0.331352  -0.000245  0.992637  0.0
H  H26  1  0.87494352  0.02287317  0.06732014  1  0.349987  0.000586  0.927359  0.001  0.337233  -0.000141  0.988185  0.0  0.345473  -4e-06  0.982216  0.001  0.283408  0.33141  -0.000245  0.992553  0.0
H  H27  1  0.97715371  0.12503709  0.43269300  1  0.349911  -0.000587  0.927514  -0.001  0.337206  0.000141  0.988214  0.0  0.345444  4e-06  0.982251  -0.001  0.283401  0.331385  0.000244  0.99258  0.0
H  H28  1  0.91230789  0.55458104  0.81044655  1  0.12105  -0.000333  0.962923  0.0  0.127405  -0.000245  1.029913  0.0  0.131096  -0.000182  1.026688  0.0  0.10342  0.124626  -0.000292  1.032514  0.0
H  H29  1  0.44535070  0.08769081  0.68957918  1  0.121029  0.000329  0.962769  0.0  0.127413  0.000245  1.029756  0.0  0.131042  0.000182  1.026604  0.0  0.103418  0.124634  0.000292  1.032358  0.0
H  H30  1  0.08769168  0.44543579  0.18955303  1  0.121091  0.000331  0.963012  0.0  0.12745  0.000245  1.029971  0.0  0.131143  0.000182  1.026741  0.0  0.103441  0.124668  0.000292  1.03257  0.0
H  H31  1  0.55466436  0.91233229  0.31042022  1  0.12103  -0.000328  0.96284  0.0  0.127403  -0.000245  1.02983  0.0  0.131016  -0.000182  1.026699  0.0  0.103432  0.124636  -0.000292  1.032415  0.0
H  H32  1  0.98598157  0.58679137  0.68111607  1  0.114312  -3e-05  0.944308  0.0  0.123914  -8.9e-05  1.005381  0.0  0.127652  -6.6e-05  1.002691  0.0  0.105028  0.121239  -0.000107  1.007412  0.0
H  H33  1  0.41322590  0.01398278  0.81891307  1  0.114443  3.7e-05  0.944298  0.0  0.123989  8.9e-05  1.005464  0.0  0.127684  6.6e-05  1.002832  0.0  0.105108  0.121287  0.000107  1.007504  0.0
H  H34  1  0.01403917  0.41322056  0.31888159  1  0.114247  3.1e-05  0.944119  0.0  0.123812  8.9e-05  1.00528  0.0  0.127546  6.6e-05  1.002596  0.0  0.105009  0.121161  0.000107  1.007266  0.0
H  H35  1  0.58679990  0.98604519  0.18109002  1  0.114427  -3.6e-05  0.944271  0.0  0.124003  -8.9e-05  1.005399  0.0  0.127671  -6.6e-05  1.002804  0.0  0.105122  0.1213  -0.000107  1.007432  0.0
C  C36  1  0.08427109  0.37437811  0.81577157  1  -0.150442  -0.005599  3.723067  -0.006  -0.134979  -0.004082  3.991548  -0.005  -0.143495  -0.002793  4.013193  -0.003  -0.027924  -0.129429  -0.004992  3.976997  -0.006
C  C37  1  0.62563719  0.91575649  0.68423647  1  -0.150584  0.005584  3.722202  0.006  -0.134973  0.004085  3.990674  0.005  -0.143547  0.002796  4.01238  0.003  -0.027985  -0.129419  0.004995  3.976112  0.006
C  C38  1  0.91571937  0.62562280  0.18422499  1  -0.150326  0.005601  3.722844  0.006  -0.134898  0.004083  3.991372  0.005  -0.143403  0.002794  4.013007  0.003  -0.027938  -0.129347  0.004994  3.97681  0.006
C  C39  1  0.37438401  0.08424763  0.31576346  1  -0.150562  -0.005587  3.722463  -0.006  -0.134977  -0.004089  3.990938  -0.005  -0.143535  -0.002797  4.012633  -0.003  -0.027964  -0.129432  -0.004999  3.976388  -0.006
C  C40  1  0.99872530  0.48738803  0.78434118  1  -0.071275  0.000303  3.709439  0.0  -0.099166  -3.1e-05  3.970654  0.0  -0.098545  1.9e-05  3.989663  0.0  -0.095082  -0.09929  -0.000111  3.957659  0.0
C  C41  1  0.51257395  0.00127212  0.71569033  1  -0.071529  -0.000274  3.708793  0.0  -0.09946  3e-05  3.970021  0.0  -0.098768  -2e-05  3.989074  0.0  -0.095322  -0.099583  0.000109  3.957001  0.0
C  C42  1  0.00127787  0.51261914  0.21565457  1  -0.071439  -0.000296  3.709552  0.0  -0.099296  3.1e-05  3.970717  0.0  -0.098678  -1.9e-05  3.98972  0.0  -0.095152  -0.099422  0.00011  3.957718  0.0
C  C43  1  0.48742850  0.99873875  0.28431837  1  -0.071418  0.000271  3.709042  0.0  -0.09934  -2.9e-05  3.970305  0.0  -0.098648  2e-05  3.989363  0.0  -0.095227  -0.099468  -0.000109  3.957276  0.0
C  C44  1  0.03660602  0.50310873  0.71517764  1  -0.075868  -3.5e-05  3.728006  -0.001  -0.10553  -0.000608  3.992005  -0.001  -0.106329  -0.000325  4.011552  -0.001  -0.09657  -0.104887  -0.000828  3.978504  -0.001
C  C45  1  0.49688028  0.96337932  0.78484984  1  -0.075932  -1e-06  3.728197  0.001  -0.105614  0.000609  3.992198  0.001  -0.106378  0.000325  4.011735  0.001  -0.096555  -0.104924  0.000827  3.978726  0.001
C  C46  1  0.96340729  0.49690795  0.28481939  1  -0.075784  3.1e-05  3.727642  0.001  -0.10537  0.000609  3.9917  0.001  -0.106166  0.000325  4.011255  0.001  -0.096524  -0.104735  0.000828  3.978201  0.001
C  C47  1  0.50312822  0.03664416  0.21515805  1  -0.075896  6e-06  3.727962  -0.001  -0.105622  -0.000608  3.991986  -0.001  -0.106359  -0.000325  4.011521  -0.001  -0.096585  -0.10494  -0.000827  3.978505  -0.001
C  C48  1  0.14874904  0.40070368  0.69480785  1  -0.154237  -0.009355  3.736398  -0.01  -0.139008  -0.005944  4.007508  -0.007  -0.14582  -0.004205  4.027951  -0.005  -0.028419  -0.134272  -0.007238  3.99351  -0.008
C  C49  1  0.59932393  0.85126139  0.80520296  1  -0.154022  0.009374  3.735719  0.01  -0.138751  0.005942  4.006682  0.007  -0.145559  0.004205  4.027111  0.005  -0.028335  -0.134036  0.007237  3.992697  0.008
C  C50  1  0.85124589  0.59930057  0.30519312  1  -0.154236  0.009354  3.736132  0.01  -0.139217  0.005941  4.007516  0.007  -0.146033  0.004204  4.027963  0.005  -0.028476  -0.134487  0.007235  3.993536  0.008
C  C51  1  0.40068379  0.14876353  0.19480136  1  -0.154334  -0.009373  3.736168  -0.01  -0.138999  -0.005939  4.007132  -0.007  -0.145811  -0.004202  4.027548  -0.005  -0.028435  -0.134257  -0.007232  3.993117  -0.008
C  C52  1  0.09451998  0.32480445  0.88691537  1  0.652081  0.002822  3.946696  0.006  0.607073  2.2e-05  4.245848  0.003  0.644594  0.000417  4.239025  0.002  0.198734  0.581434  -0.000429  4.249222  0.002
C  C53  1  0.67523870  0.90549800  0.61310551  1  0.651851  -0.002819  3.947838  -0.006  0.606614  -2.4e-05  4.247303  -0.003  0.644142  -0.000416  4.240505  -0.002  0.198467  0.58098  0.000431  4.25065  -0.002
C  C54  1  0.90546666  0.67519157  0.11307725  1  0.6519  -0.002827  3.94658  -0.006  0.606841  -2.4e-05  4.245852  -0.003  0.644354  -0.000416  4.239037  -0.002  0.198643  0.581202  0.00043  4.249208  -0.002
C  C55  1  0.32477787  0.09448446  0.38690571  1  0.652086  0.002828  3.947546  0.006  0.606885  2.2e-05  4.246942  0.003  0.644412  0.000418  4.240137  0.002  0.198595  0.581255  -0.00043  4.250302  0.002
C  C56  1  0.21291487  0.37670850  0.62625319  1  0.655641  0.001027  3.944395  0.004  0.60615  -0.001971  4.253762  0.0  0.643359  -0.001252  4.24645  0.0  0.202022  0.580659  -0.002592  4.257878  -0.001
C  C57  1  0.62335147  0.78705426  0.87375854  1  0.656029  -0.001012  3.943333  -0.004  0.606671  0.001967  4.252499  0.0  0.643874  0.00125  4.245191  0.0  0.202254  0.581186  0.002591  4.256623  0.001
C  C58  1  0.78709603  0.62330029  0.37374396  1  0.65577  -0.00102  3.944422  -0.004  0.60629  0.001969  4.253864  0.0  0.643493  0.001252  4.246561  0.0  0.202081  0.580803  0.002592  4.25798  0.001
C  C59  1  0.37665464  0.21292968  0.12624926  1  0.656137  0.001026  3.942942  0.004  0.606698  -0.001972  4.252197  0.0  0.643909  -0.001253  4.244882  0.0  0.20233  0.581201  -0.002592  4.256309  -0.001
S  S60  1  0.20790606  0.28703530  0.76033782  1  0.180188  -0.000896  2.690729  -0.001  0.175419  -0.001034  3.01842  -0.001  0.175913  -0.000608  3.027277  0.0  0.106955  0.17471  -0.001435  3.01278  -0.001
S  S61  1  0.71300737  0.79215612  0.73967814  1  0.180202  0.000898  2.691026  0.001  0.17538  0.001036  3.018687  0.001  0.1759  0.000608  3.027584  0.0  0.106995  0.174673  0.001437  3.013051  0.001
S  S62  1  0.79208924  0.71296407  0.23965989  1  0.180207  0.000894  2.69058  0.001  0.175532  0.001035  3.01835  0.001  0.176032  0.000608  3.027202  0.0  0.107008  0.174818  0.001435  3.012708  0.001
S  S63  1  0.28699434  0.20785320  0.26033099  1  0.180282  -0.000897  2.69095  -0.001  0.175453  -0.001035  3.01859  -0.001  0.175966  -0.000608  3.02748  0.0  0.106975  0.174743  -0.001436  3.012952  -0.001
N  N64  1  0.61200289  0.36154507  0.95965107  1  -0.860288  0.083164  2.942827  0.098  -0.855955  0.053403  3.183066  0.064  -0.891186  0.043317  3.166855  0.055  -0.806706  -0.833475  0.057751  3.195757  0.067
N  N65  1  0.63842583  0.38800228  0.54034496  1  -0.860078  -0.083128  2.943149  -0.098  -0.855923  -0.053378  3.183149  -0.064  -0.891142  -0.043297  3.166923  -0.055  -0.806645  -0.833457  -0.057718  3.195854  -0.067
N  N66  1  0.38796898  0.63844016  0.04034723  1  -0.860097  -0.083175  2.942932  -0.098  -0.855811  -0.053398  3.183068  -0.064  -0.890997  -0.043313  3.166881  -0.055  -0.806637  -0.833346  -0.057743  3.19575  -0.067
N  N67  1  0.36158753  0.61199710  0.45965448  1  -0.860148  0.083116  2.943129  0.098  -0.856075  0.053374  3.183101  0.064  -0.891271  0.043294  3.166926  0.055  -0.806655  -0.833589  0.057717  3.195805  0.067
N  N68  1  0.14124457  0.86929945  0.95967542  1  -0.869463  0.080165  2.948241  0.094  -0.867177  0.052047  3.192853  0.063  -0.90183  0.042423  3.17481  0.054  -0.809141  -0.845056  0.056109  3.206969  0.065
N  N69  1  0.13068170  0.85874699  0.54031227  1  -0.869425  -0.080138  2.948495  -0.094  -0.867236  -0.052026  3.193213  -0.063  -0.901868  -0.042404  3.175173  -0.054  -0.809323  -0.845151  -0.056079  3.207311  -0.065
N  N70  1  0.85873513  0.13069354  0.04031989  1  -0.869344  -0.080155  2.948408  -0.094  -0.867072  -0.052045  3.193049  -0.063  -0.9017  -0.042421  3.175015  -0.054  -0.809215  -0.844974  -0.056104  3.20714  -0.065
N  N71  1  0.86932896  0.14125246  0.45968861  1  -0.869512  0.080138  2.94849  0.094  -0.867333  0.052024  3.193151  0.063  -0.901964  0.042404  3.175113  0.054  -0.809343  -0.845227  0.05608  3.207254  0.065
O  O72  1  0.01574382  0.39366471  0.93317685  1  -0.639205  -0.078101  2.060396  -0.103  -0.60731  -0.052633  2.342574  -0.075  -0.653694  -0.040179  2.335837  -0.061  -0.320854  -0.574871  -0.060063  2.347013  -0.082
O  O73  1  0.60632575  0.98421271  0.56683953  1  -0.639152  0.07815  2.060202  0.103  -0.607267  0.052652  2.342571  0.075  -0.653695  0.040185  2.33591  0.061  -0.320848  -0.574792  0.060091  2.34698  0.082
O  O74  1  0.98422096  0.60632340  0.06681409  1  -0.639074  0.078092  2.06058  0.103  -0.607174  0.052625  2.34282  0.075  -0.653551  0.040175  2.336084  0.061  -0.320796  -0.574744  0.060056  2.347283  0.082
O  O75  1  0.39370049  0.01577575  0.43316461  1  -0.639042  -0.078129  2.060341  -0.103  -0.607156  -0.052644  2.34269  -0.075  -0.653551  -0.040179  2.335967  -0.061  -0.32074  -0.574703  -0.06008  2.347127  -0.082
O  O76  1  0.18817258  0.21902276  0.90036293  1  -0.647154  0.001829  2.028294  0.001  -0.597355  0.001079  2.262948  0.0  -0.621551  0.001193  2.25058  0.0  -0.320485  -0.580122  0.00093  2.270866  0.0
O  O77  1  0.78105780  0.81190941  0.59967566  1  -0.646776  -0.001832  2.028804  -0.001  -0.596892  -0.001075  2.263431  0.0  -0.621104  -0.001191  2.251126  0.0  -0.320183  -0.579653  -0.000929  2.271333  0.0
O  O78  1  0.81181749  0.78098299  0.09963585  1  -0.647005  -0.001826  2.027896  -0.001  -0.597184  -0.001077  2.262507  0.0  -0.621396  -0.001193  2.250199  0.0  -0.320412  -0.579946  -0.000929  2.270411  0.0
O  O79  1  0.21895237  0.18806836  0.40033616  1  -0.647078  0.001824  2.028545  0.001  -0.597214  0.001075  2.263193  0.0  -0.62142  0.00119  2.250871  0.0  -0.320399  -0.579983  0.000926  2.271112  0.0
O  O80  1  0.16845068  0.46284362  0.57857325  1  -0.637791  9.8e-05  1.973293  0.0  -0.580897  -0.000406  2.191583  -0.001  -0.605727  0.00024  2.182369  0.0  -0.319456  -0.563106  -0.001127  2.197342  -0.002
O  O81  1  0.53719401  0.83150640  0.92143703  1  -0.637923  -0.000104  1.973155  0.0  -0.581158  0.000408  2.191465  0.001  -0.605989  -0.000239  2.182268  0.0  -0.319516  -0.563366  0.001128  2.197221  0.002
O  O82  1  0.83155375  0.53716040  0.42142295  1  -0.637906  -0.000105  1.973526  0.0  -0.580937  0.000407  2.191763  0.001  -0.605748  -0.000239  2.182538  0.0  -0.319439  -0.56314  0.001125  2.197512  0.002
O  O83  1  0.46279728  0.16846146  0.07856339  1  -0.637993  0.0001  1.972782  0.0  -0.581099  -0.000405  2.191032  -0.001  -0.605954  0.00024  2.181868  0.0  -0.319488  -0.563326  -0.001125  2.196826  -0.002
O  O84  1  0.30663013  0.26328333  0.62094207  1  -0.61839  -0.082775  2.046316  -0.11  -0.586521  -0.056234  2.330874  -0.082  -0.628114  -0.04323  2.320181  -0.067  -0.326608  -0.558361  -0.064058  2.338294  -0.089
O  O85  1  0.73679106  0.69336571  0.87907522  1  -0.618519  0.082698  2.045995  0.11  -0.586664  0.056197  2.330491  0.082  -0.628244  0.043208  2.319804  0.066  -0.326735  -0.558506  0.064014  2.337919  0.089
O  O86  1  0.69338328  0.73673346  0.37905754  1  -0.618468  0.082775  2.046122  0.11  -0.586605  0.056233  2.330708  0.082  -0.628201  0.043228  2.320018  0.067  -0.326682  -0.558426  0.06406  2.33813  0.089
O  O87  1  0.26319240  0.30661779  0.12092038  1  -0.61863  -0.082737  2.045429  -0.11  -0.586779  -0.05621  2.32996  -0.082  -0.628358  -0.043217  2.319258  -0.066  -0.326898  -0.558627  -0.064035  2.337378  -0.089
