# generated using pymatgen
data_ZnH16C18(N3Cl)2
_symmetry_space_group_name_H-M   'P 1'
_cell_length_a   8.11558212
_cell_length_b   10.01354838
_cell_length_c   12.79689495
_cell_angle_alpha   77.55623026
_cell_angle_beta   74.50136977
_cell_angle_gamma   70.19512835
_symmetry_Int_Tables_number   1
_chemical_formula_structural   ZnH16C18(N3Cl)2
_chemical_formula_sum   'Zn2 H32 C36 N12 Cl4'
_cell_volume   933.86335937
_cell_formula_units_Z   2
loop_
 _symmetry_equiv_pos_site_id
 _symmetry_equiv_pos_as_xyz
  1  'x, y, z'
loop_
 _atom_site_type_symbol
 _atom_site_label
 _atom_site_symmetry_multiplicity
 _atom_site_fract_x
 _atom_site_fract_y
 _atom_site_fract_z
 _atom_site_occupancy
 _atom_site_hle17_bader_spin_density
 _atom_site_hle17_ddec_charge
 _atom_site_hle17_ddec_spin_density
 _atom_site_hle17_ddec_sum_bond_order
 _atom_site_hle17_magmom
 _atom_site_hse06_10hf_bader_spin_density
 _atom_site_hse06_10hf_ddec_charge
 _atom_site_hse06_10hf_ddec_spin_density
 _atom_site_hse06_10hf_ddec_sum_bond_order
 _atom_site_hse06_10hf_magmom
 _atom_site_hse06_bader_spin_density
 _atom_site_hse06_ddec_charge
 _atom_site_hse06_ddec_spin_density
 _atom_site_hse06_ddec_sum_bond_order
 _atom_site_hse06_magmom
 _atom_site_pbe_bader_spin_density
 _atom_site_pbe_cm5_charge
 _atom_site_pbe_ddec_charge
 _atom_site_pbe_ddec_spin_density
 _atom_site_pbe_ddec_sum_bond_order
 _atom_site_pbe_magmom
Zn  Zn0  1  0.63207816  0.74199827  0.71941334  1  0  0.830637  0  2.14987  0  0  0.653115  0  2.644874  0  0  0.692123  0  2.599495  0  0  0.561438  0.626638  0  2.675112  0
Zn  Zn1  1  0.36792111  0.25799959  0.28058656  1  0  0.830643  0  2.149851  0  0  0.653105  0  2.644881  0  0  0.692137  0  2.599509  0  0  0.561432  0.626637  0  2.675117  0
H  H2  1  0.58037524  0.70314311  0.50602561  1  0  0.085113  0  0.942147  0  0  0.091219  0  1.012283  0  0  0.094418  0  1.008543  0  0  0.117024  0.088818  0  1.014999  0
H  H3  1  0.41961892  0.29685475  0.49397595  1  0  0.085189  0  0.94219  0  0  0.091292  0  1.012309  0  0  0.094495  0  1.008567  0  0  0.11706  0.088889  0  1.015027  0
H  H4  1  0.91791774  0.27927515  0.44161734  1  0  0.099889  0  0.959295  0  0  0.110048  0  1.023032  0  0  0.112527  0  1.021467  0  0  0.102188  0.108338  0  1.023789  0
H  H5  1  0.08208330  0.72072486  0.55838268  1  0  0.099902  0  0.959281  0  0  0.110055  0  1.02302  0  0  0.112534  0  1.021456  0  0  0.102199  0.108345  0  1.023778  0
H  H6  1  0.98524979  0.23778384  0.62590380  1  0  0.096531  0  0.968646  0  0  0.106836  0  1.030418  0  0  0.1092  0  1.030775  0  0  0.103226  0.105216  0  1.030254  0
H  H7  1  0.01475467  0.76221724  0.37409466  1  0  0.096574  0  0.9686  0  0  0.106878  0  1.030374  0  0  0.10924  0  1.030727  0  0  0.103231  0.105255  0  1.030213  0
H  H8  1  0.84530501  0.43684971  0.74467932  1  0  0.076258  0  0.969083  0  0  0.08383  0  1.038375  0  0  0.086557  0  1.035892  0  0  0.107259  0.081798  0  1.040252  0
H  H9  1  0.15469387  0.56314923  0.25532124  1  0  0.076249  0  0.969105  0  0  0.08382  0  1.038394  0  0  0.086546  0  1.035914  0  0  0.107256  0.081785  0  1.040275  0
H  H10  1  0.89973273  0.35772030  0.25201929  1  0  0.124384  0  0.98568  0  0  0.133351  0  1.048328  0  0  0.135509  0  1.049636  0  0  0.099785  0.131789  0  1.047572  0
H  H11  1  0.10026526  0.64227757  0.74797927  1  0  0.12442  0  0.985736  0  0  0.133403  0  1.048348  0  0  0.135561  0  1.049655  0  0  0.099807  0.131843  0  1.047591  0
H  H12  1  0.73029413  0.52797986  0.08797636  1  0  0.11947  0  0.955439  0  0  0.131011  0  1.015478  0  0  0.133848  0  1.013031  0  0  0.115824  0.128878  0  1.017419  0
H  H13  1  0.26969675  0.47202336  0.91202486  1  0  0.11952  0  0.955331  0  0  0.13109  0  1.015342  0  0  0.133904  0  1.012924  0  0  0.115853  0.128956  0  1.017283  0
H  H14  1  0.33233934  0.80395234  0.19608740  1  0  0.083589  0  0.922942  0  0  0.100894  0  0.986497  0  0  0.100716  0  0.987259  0  0  0.111995  0.101133  0  0.985739  0
H  H15  1  0.66765706  0.19604981  0.80391383  1  0  0.08357  0  0.922925  0  0  0.10088  0  0.986476  0  0  0.100701  0  0.987241  0  0  0.111982  0.101116  0  0.985715  0
H  H16  1  0.49612485  0.75984607  0.07346818  1  0  0.092285  0  0.932408  0  0  0.104976  0  1.001541  0  0  0.10619  0  1.000427  0  0  0.110636  0.104051  0  1.002383  0
H  H17  1  0.50387661  0.24015287  0.92653506  1  0  0.092283  0  0.932424  0  0  0.105001  0  1.001504  0  0  0.106217  0  1.000394  0  0  0.110647  0.104072  0  1.002344  0
H  H18  1  0.46433842  0.00383054  0.10902602  1  0  0.096933  0  0.942729  0  0  0.103953  0  1.020998  0  0  0.105722  0  1.019093  0  0  0.113739  0.102614  0  1.022386  0
H  H19  1  0.53566046  0.99616840  0.89097611  1  0  0.096956  0  0.942801  0  0  0.103987  0  1.021056  0  0  0.105757  0  1.019151  0  0  0.113759  0.102662  0  1.02243  0
H  H20  1  0.51437637  0.93035964  0.24144319  1  0  0.086419  0  0.954344  0  0  0.094927  0  1.029437  0  0  0.096043  0  1.028546  0  0  0.103945  0.09413  0  1.029994  0
H  H21  1  0.48562387  0.06964252  0.75855737  1  0  0.08643  0  0.954259  0  0  0.094939  0  1.029358  0  0  0.096055  0  1.028468  0  0  0.103921  0.094142  0  1.029917  0
H  H22  1  0.84131298  0.76180795  0.24594126  1  0  0.10675  0  0.956784  0  0  0.119088  0  1.017259  0  0  0.12112  0  1.016494  0  0  0.122843  0.117657  0  1.017805  0
H  H23  1  0.15868892  0.23819313  0.75405607  1  0  0.106725  0  0.956787  0  0  0.119101  0  1.017214  0  0  0.121134  0  1.01645  0  0  0.122835  0.117671  0  1.017758  0
H  H24  1  0.15574909  0.71774886  0.08805156  1  0  0.121803  0  0.969223  0  0  0.133297  0  1.02873  0  0  0.136266  0  1.027941  0  0  0.103895  0.131202  0  1.029347  0
H  H25  1  0.84425194  0.28225115  0.91194689  1  0  0.121781  0  0.96924  0  0  0.13327  0  1.028747  0  0  0.136239  0  1.027958  0  0  0.103878  0.131175  0  1.029363  0
H  H26  1  0.84441641  0.96092529  0.78988186  1  0  0.104086  0  0.95971  0  0  0.114909  0  1.022767  0  0  0.117814  0  1.020295  0  0  0.10766  0.112631  0  1.024796  0
H  H27  1  0.15558207  0.03907472  0.21011781  1  0  0.104106  0  0.959696  0  0  0.11493  0  1.022749  0  0  0.117834  0  1.020279  0  0  0.107667  0.112651  0  1.024778  0
H  H28  1  0.03649002  0.99107892  0.60345191  1  0  0.1096  0  0.9597  0  0  0.118126  0  1.020508  0  0  0.12116  0  1.019689  0  0  0.098586  0.116041  0  1.020984  0
H  H29  1  0.96351141  0.00892002  0.39654744  1  0  0.109588  0  0.959732  0  0  0.118087  0  1.020567  0  0  0.121123  0  1.019745  0  0  0.098565  0.116001  0  1.021045  0
H  H30  1  0.37016220  0.91002421  0.58233210  1  0  0.078586  0  0.970077  0  0  0.083649  0  1.042326  0  0  0.086464  0  1.039266  0  0  0.102681  0.081654  0  1.044378  0
H  H31  1  0.62983628  0.08997580  0.41766913  1  0  0.078598  0  0.970086  0  0  0.083672  0  1.04233  0  0  0.086487  0  1.039271  0  0  0.102685  0.081678  0  1.044381  0
H  H32  1  0.33010452  0.76218498  0.91368691  1  0  0.080741  0  0.949739  0  0  0.088347  0  1.018523  0  0  0.091538  0  1.015264  0  0  0.111813  0.086044  0  1.020953  0
H  H33  1  0.66989563  0.23781396  0.08631266  1  0  0.080737  0  0.949743  0  0  0.088342  0  1.018528  0  0  0.091534  0  1.015268  0  0  0.111812  0.086039  0  1.020958  0
C  C34  1  0.66799366  0.59786024  0.53102211  1  0  0.103642  0  3.638806  0  0  0.062319  0  3.887641  0  0  0.069452  0  3.904688  0  0  0.053554  0.057687  0  3.876257  0
C  C35  1  0.33200905  0.40213870  0.46897779  1  0  0.103456  0  3.638848  0  0  0.062112  0  3.88766  0  0  0.069241  0  3.904707  0  0  0.05347  0.057459  0  3.876326  0
C  C36  1  0.73944981  0.49477543  0.45911866  1  0  0.001406  0  3.777869  0  0  0.022502  0  4.008101  0  0  0.017984  0  4.03057  0  0  0.005085  0.025034  0  3.993257  0
C  C37  1  0.26055419  0.50522351  0.54088181  1  0  0.001534  0  3.777857  0  0  0.022699  0  4.007973  0  0  0.018179  0  4.030441  0  0  0.005148  0.025234  0  3.993121  0
C  C38  1  0.85544595  0.36270099  0.49459323  1  0  -0.028947  0  3.658287  0  0  -0.055766  0  3.902632  0  0  -0.051836  0  3.919053  0  0  -0.062578  -0.057728  0  3.890429  0
C  C39  1  0.14455933  0.63729794  0.50540702  1  0  -0.028977  0  3.658296  0  0  -0.055797  0  3.902599  0  0  -0.051866  0  3.91902  0  0  -0.06262  -0.057758  0  3.890397  0
C  C40  1  0.89403393  0.33924695  0.59780459  1  0  -0.103222  0  3.74587  0  0  -0.116634  0  4.001368  0  0  -0.12287  0  4.021872  0  0  -0.081166  -0.112736  0  3.987074  0
C  C41  1  0.10597134  0.66075199  0.40219410  1  0  -0.103283  0  3.745862  0  0  -0.11671  0  4.001376  0  0  -0.122943  0  4.021873  0  0  -0.081153  -0.112815  0  3.987085  0
C  C42  1  0.81763385  0.44728908  0.66396822  1  0  0.112843  0  3.69848  0  0  0.076936  0  3.951471  0  0  0.08459  0  3.968625  0  0  0.03726  0.071777  0  3.940586  0
C  C43  1  0.18236887  0.55270986  0.33603169  1  0  0.11289  0  3.698406  0  0  0.076987  0  3.951392  0  0  0.084641  0  3.968544  0  0  0.037286  0.071845  0  3.940481  0
C  C44  1  0.70014138  0.52910469  0.34987070  1  0  0.129262  0  3.86022  0  0  0.122127  0  4.127165  0  0  0.127684  0  4.149116  0  0  0.081277  0.118674  0  4.112029  0
C  C45  1  0.29986302  0.47089317  0.65012910  1  0  0.129245  0  3.860233  0  0  0.122094  0  4.127154  0  0  0.12766  0  4.149099  0  0  0.081238  0.118647  0  4.112009  0
C  C46  1  0.78791086  0.45489158  0.25810637  1  0  -0.240858  0  3.763378  0  0  -0.263081  0  4.029304  0  0  -0.273242  0  4.053706  0  0  -0.120404  -0.256173  0  4.012612  0
C  C47  1  0.21208585  0.54510628  0.74189241  1  0  -0.240954  0  3.763542  0  0  -0.263214  0  4.029503  0  0  -0.273382  0  4.053903  0  0  -0.120435  -0.25631  0  4.012813  0
C  C48  1  0.70577073  0.53801585  0.17405960  1  0  -0.00146  0  3.665332  0  0  -0.059335  0  3.920655  0  0  -0.052863  0  3.93692  0  0  0.015428  -0.063077  0  3.909718  0
C  C49  1  0.29423078  0.46198630  0.82593919  1  0  -0.001515  0  3.665375  0  0  -0.059402  0  3.920671  0  0  -0.052927  0  3.936974  0  0  0.015374  -0.063145  0  3.909736  0
C  C50  1  0.47529146  0.78094650  0.15741578  1  0  -0.031457  0  3.616454  0  0  -0.111176  0  3.879099  0  0  -0.107688  0  3.889523  0  0  -0.045801  -0.113324  0  3.871802  0
C  C51  1  0.52470535  0.21905458  0.84258634  1  0  -0.031485  0  3.616473  0  0  -0.111209  0  3.879143  0  0  -0.107735  0  3.889589  0  0  -0.045814  -0.11334  0  3.871829  0
C  C52  1  0.53856153  0.90903359  0.15723293  1  0  -0.052287  0  3.6295  0  0  -0.12844  0  3.887403  0  0  -0.125779  0  3.898063  0  0  -0.052896  -0.129898  0  3.880077  0
C  C53  1  0.46143823  0.09096642  0.84276808  1  0  -0.052357  0  3.629464  0  0  -0.128522  0  3.887418  0  0  -0.125864  0  3.898089  0  0  -0.052886  -0.129993  0  3.880079  0
C  C54  1  0.86629774  0.79901548  0.15877842  1  0  -0.009643  0  3.700513  0  0  -0.070205  0  3.962277  0  0  -0.064371  0  3.981051  0  0  0.009678  -0.073847  0  3.949747  0
C  C55  1  0.13370288  0.20098560  0.84121992  1  0  -0.009715  0  3.700455  0  0  -0.070277  0  3.962237  0  0  -0.06445  0  3.981019  0  0  0.009681  -0.073919  0  3.949706  0
C  C56  1  0.02100640  0.77880864  0.07806794  1  0  -0.240601  0  3.75903  0  0  -0.263345  0  4.026188  0  0  -0.27291  0  4.048608  0  0  -0.116615  -0.256829  0  4.010883  0
C  C57  1  0.97899295  0.22119244  0.92193062  1  0  -0.240489  0  3.759069  0  0  -0.263243  0  4.026201  0  0  -0.272811  0  4.04862  0  0  -0.116544  -0.256727  0  4.010895  0
C  C58  1  0.96313236  0.85176775  0.98015835  1  0  0.149067  0  3.842538  0  0  0.139104  0  4.107004  0  0  0.144942  0  4.128551  0  0  0.087781  0.13567  0  4.091948  0
C  C59  1  0.03686739  0.14823225  0.01984032  1  0  0.148977  0  3.842666  0  0  0.139067  0  4.107038  0  0  0.144917  0  4.128566  0  0  0.087714  0.135633  0  4.091982  0
C  C60  1  0.06958859  0.86616015  0.86926760  1  0  0.006926  0  3.771263  0  0  0.030127  0  3.998388  0  0  0.026555  0  4.01943  0  0  0.007595  0.032078  0  3.984416  0
C  C61  1  0.93041156  0.13383878  0.13073196  1  0  0.006948  0  3.771288  0  0  0.030152  0  3.998363  0  0  0.026578  0  4.019401  0  0  0.007593  0.032103  0  3.98439  0
C  C62  1  0.98945967  0.92803037  0.77861660  1  0  -0.039632  0  3.681496  0  0  -0.070658  0  3.930379  0  0  -0.066231  0  3.94598  0  0  -0.063327  -0.07319  0  3.919943  0
C  C63  1  0.01053840  0.07197071  0.22138296  1  0  -0.039672  0  3.68166  0  0  -0.070708  0  3.930539  0  0  -0.066283  0  3.946142  0  0  -0.063346  -0.073237  0  3.9201  0
C  C64  1  0.09618775  0.94384595  0.67467305  1  0  -0.122996  0  3.770464  0  0  -0.13256  0  4.023266  0  0  -0.139569  0  4.043953  0  0  -0.087633  -0.128075  0  4.009251  0
C  C65  1  0.90381456  0.05615406  0.32532596  1  0  -0.12292  0  3.770495  0  0  -0.132441  0  4.023298  0  0  -0.139449  0  4.043984  0  0  -0.087537  -0.127955  0  4.00928  0
C  C66  1  0.28156386  0.89570068  0.66185230  1  0  0.114104  0  3.693432  0  0  0.080194  0  3.94199  0  0  0.087515  0  3.959904  0  0  0.037619  0.075159  0  3.930642  0
C  C67  1  0.71843558  0.10430361  0.33814804  1  0  0.114049  0  3.693488  0  0  0.080098  0  3.942084  0  0  0.087419  0  3.96  0  0  0.03759  0.075061  0  3.93074  0
C  C68  1  0.25712771  0.81583342  0.84856048  1  0  0.098245  0  3.64625  0  0  0.057156  0  3.892479  0  0  0.064115  0  3.908872  0  0  0.051199  0.05208  0  3.882964  0
C  C69  1  0.74287205  0.18416659  0.15143975  1  0  0.09826  0  3.646222  0  0  0.057174  0  3.892442  0  0  0.064128  0  3.908845  0  0  0.051215  0.052098  0  3.882927  0
N  N70  1  0.70681271  0.57484636  0.63017121  1  0  -0.313288  0  3.35376  0  0  -0.226144  0  3.629313  0  0  -0.244973  0  3.645845  0  0  -0.334553  -0.213495  0  3.617426  0
N  N71  1  0.29318609  0.42514936  0.36982991  1  0  -0.313268  0  3.353636  0  0  -0.226122  0  3.629196  0  0  -0.244952  0  3.645728  0  0  -0.334558  -0.21347  0  3.617304  0
N  N72  1  0.57159728  0.65028328  0.32359166  1  0  -0.313563  0  2.884562  0  0  -0.316017  0  3.150524  0  0  -0.324419  0  3.167096  0  0  -0.236112  -0.309753  0  3.138635  0
N  N73  1  0.42840496  0.34971352  0.67641025  1  0  -0.313599  0  2.884531  0  0  -0.316051  0  3.150492  0  0  -0.324466  0  3.167061  0  0  -0.236102  -0.309787  0  3.1386  0
N  N74  1  0.57670728  0.65229407  0.21714363  1  0  0.061672  0  3.61023  0  0  0.183987  0  3.79266  0  0  0.174409  0  3.819175  0  0  -0.145951  0.189351  0  3.776422  0
N  N75  1  0.42328777  0.34770487  0.78285837  1  0  0.061775  0  3.610128  0  0  0.184072  0  3.792562  0  0  0.174537  0  3.818999  0  0  -0.145899  0.18943  0  3.776322  0
N  N76  1  0.72849205  0.88042926  0.10898256  1  0  0.069764  0  3.598299  0  0  0.193573  0  3.776217  0  0  0.18444  0  3.801677  0  0  -0.143729  0.199165  0  3.759937  0
N  N77  1  0.27150603  0.11957182  0.89101699  1  0  0.069929  0  3.598056  0  0  0.193632  0  3.77612  0  0  0.184506  0  3.801571  0  0  -0.143728  0.199222  0  3.759845  0
N  N78  1  0.78393931  0.91315027  0.00018223  1  0  -0.291624  0  2.860784  0  0  -0.290201  0  3.122686  0  0  -0.298926  0  3.139418  0  0  -0.222557  -0.283998  0  3.111179  0
N  N79  1  0.21606044  0.08684974  0.99981722  1  0  -0.291635  0  2.86073  0  0  -0.2902  0  3.122649  0  0  -0.298931  0  3.139377  0  0  -0.222544  -0.283996  0  3.11114  0
N  N80  1  0.35947245  0.82993589  0.74770052  1  0  -0.320155  0  3.374111  0  0  -0.231566  0  3.648606  0  0  -0.250323  0  3.66557  0  0  -0.340084  -0.219081  0  3.637146  0
N  N81  1  0.64052731  0.17006411  0.25230049  1  0  -0.320171  0  3.374199  0  0  -0.231588  0  3.648731  0  0  -0.25035  0  3.665705  0  0  -0.340118  -0.219105  0  3.637274  0
Cl  Cl82  1  0.73214580  0.91315899  0.60071875  1  0  -0.56479  0  0.926673  0  0  -0.499213  0  1.199794  0  0  -0.51424  0  1.177119  0  0  -0.306814  -0.488503  0  1.214003  0
Cl  Cl83  1  0.26785179  0.08683994  0.39928048  1  0  -0.564791  0  0.926672  0  0  -0.499208  0  1.199809  0  0  -0.514243  0  1.177138  0  0  -0.306816  -0.4885  0  1.214017  0
Cl  Cl84  1  0.71014319  0.65001326  0.88010987  1  0  -0.565494  0  0.90979  0  0  -0.505252  0  1.175269  0  0  -0.518652  0  1.15234  0  0  -0.320798  -0.495593  0  1.191049  0
Cl  Cl85  1  0.28985449  0.34998889  0.11989114  1  0  -0.565492  0  0.909804  0  0  -0.505251  0  1.175274  0  0  -0.518656  0  1.152348  0  0  -0.320791  -0.495598  0  1.191058  0
