# generated using pymatgen
data_CdH20C18(SN5)2
_symmetry_space_group_name_H-M   'P 1'
_cell_length_a   10.49673457
_cell_length_b   10.79981480
_cell_length_c   11.85027696
_cell_angle_alpha   66.33607722
_cell_angle_beta   73.46465644
_cell_angle_gamma   61.92976553
_symmetry_Int_Tables_number   1
_chemical_formula_structural   CdH20C18(SN5)2
_chemical_formula_sum   'Cd2 H40 C36 S4 N20'
_cell_volume   1078.04502038
_cell_formula_units_Z   2
loop_
 _symmetry_equiv_pos_site_id
 _symmetry_equiv_pos_as_xyz
  1  'x, y, z'
loop_
 _atom_site_type_symbol
 _atom_site_label
 _atom_site_symmetry_multiplicity
 _atom_site_fract_x
 _atom_site_fract_y
 _atom_site_fract_z
 _atom_site_occupancy
 _atom_site_hle17_bader_spin_density
 _atom_site_hle17_ddec_charge
 _atom_site_hle17_ddec_spin_density
 _atom_site_hle17_ddec_sum_bond_order
 _atom_site_hle17_magmom
 _atom_site_hse06_10hf_bader_spin_density
 _atom_site_hse06_10hf_ddec_charge
 _atom_site_hse06_10hf_ddec_spin_density
 _atom_site_hse06_10hf_ddec_sum_bond_order
 _atom_site_hse06_10hf_magmom
 _atom_site_hse06_bader_spin_density
 _atom_site_hse06_ddec_charge
 _atom_site_hse06_ddec_spin_density
 _atom_site_hse06_ddec_sum_bond_order
 _atom_site_hse06_magmom
 _atom_site_pbe_bader_spin_density
 _atom_site_pbe_cm5_charge
 _atom_site_pbe_ddec_charge
 _atom_site_pbe_ddec_spin_density
 _atom_site_pbe_ddec_sum_bond_order
 _atom_site_pbe_magmom
Cd  Cd0  1  0.49999900  0.50000024  0.50000049  1  0  1.008612  0  1.946596  0  0  0.830999  0  2.419513  0  0  0.875843  0  2.380275  0  0  0.728721  0.799381  0  2.445849  0
Cd  Cd1  1  0.49999957  0.49999995  0.00000036  1  0  1.008465  0  1.921506  0  0  0.8318  0  2.389521  0  0  0.876294  0  2.351173  0  0  0.730594  0.800769  0  2.416246  0
H  H2  1  0.70305451  0.29399590  0.30575706  1  0  0.094381  0  0.951374  0  0  0.102307  0  1.014463  0  0  0.103436  0  1.013647  0  0  0.130931  0.101341  0  1.015148  0
H  H3  1  0.29694260  0.70600678  0.69424165  1  0  0.094387  0  0.951412  0  0  0.10234  0  1.014457  0  0  0.103472  0  1.013635  0  0  0.130934  0.101375  0  1.015144  0
H  H4  1  0.97436676  0.41955767  0.69631178  1  0  0.128685  0  0.95536  0  0  0.143316  0  1.023743  0  0  0.145612  0  1.023234  0  0  0.090471  0.141721  0  1.023984  0
H  H5  1  0.02563323  0.58044282  0.30368701  1  0  0.128652  0  0.955388  0  0  0.143276  0  1.02378  0  0  0.145571  0  1.023273  0  0  0.090457  0.141682  0  1.02402  0
H  H6  1  0.15718910  0.38386661  0.62134686  1  0  0.129307  0  0.94789  0  0  0.146932  0  1.011828  0  0  0.148587  0  1.01198  0  0  0.095692  0.145592  0  1.011958  0
H  H7  1  0.84281088  0.61613388  0.37865277  1  0  0.129305  0  0.94789  0  0  0.146927  0  1.011829  0  0  0.148581  0  1.011983  0  0  0.095693  0.145585  0  1.011967  0
H  H8  1  0.11876762  0.24052082  0.74464799  1  0  0.114504  0  0.97724  0  0  0.129258  0  1.050664  0  0  0.131549  0  1.049406  0  0  0.09195  0.127558  0  1.051557  0
H  H9  1  0.88123336  0.75947968  0.25535055  1  0  0.114495  0  0.977228  0  0  0.129248  0  1.050651  0  0  0.131539  0  1.049394  0  0  0.091936  0.127547  0  1.051544  0
H  H10  1  0.35390669  0.99683970  0.57438645  1  0  0.105662  0  0.946789  0  0  0.12819  0  1.0066  0  0  0.128607  0  1.007419  0  0  0.091658  0.128108  0  1.00558  0
H  H11  1  0.64609276  0.00315967  0.42561204  1  0  0.105668  0  0.946799  0  0  0.128186  0  1.006614  0  0  0.128602  0  1.007433  0  0  0.091665  0.128104  0  1.005592  0
H  H12  1  0.32101580  0.14791657  0.62043640  1  0  0.113773  0  0.960573  0  0  0.135866  0  1.020133  0  0  0.137018  0  1.020157  0  0  0.092241  0.135035  0  1.02005  0
H  H13  1  0.67898409  0.85208169  0.37956407  1  0  0.113755  0  0.960634  0  0  0.135846  0  1.020191  0  0  0.136998  0  1.020214  0  0  0.092232  0.135015  0  1.020106  0
H  H14  1  0.38338609  0.15351474  0.46421549  1  0  0.106084  0  0.975184  0  0  0.126453  0  1.039508  0  0  0.126334  0  1.041009  0  0  0.08899  0.1265  0  1.038354  0
H  H15  1  0.61661336  0.84648463  0.53578384  1  0  0.106077  0  0.9751  0  0  0.126438  0  1.03944  0  0  0.126319  0  1.040942  0  0  0.088975  0.126485  0  1.038288  0
H  H16  1  0.34105261  0.04197073  0.35334784  1  0  0.125733  0  0.948298  0  0  0.149331  0  1.004165  0  0  0.15073  0  1.004031  0  0  0.098269  0.14821  0  1.004407  0
H  H17  1  0.65894783  0.95802864  0.64665041  1  0  0.125724  0  0.94831  0  0  0.149319  0  1.00419  0  0  0.150714  0  1.004055  0  0  0.098268  0.148199  0  1.004433  0
H  H18  1  0.19971654  0.08681325  0.26965032  1  0  0.130596  0  0.956343  0  0  0.148789  0  1.021019  0  0  0.150476  0  1.020853  0  0  0.100525  0.147632  0  1.021228  0
H  H19  1  0.80028345  0.91318724  0.73034847  1  0  0.130525  0  0.956386  0  0  0.148762  0  1.021018  0  0  0.150448  0  1.020853  0  0  0.10053  0.147606  0  1.021229  0
H  H20  1  0.23400446  0.93754169  0.40972045  1  0  0.129257  0  0.94498  0  0  0.147821  0  1.010255  0  0  0.149284  0  1.010437  0  0  0.097625  0.146859  0  1.010162  0
H  H21  1  0.76599355  0.06245878  0.59027885  1  0  0.129252  0  0.945  0  0  0.147824  0  1.010278  0  0  0.149289  0  1.010457  0  0  0.097606  0.146862  0  1.010185  0
H  H22  1  0.59852612  0.13206180  0.18576627  1  0  0.087454  0  0.930986  0  0  0.094818  0  0.996734  0  0  0.097033  0  0.994003  0  0  0.131141  0.093797  0  0.997358  0
H  H23  1  0.40147432  0.86793757  0.81423197  1  0  0.087445  0  0.930992  0  0  0.094826  0  0.99672  0  0  0.097042  0  0.99399  0  0  0.131138  0.093805  0  0.997346  0
H  H24  1  0.03806274  0.50747485  0.85870573  1  0  0.12945  0  0.929355  0  0  0.149207  0  0.985079  0  0  0.151616  0  0.984237  0  0  0.096627  0.147518  0  0.985697  0
H  H25  1  0.96193868  0.49252454  0.14129479  1  0  0.129434  0  0.929395  0  0  0.149181  0  0.985119  0  0  0.151592  0  0.984271  0  0  0.09663  0.147493  0  0.985732  0
H  H26  1  0.20604025  0.35814894  0.83352270  1  0  0.117269  0  0.979426  0  0  0.134818  0  1.046001  0  0  0.13614  0  1.046884  0  0  0.0894  0.133603  0  1.045624  0
H  H27  1  0.79396018  0.64185044  0.16647807  1  0  0.117246  0  0.97941  0  0  0.134802  0  1.04596  0  0  0.136123  0  1.046844  0  0  0.089395  0.133587  0  1.045583  0
H  H28  1  0.17216074  0.41638173  0.96221620  1  0  0.135911  0  0.949775  0  0  0.152755  0  1.014385  0  0  0.155049  0  1.013504  0  0  0.098332  0.150971  0  1.015302  0
H  H29  1  0.82783978  0.58361987  0.03778373  1  0  0.135899  0  0.949799  0  0  0.15269  0  1.014454  0  0  0.154979  0  1.013578  0  0  0.098308  0.150906  0  1.015372  0
H  H30  1  0.35288818  0.97322350  0.07360226  1  0  0.10942  0  0.980734  0  0  0.128285  0  1.044388  0  0  0.129313  0  1.045204  0  0  0.088726  0.127472  0  1.043931  0
H  H31  1  0.64711270  0.02677478  0.92640134  1  0  0.109461  0  0.980723  0  0  0.128316  0  1.044384  0  0  0.12934  0  1.045206  0  0  0.088755  0.127503  0  1.043927  0
H  H32  1  0.33210497  0.15684081  0.03931016  1  0  0.118331  0  0.937479  0  0  0.141911  0  0.992334  0  0  0.142267  0  0.99339  0  0  0.096575  0.141959  0  0.99081  0
H  H33  1  0.66789546  0.84315858  0.96069314  1  0  0.118344  0  0.937542  0  0  0.141945  0  0.99236  0  0  0.142301  0  0.993414  0  0  0.096576  0.141991  0  0.990841  0
H  H34  1  0.34330459  0.09591351  0.91831369  1  0  0.107943  0  0.956589  0  0  0.126303  0  1.023645  0  0  0.126772  0  1.024545  0  0  0.088008  0.126008  0  1.02267  0
H  H35  1  0.65669827  0.90408479  0.08168940  1  0  0.107996  0  0.956641  0  0  0.126338  0  1.023697  0  0  0.126807  0  1.024595  0  0  0.088034  0.126048  0  1.022717  0
H  H36  1  0.24801149  0.83441679  0.11029857  1  0  0.131663  0  0.965288  0  0  0.152054  0  1.0242  0  0  0.152861  0  1.025632  0  0  0.099338  0.151299  0  1.023415  0
H  H37  1  0.75198850  0.16558370  0.88970107  1  0  0.131656  0  0.965308  0  0  0.152041  0  1.024205  0  0  0.152847  0  1.025637  0  0  0.099336  0.151286  0  1.023422  0
H  H38  1  0.07391172  0.82798095  0.17029376  1  0  0.136364  0  0.951391  0  0  0.153814  0  1.015517  0  0  0.155616  0  1.015122  0  0  0.104069  0.152598  0  1.015715  0
H  H39  1  0.92608728  0.17201953  0.82970613  1  0  0.136375  0  0.951384  0  0  0.153824  0  1.015504  0  0  0.155627  0  1.015107  0  0  0.104068  0.152609  0  1.015701  0
H  H40  1  0.16241234  0.85988167  0.25544706  1  0  0.136648  0  0.936015  0  0  0.15739  0  0.99717  0  0  0.15876  0  0.997389  0  0  0.102879  0.156436  0  0.996991  0
H  H41  1  0.83758900  0.14011550  0.74455346  1  0  0.136653  0  0.936007  0  0  0.157382  0  0.997173  0  0  0.158752  0  0.997393  0  0  0.102865  0.156429  0  0.996994  0
C  C42  1  0.87598793  0.31344587  0.47461438  1  0  0.45395  0  3.8294  0  0  0.405554  0  4.112022  0  0  0.426675  0  4.122592  0  0  0.332823  0.39154  0  4.105285  0
C  C43  1  0.12401206  0.68655461  0.52538441  1  0  0.454043  0  3.829357  0  0  0.40554  0  4.112113  0  0  0.426661  0  4.12268  0  0  0.332825  0.391526  0  4.105377  0
C  C44  1  0.04386671  0.29210524  0.57521076  1  0  0.3244  0  3.661076  0  0  0.318371  0  3.922389  0  0  0.332918  0  3.936775  0  0  0.145832  0.309007  0  3.912352  0
C  C45  1  0.95613373  0.70789414  0.42478832  1  0  0.324386  0  3.661068  0  0  0.318409  0  3.922332  0  0  0.332956  0  3.936718  0  0  0.145824  0.309046  0  3.912294  0
C  C46  1  0.15820685  0.18838232  0.51743769  1  0  -0.057947  0  3.671413  0  0  -0.041247  0  3.922124  0  0  -0.05203  0  3.948373  0  0  -0.00847  -0.034499  0  3.904732  0
C  C47  1  0.84179215  0.81161815  0.48256051  1  0  -0.057965  0  3.671434  0  0  -0.041326  0  3.922209  0  0  -0.052109  0  3.948459  0  0  -0.008475  -0.034577  0  3.904817  0
C  C48  1  0.12578036  0.15216087  0.43227014  1  0  0.241165  0  3.658712  0  0  0.220281  0  3.92276  0  0  0.23228  0  3.939157  0  0  0.134193  0.212637  0  3.911628  0
C  C49  1  0.87421864  0.84783960  0.56772891  1  0  0.24119  0  3.658652  0  0  0.220291  0  3.922761  0  0  0.23229  0  3.939157  0  0  0.134203  0.212645  0  3.911631  0
C  C50  1  0.78363972  0.28283807  0.35381437  1  0  0.232857  0  3.713106  0  0  0.182742  0  4.00071  0  0  0.197143  0  4.012798  0  0  0.149177  0.173053  0  3.992961  0
C  C51  1  0.21635937  0.71716463  0.64618468  1  0  0.232818  0  3.713187  0  0  0.182697  0  4.000766  0  0  0.197096  0  4.012854  0  0  0.149169  0.173008  0  3.993021  0
C  C52  1  0.07485799  0.33765063  0.66449928  1  0  -0.385953  0  3.6888  0  0  -0.46396  0  3.925485  0  0  -0.468186  0  3.930892  0  0  -0.245565  -0.460645  0  3.921574  0
C  C53  1  0.92514244  0.66234874  0.33549980  1  0  -0.38589  0  3.688775  0  0  -0.463894  0  3.925451  0  0  -0.46812  0  3.930862  0  0  -0.245527  -0.460577  0  3.921529  0
C  C54  1  0.31220469  0.11786594  0.54604800  1  0  -0.307057  0  3.730741  0  0  -0.387711  0  3.962769  0  0  -0.38849  0  3.975846  0  0  -0.239699  -0.386957  0  3.954053  0
C  C55  1  0.68779431  0.88213453  0.45395020  1  0  -0.307038  0  3.73074  0  0  -0.387643  0  3.962764  0  0  -0.388422  0  3.97584  0  0  -0.239668  -0.386889  0  3.954045  0
C  C56  1  0.23119390  0.04966154  0.36213567  1  0  -0.366803  0  3.712728  0  0  -0.449214  0  3.952916  0  0  -0.451869  0  3.958461  0  0  -0.23599  -0.44734  0  3.949448  0
C  C57  1  0.76880563  0.95034005  0.63786283  1  0  -0.366708  0  3.712764  0  0  -0.449159  0  3.952966  0  0  -0.451808  0  3.958504  0  0  -0.23597  -0.447284  0  3.9495  0
C  C58  1  0.84244235  0.25771610  0.05720734  1  0  0.461507  0  3.827649  0  0  0.411104  0  4.11361  0  0  0.432046  0  4.124711  0  0  0.336681  0.397503  0  4.105839  0
C  C59  1  0.15755907  0.74228329  0.94279149  1  0  0.461498  0  3.827633  0  0  0.41108  0  4.113622  0  0  0.43202  0  4.124728  0  0  0.336674  0.397479  0  4.105854  0
C  C60  1  0.04994512  0.29500869  0.97911703  1  0  0.317023  0  3.682484  0  0  0.309563  0  3.946306  0  0  0.324281  0  3.960425  0  0  0.142172  0.29985  0  3.936576  0
C  C61  1  0.95005631  0.70499070  0.02088349  1  0  0.317091  0  3.682371  0  0  0.309639  0  3.946166  0  0  0.324357  0  3.960286  0  0  0.142212  0.299932  0  3.936431  0
C  C62  1  0.13730500  0.14145751  0.03335159  1  0  -0.070199  0  3.692373  0  0  -0.053148  0  3.945412  0  0  -0.063609  0  3.970554  0  0  -0.011373  -0.046779  0  3.929035  0
C  C63  1  0.86269588  0.85854078  0.96665201  1  0  -0.070175  0  3.692329  0  0  -0.053171  0  3.945385  0  0  -0.063631  0  3.970527  0  0  -0.011393  -0.046803  0  3.92901  0
C  C64  1  0.06967229  0.04510137  0.10029250  1  0  0.246313  0  3.655504  0  0  0.220279  0  3.930587  0  0  0.233157  0  3.945173  0  0  0.133338  0.211772  0  3.920631  0
C  C65  1  0.93032913  0.95489803  0.89970802  1  0  0.246295  0  3.655511  0  0  0.220336  0  3.930492  0  0  0.233214  0  3.945078  0  0  0.13337  0.211829  0  3.92054  0
C  C66  1  0.69880435  0.14855425  0.15030272  1  0  0.221921  0  3.736574  0  0  0.169378  0  4.027216  0  0  0.183579  0  4.039134  0  0  0.153436  0.160109  0  4.018484  0
C  C67  1  0.30119564  0.85144624  0.84969523  1  0  0.221943  0  3.73657  0  0  0.16939  0  4.027205  0  0  0.183592  0  4.039123  0  0  0.153462  0.160124  0  4.018477  0
C  C68  1  0.11999368  0.40006154  0.90396584  1  0  -0.37685  0  3.677569  0  0  -0.450471  0  3.907141  0  0  -0.455246  0  3.913643  0  0  -0.241793  -0.44686  0  3.902841  0
C  C69  1  0.88000775  0.59993785  0.09603468  1  0  -0.376832  0  3.677563  0  0  -0.450381  0  3.907119  0  0  -0.455151  0  3.913629  0  0  -0.241785  -0.446772  0  3.902816  0
C  C70  1  0.29970304  0.08770336  0.01599442  1  0  -0.311886  0  3.728767  0  0  -0.387893  0  3.958093  0  0  -0.389198  0  3.971175  0  0  -0.241173  -0.386788  0  3.949212  0
C  C71  1  0.70029783  0.91229493  0.98400917  1  0  -0.312006  0  3.728941  0  0  -0.388004  0  3.958293  0  0  -0.389304  0  3.971375  0  0  -0.241228  -0.3869  0  3.949411  0
C  C72  1  0.14246491  0.88327526  0.16132225  1  0  -0.366279  0  3.673725  0  0  -0.447282  0  3.910881  0  0  -0.450042  0  3.916714  0  0  -0.236102  -0.445056  0  3.906783  0
C  C73  1  0.85753409  0.11672521  0.83867764  1  0  -0.366294  0  3.673735  0  0  -0.447293  0  3.910891  0  0  -0.450053  0  3.916724  0  0  -0.236089  -0.445069  0  3.906796  0
C  C74  1  0.51947977  0.67203591  0.18180308  1  0  0.3106  0  4.003084  0  0  0.291907  0  4.30081  0  0  0.313056  0  4.315322  0  0  0.152831  0.277454  0  4.290633  0
C  C75  1  0.48051823  0.32796456  0.81819538  1  0  0.310542  0  4.003055  0  0  0.291846  0  4.300797  0  0  0.312995  0  4.315311  0  0  0.152788  0.277391  0  4.290619  0
C  C76  1  0.39328470  0.40149175  0.31509465  1  0  0.312589  0  4.011234  0  0  0.290815  0  4.318252  0  0  0.313274  0  4.331133  0  0  0.14812  0.275757  0  4.30884  0
C  C77  1  0.60670944  0.59851089  0.68490145  1  0  0.312831  0  4.011354  0  0  0.291063  0  4.318345  0  0  0.31352  0  4.331218  0  0  0.14828  0.276008  0  4.308942  0
S  S78  1  0.50967234  0.73472039  0.28995116  1  0  -0.356003  0  2.135359  0  0  -0.320323  0  2.459134  0  0  -0.337024  0  2.452211  0  0  -0.139656  -0.30744  0  2.462845  0
S  S79  1  0.49032521  0.26528118  0.71004953  1  0  -0.355948  0  2.135435  0  0  -0.320257  0  2.459202  0  0  -0.336957  0  2.45228  0  0  -0.139625  -0.307375  0  2.462911  0
S  S80  1  0.32148314  0.40339935  0.20885274  1  0  -0.3427  0  2.115058  0  0  -0.313331  0  2.437593  0  0  -0.329546  0  2.430202  0  0  -0.147396  -0.302057  0  2.441918  0
S  S81  1  0.67851694  0.59660337  0.79114943  1  0  -0.342841  0  2.114722  0  0  -0.31348  0  2.437254  0  0  -0.329699  0  2.429864  0  0  -0.147459  -0.302203  0  2.441582  0
N  N82  1  0.74757829  0.35490506  0.43686527  1  0  -0.500463  0  3.132748  0  0  -0.436259  0  3.417564  0  0  -0.460787  0  3.430091  0  0  -0.350081  -0.419985  0  3.409479  0
N  N83  1  0.25242125  0.64509653  0.56313407  1  0  -0.500474  0  3.132754  0  0  -0.436238  0  3.417605  0  0  -0.460766  0  3.430128  0  0  -0.350082  -0.419962  0  3.409518  0
N  N84  1  0.90501239  0.35241883  0.55434529  1  0  -0.419173  0  3.002223  0  0  -0.386909  0  3.272182  0  0  -0.404162  0  3.283273  0  0  -0.306624  -0.376335  0  3.264895  0
N  N85  1  0.09498715  0.64758277  0.44565405  1  0  -0.41923  0  3.002251  0  0  -0.386942  0  3.272239  0  0  -0.404195  0  3.283328  0  0  -0.306646  -0.376368  0  3.264951  0
N  N86  1  0.98316388  0.21684447  0.41269985  1  0  -0.047372  0  3.595376  0  0  0.039121  0  3.808812  0  0  0.026631  0  3.831868  0  0  -0.110924  0.04693  0  3.793526  0
N  N87  1  0.01683610  0.78315601  0.58729894  1  0  -0.047388  0  3.595279  0  0  0.039156  0  3.808728  0  0  0.026665  0  3.831784  0  0  -0.110906  0.046966  0  3.793443  0
N  N88  1  0.92468711  0.19705206  0.33516993  1  0  -0.281805  0  2.812788  0  0  -0.27955  0  3.091985  0  0  -0.289207  0  3.106374  0  0  -0.236117  -0.273192  0  3.082465  0
N  N89  1  0.07531243  0.80294953  0.66482941  1  0  -0.281803  0  2.81283  0  0  -0.279563  0  3.092034  0  0  -0.289219  0  3.106421  0  0  -0.236127  -0.273205  0  3.082517  0
N  N90  1  0.69976318  0.28378324  0.08345519  1  0  -0.494012  0  3.153961  0  0  -0.427591  0  3.440274  0  0  -0.452241  0  3.453009  0  0  -0.35135  -0.41093  0  3.431453  0
N  N91  1  0.30023735  0.71621836  0.91654221  1  0  -0.494042  0  3.154004  0  0  -0.427605  0  3.440291  0  0  -0.452255  0  3.453027  0  0  -0.351381  -0.410945  0  3.431474  0
N  N92  1  0.90477909  0.35167715  0.99202319  1  0  -0.423996  0  3.03846  0  0  -0.392295  0  3.316041  0  0  -0.409366  0  3.32667  0  0  -0.307051  -0.381452  0  3.309016  0
N  N93  1  0.09522189  0.64832334  0.00797620  1  0  -0.424018  0  3.03845  0  0  -0.392319  0  3.316042  0  0  -0.409391  0  3.326673  0  0  -0.307053  -0.381477  0  3.309017  0
N  N94  1  0.92089412  0.10748988  0.10996661  1  0  -0.054893  0  3.591294  0  0  0.029316  0  3.80888  0  0  0.016669  0  3.832158  0  0  -0.111673  0.037053  0  3.793397  0
N  N95  1  0.07910587  0.89251060  0.89003218  1  0  -0.054907  0  3.591238  0  0  0.029289  0  3.808802  0  0  0.016642  0  3.832082  0  0  -0.111698  0.037023  0  3.793331  0
N  N96  1  0.82925489  0.03727956  0.17006635  1  0  -0.266907  0  2.832288  0  0  -0.254535  0  3.108582  0  0  -0.264806  0  3.124094  0  0  -0.221151  -0.247539  0  3.098472  0
N  N97  1  0.17074554  0.96271982  0.82993358  1  0  -0.2669  0  2.832269  0  0  -0.254531  0  3.10856  0  0  -0.264802  0  3.124074  0  0  -0.221148  -0.247532  0  3.098454  0
N  N98  1  0.52780715  0.63102859  0.10014846  1  0  -0.540509  0  2.849962  0  0  -0.485345  0  3.122698  0  0  -0.505777  0  3.129841  0  0  -0.389421  -0.471249  0  3.117721  0
N  N99  1  0.47219337  0.36897302  0.89985400  1  0  -0.54051  0  2.84987  0  0  -0.485331  0  3.122582  0  0  -0.505765  0  3.129728  0  0  -0.389396  -0.471234  0  3.117604  0
N  N100  1  0.44487806  0.39754996  0.39392258  1  0  -0.548463  0  2.882567  0  0  -0.492382  0  3.161643  0  0  -0.513249  0  3.166998  0  0  -0.400103  -0.47786  0  3.156878  0
N  N101  1  0.55512192  0.60245054  0.60608127  1  0  -0.54858  0  2.88309  0  0  -0.492515  0  3.162175  0  0  -0.513376  0  3.167521  0  0  -0.400199  -0.477994  0  3.157418  0
