# generated using pymatgen
data_SmPH6C2SO7
_symmetry_space_group_name_H-M   'P 1'
_cell_length_a   7.10137053
_cell_length_b   8.32615309
_cell_length_c   13.09388714
_cell_angle_alpha   90.00014278
_cell_angle_beta   89.99971781
_cell_angle_gamma   103.28194237
_symmetry_Int_Tables_number   1
_chemical_formula_structural   SmPH6C2SO7
_chemical_formula_sum   'Sm4 P4 H24 C8 S4 O28'
_cell_volume   753.49463383
_cell_formula_units_Z   4
loop_
 _symmetry_equiv_pos_site_id
 _symmetry_equiv_pos_as_xyz
  1  'x, y, z'
loop_
 _atom_site_type_symbol
 _atom_site_label
 _atom_site_symmetry_multiplicity
 _atom_site_fract_x
 _atom_site_fract_y
 _atom_site_fract_z
 _atom_site_occupancy
 _atom_site_hle17_bader_spin_density
 _atom_site_hle17_ddec_charge
 _atom_site_hle17_ddec_spin_density
 _atom_site_hle17_ddec_sum_bond_order
 _atom_site_hle17_magmom
 _atom_site_hse06_10hf_bader_spin_density
 _atom_site_hse06_10hf_ddec_charge
 _atom_site_hse06_10hf_ddec_spin_density
 _atom_site_hse06_10hf_ddec_sum_bond_order
 _atom_site_hse06_10hf_magmom
 _atom_site_hse06_bader_spin_density
 _atom_site_hse06_ddec_charge
 _atom_site_hse06_ddec_spin_density
 _atom_site_hse06_ddec_sum_bond_order
 _atom_site_hse06_magmom
 _atom_site_pbe_bader_spin_density
 _atom_site_pbe_cm5_charge
 _atom_site_pbe_ddec_charge
 _atom_site_pbe_ddec_spin_density
 _atom_site_pbe_ddec_sum_bond_order
 _atom_site_pbe_magmom
Sm  Sm0  1  0.24399047  0.49669086  0.92267336  1  0  2.425774  0  1.585211  0  0  2.343615  0  1.929168  0  0  2.380966  0  1.887899  0  0  1.565454  2.316417  0  1.95811  0
Sm  Sm1  1  0.25600879  0.50330844  0.42267133  1  0  2.42579  0  1.585221  0  0  2.343627  0  1.929178  0  0  2.380978  0  1.887908  0  0  1.565433  2.316424  0  1.958115  0
Sm  Sm2  1  0.75600974  0.50330803  0.07732707  1  0  2.425784  0  1.585226  0  0  2.343627  0  1.929187  0  0  2.380978  0  1.887918  0  0  1.565471  2.316435  0  1.958135  0
Sm  Sm3  1  0.74399175  0.49669168  0.57732834  1  0  2.425799  0  1.585243  0  0  2.343636  0  1.929203  0  0  2.380985  0  1.887934  0  0  1.565434  2.316428  0  1.958133  0
P  P4  1  0.27826462  0.63861518  0.64719908  1  0  1.612155  0  4.788611  0  0  1.469274  0  5.292046  0  0  1.519026  0  5.248818  0  0  0.343629  1.434517  0  5.321523  0
P  P5  1  0.22173697  0.36138350  0.14719463  1  0  1.612192  0  4.788616  0  0  1.469322  0  5.292049  0  0  1.519081  0  5.248806  0  0  0.343622  1.434559  0  5.321533  0
P  P6  1  0.72173592  0.36138495  0.35280059  1  0  1.612186  0  4.78859  0  0  1.469305  0  5.292015  0  0  1.519058  0  5.248787  0  0  0.343646  1.434554  0  5.321491  0
P  P7  1  0.77826391  0.63861786  0.85280504  1  0  1.612175  0  4.788567  0  0  1.469303  0  5.291987  0  0  1.519061  0  5.248746  0  0  0.343639  1.434535  0  5.321481  0
H  H8  1  0.27949710  0.22828979  0.78862658  1  0  0.439657  0  0.862351  0  0  0.408125  0  0.927148  0  0  0.418523  0  0.911824  0  0  0.303344  0.400805  0  0.937933  0
H  H9  1  0.22050256  0.77171168  0.28862966  1  0  0.439644  0  0.86237  0  0  0.40812  0  0.927153  0  0  0.418517  0  0.911832  0  0  0.303358  0.400802  0  0.937938  0
H  H10  1  0.72050278  0.77170787  0.21137385  1  0  0.439621  0  0.862396  0  0  0.408107  0  0.927157  0  0  0.418505  0  0.911836  0  0  0.303344  0.400787  0  0.937943  0
H  H11  1  0.77949832  0.22828968  0.71137078  1  0  0.439653  0  0.86236  0  0  0.408137  0  0.927132  0  0  0.418535  0  0.911809  0  0  0.303351  0.400819  0  0.937916  0
H  H12  1  0.48285970  0.25195001  0.84205584  1  0  0.445447  0  0.854741  0  0  0.414447  0  0.917484  0  0  0.424702  0  0.902455  0  0  0.308129  0.407224  0  0.928067  0
H  H13  1  0.01713809  0.74805158  0.34205789  1  0  0.445421  0  0.854767  0  0  0.414407  0  0.917536  0  0  0.424662  0  0.902506  0  0  0.30812  0.407186  0  0.928117  0
H  H14  1  0.51713769  0.74804888  0.15794459  1  0  0.445393  0  0.854809  0  0  0.414379  0  0.917578  0  0  0.424633  0  0.902548  0  0  0.308111  0.407155  0  0.928162  0
H  H15  1  0.98286245  0.25194854  0.65794254  1  0  0.445421  0  0.85477  0  0  0.4144  0  0.91755  0  0  0.424655  0  0.90252  0  0  0.308112  0.407179  0  0.928131  0
H  H16  1  0.11120904  0.89352387  0.55134486  1  0  0.146853  0  0.936436  0  0  0.159235  0  0.992077  0  0  0.162376  0  0.990892  0  0  0.121589  0.156939  0  0.993059  0
H  H17  1  0.38879228  0.10647582  0.05134642  1  0  0.146814  0  0.93646  0  0  0.159215  0  0.992083  0  0  0.162352  0  0.990907  0  0  0.121594  0.156925  0  0.993066  0
H  H18  1  0.88879009  0.10647625  0.44865482  1  0  0.146863  0  0.936443  0  0  0.159238  0  0.992094  0  0  0.16238  0  0.990911  0  0  0.121595  0.156941  0  0.993076  0
H  H19  1  0.61120826  0.89352430  0.94865401  1  0  0.146815  0  0.936455  0  0  0.159214  0  0.992079  0  0  0.162351  0  0.990904  0  0  0.121595  0.156924  0  0.993063  0
H  H20  1  0.33925791  0.93291923  0.49050703  1  0  0.133067  0  0.950477  0  0  0.143539  0  1.013432  0  0  0.146244  0  1.012624  0  0  0.115859  0.141565  0  1.014172  0
H  H21  1  0.16074467  0.06707899  0.99050784  1  0  0.132995  0  0.950581  0  0  0.14349  0  1.013527  0  0  0.146197  0  1.012718  0  0  0.115847  0.141514  0  1.014265  0
H  H22  1  0.66074156  0.06708213  0.50949264  1  0  0.1331  0  0.950493  0  0  0.143568  0  1.013445  0  0  0.146276  0  1.012637  0  0  0.115879  0.141593  0  1.01418  0
H  H23  1  0.83925587  0.93292114  0.00949183  1  0  0.132984  0  0.950583  0  0  0.143485  0  1.01351  0  0  0.146193  0  1.012699  0  0  0.115846  0.141511  0  1.014253  0
H  H24  1  0.28427220  0.89801735  0.72465985  1  0  0.135127  0  0.929997  0  0  0.150241  0  0.98277  0  0  0.152966  0  0.981889  0  0  0.113758  0.148273  0  0.983515  0
H  H25  1  0.21572799  0.10198397  0.22466035  1  0  0.135152  0  0.930014  0  0  0.15028  0  0.982771  0  0  0.153005  0  0.981892  0  0  0.113766  0.148308  0  0.983513  0
H  H26  1  0.71572834  0.10198277  0.27534058  1  0  0.135145  0  0.930033  0  0  0.150242  0  0.982812  0  0  0.152967  0  0.981932  0  0  0.113755  0.148273  0  0.983566  0
H  H27  1  0.78427114  0.89801615  0.77533932  1  0  0.13515  0  0.930016  0  0  0.150276  0  0.982768  0  0  0.153002  0  0.981888  0  0  0.11376  0.148303  0  0.98351  0
H  H28  1  0.50311425  0.90438253  0.65862264  1  0  0.137245  0  0.925212  0  0  0.153245  0  0.977385  0  0  0.155676  0  0.976946  0  0  0.112734  0.151461  0  0.977874  0
H  H29  1  0.99688655  0.09561737  0.15862238  1  0  0.137257  0  0.925205  0  0  0.153262  0  0.977386  0  0  0.155694  0  0.976945  0  0  0.112741  0.151478  0  0.977873  0
H  H30  1  0.49688662  0.09561883  0.34137703  1  0  0.137243  0  0.925205  0  0  0.153235  0  0.977389  0  0  0.155667  0  0.976949  0  0  0.112731  0.151453  0  0.97788  0
H  H31  1  0.00311258  0.90438276  0.84137806  1  0  0.137268  0  0.925206  0  0  0.15327  0  0.977382  0  0  0.155701  0  0.976942  0  0  0.112746  0.151485  0  0.977869  0
C  C32  1  0.26634784  0.94516014  0.56291192  1  0  -0.272334  0  3.638447  0  0  -0.309775  0  3.893403  0  0  -0.315219  0  3.902111  0  0  -0.146458  -0.306003  0  3.887683  0
C  C33  1  0.23365480  0.05483957  0.06291306  1  0  -0.272247  0  3.63838  0  0  -0.309719  0  3.893369  0  0  -0.315167  0  3.902082  0  0  -0.146452  -0.305949  0  3.887648  0
C  C34  1  0.73365270  0.05483998  0.43708852  1  0  -0.272326  0  3.638442  0  0  -0.309762  0  3.893377  0  0  -0.31521  0  3.902087  0  0  -0.146471  -0.305988  0  3.887652  0
C  C35  1  0.76634574  0.94516055  0.93708738  1  0  -0.272226  0  3.638374  0  0  -0.30969  0  3.893339  0  0  -0.315139  0  3.902054  0  0  -0.146451  -0.305921  0  3.887627  0
C  C36  1  0.34486462  0.86393436  0.65275902  1  0  -0.401884  0  3.633387  0  0  -0.422782  0  3.880312  0  0  -0.430989  0  3.887699  0  0  -0.15893  -0.417135  0  3.875477  0
C  C37  1  0.15513726  0.13606556  0.15275973  1  0  -0.401924  0  3.6334  0  0  -0.422849  0  3.880368  0  0  -0.431053  0  3.887749  0  0  -0.158939  -0.417188  0  3.87551  0
C  C38  1  0.65513592  0.13606576  0.34724065  1  0  -0.40193  0  3.633441  0  0  -0.422795  0  3.880335  0  0  -0.431001  0  3.887722  0  0  -0.15894  -0.417151  0  3.875509  0
C  C39  1  0.84486295  0.86393333  0.84723994  1  0  -0.401961  0  3.633437  0  0  -0.422858  0  3.880361  0  0  -0.43106  0  3.887736  0  0  -0.158949  -0.417208  0  3.875508  0
S  S40  1  0.28610758  0.15881363  0.58534082  1  0  1.41773  0  5.453566  0  0  1.317416  0  5.982649  0  0  1.363596  0  5.95883  0  0  0.554298  1.285477  0  5.998324  0
S  S41  1  0.21388823  0.84118244  0.08533867  1  0  1.417797  0  5.453716  0  0  1.317509  0  5.982794  0  0  1.363689  0  5.958973  0  0  0.5543  1.285564  0  5.998463  0
S  S42  1  0.71389296  0.84118649  0.41465962  1  0  1.41762  0  5.453698  0  0  1.317326  0  5.982771  0  0  1.363508  0  5.958951  0  0  0.554241  1.285383  0  5.998449  0
S  S43  1  0.78611231  0.15881768  0.91466176  1  0  1.417758  0  5.453688  0  0  1.317481  0  5.982761  0  0  1.363661  0  5.958943  0  0  0.554291  1.285536  0  5.998433  0
O  O44  1  0.25297586  0.57913110  0.75691210  1  0  -0.959074  0  1.942925  0  0  -0.897879  0  2.221174  0  0  -0.921373  0  2.196983  0  0  -0.480235  -0.881223  0  2.237562  0
O  O45  1  0.24702084  0.42087400  0.25691225  1  0  -0.959119  0  1.942811  0  0  -0.897943  0  2.221084  0  0  -0.921437  0  2.196892  0  0  -0.480285  -0.881284  0  2.237477  0
O  O46  1  0.74702468  0.42086903  0.24308757  1  0  -0.95912  0  1.942932  0  0  -0.897933  0  2.221188  0  0  -0.921428  0  2.196997  0  0  -0.480256  -0.881275  0  2.237581  0
O  O47  1  0.75297829  0.57912612  0.74308742  1  0  -0.959132  0  1.942807  0  0  -0.897962  0  2.221088  0  0  -0.921455  0  2.196897  0  0  -0.480305  -0.881307  0  2.237475  0
O  O48  1  0.09391257  0.58999558  0.57957461  1  0  -1.051465  0  2.004268  0  0  -0.986798  0  2.282183  0  0  -1.010929  0  2.260078  0  0  -0.496055  -0.969547  0  2.296991  0
O  O49  1  0.40608604  0.41000541  0.07957432  1  0  -1.051423  0  2.004324  0  0  -0.98675  0  2.282235  0  0  -1.010881  0  2.26013  0  0  -0.49603  -0.969494  0  2.29706  0
O  O50  1  0.90608797  0.41000454  0.42042507  1  0  -1.05145  0  2.004296  0  0  -0.986786  0  2.282222  0  0  -1.010917  0  2.260116  0  0  -0.496051  -0.96952  0  2.297003  0
O  O51  1  0.59391310  0.58999471  0.92042612  1  0  -1.051433  0  2.00433  0  0  -0.986766  0  2.282249  0  0  -1.010896  0  2.260143  0  0  -0.496042  -0.969501  0  2.29705  0
O  O52  1  0.43310575  0.57375964  0.58621082  1  0  -1.088481  0  2.084935  0  0  -1.029816  0  2.37015  0  0  -1.053589  0  2.34779  0  0  -0.509334  -1.012787  0  2.385048  0
O  O53  1  0.06689494  0.42623890  0.08620841  1  0  -1.088515  0  2.084975  0  0  -1.02987  0  2.370238  0  0  -1.053643  0  2.347877  0  0  -0.509331  -1.012818  0  2.385122  0
O  O54  1  0.56689479  0.42624048  0.41378885  1  0  -1.088479  0  2.084927  0  0  -1.029821  0  2.37015  0  0  -1.053596  0  2.34779  0  0  -0.509337  -1.01279  0  2.385046  0
O  O55  1  0.93310560  0.57376122  0.91379126  1  0  -1.088483  0  2.08492  0  0  -1.02986  0  2.370228  0  0  -1.053636  0  2.347871  0  0  -0.509345  -1.01281  0  2.385101  0
O  O56  1  0.16927725  0.16693455  0.67787118  1  0  -0.679505  0  2.008431  0  0  -0.606869  0  2.240424  0  0  -0.629532  0  2.226321  0  0  -0.311479  -0.591013  0  2.249788  0
O  O57  1  0.33073105  0.83306913  0.17787329  1  0  -0.679573  0  2.008277  0  0  -0.60698  0  2.240303  0  0  -0.629641  0  2.226196  0  0  -0.311496  -0.591113  0  2.249665  0
O  O58  1  0.83072570  0.83306928  0.32212925  1  0  -0.679469  0  2.008479  0  0  -0.606852  0  2.240455  0  0  -0.629517  0  2.226354  0  0  -0.311443  -0.590994  0  2.249825  0
O  O59  1  0.66926949  0.16693099  0.82212638  1  0  -0.679511  0  2.008206  0  0  -0.606974  0  2.240267  0  0  -0.629638  0  2.226163  0  0  -0.311463  -0.59111  0  2.249626  0
O  O60  1  0.49161038  0.23585906  0.60206215  1  0  -0.744509  0  2.052423  0  0  -0.69113  0  2.327911  0  0  -0.711807  0  2.312397  0  0  -0.376924  -0.676669  0  2.338269  0
O  O61  1  0.00839507  0.76414198  0.10206349  1  0  -0.744484  0  2.052543  0  0  -0.691107  0  2.328038  0  0  -0.711778  0  2.312508  0  0  -0.376886  -0.676637  0  2.338394  0
O  O62  1  0.50839016  0.76414106  0.39793752  1  0  -0.744488  0  2.052442  0  0  -0.691127  0  2.327938  0  0  -0.711804  0  2.312421  0  0  -0.376925  -0.676658  0  2.338294  0
O  O63  1  0.99160406  0.23585815  0.89793695  1  0  -0.744503  0  2.052529  0  0  -0.691115  0  2.328016  0  0  -0.711791  0  2.312491  0  0  -0.376914  -0.676648  0  2.33837  0
O  O64  1  0.20252906  0.22355310  0.49483234  1  0  -0.761624  0  1.980803  0  0  -0.714838  0  2.251785  0  0  -0.733822  0  2.234069  0  0  -0.388067  -0.701492  0  2.263641  0
O  O65  1  0.29747308  0.77644882  0.99483467  1  0  -0.76158  0  1.980948  0  0  -0.714809  0  2.251949  0  0  -0.733792  0  2.234233  0  0  -0.388022  -0.701454  0  2.263803  0
O  O66  1  0.79747182  0.77644825  0.50516810  1  0  -0.761587  0  1.980901  0  0  -0.7148  0  2.251871  0  0  -0.733786  0  2.234155  0  0  -0.388035  -0.70145  0  2.263723  0
O  O67  1  0.70252746  0.22355130  0.00516501  1  0  -0.761579  0  1.980981  0  0  -0.714797  0  2.251965  0  0  -0.733782  0  2.23425  0  0  -0.388018  -0.701446  0  2.263825  0
O  O68  1  0.35194869  0.27218903  0.85124505  1  0  -0.934193  0  1.88032  0  0  -0.899223  0  2.091338  0  0  -0.91679  0  2.059101  0  0  -0.671308  -0.886809  0  2.113721  0
O  O69  1  0.14805392  0.72781505  0.35124672  1  0  -0.934179  0  1.8804  0  0  -0.899198  0  2.091394  0  0  -0.916764  0  2.05916  0  0  -0.671333  -0.886792  0  2.113779  0
O  O70  1  0.64804636  0.72780123  0.14875844  1  0  -0.934117  0  1.880438  0  0  -0.899163  0  2.091474  0  0  -0.916731  0  2.05924  0  0  -0.671303  -0.886743  0  2.113858  0
O  O71  1  0.85194696  0.27218631  0.64875295  1  0  -0.934184  0  1.88038  0  0  -0.899205  0  2.091384  0  0  -0.916773  0  2.059149  0  0  -0.671313  -0.886804  0  2.113767  0
