# generated using pymatgen
data_Al3H22C45O14
_symmetry_space_group_name_H-M   'P 1'
_cell_length_a   12.17572017
_cell_length_b   12.20200110
_cell_length_c   26.94371872
_cell_angle_alpha   82.01988380
_cell_angle_beta   82.48307723
_cell_angle_gamma   65.28738428
_symmetry_Int_Tables_number   1
_chemical_formula_structural   Al3H22C45O14
_chemical_formula_sum   'Al6 H44 C90 O28'
_cell_volume   3589.35306556
_cell_formula_units_Z   2
loop_
 _symmetry_equiv_pos_site_id
 _symmetry_equiv_pos_as_xyz
  1  'x, y, z'
loop_
 _atom_site_type_symbol
 _atom_site_label
 _atom_site_symmetry_multiplicity
 _atom_site_fract_x
 _atom_site_fract_y
 _atom_site_fract_z
 _atom_site_occupancy
 _atom_site_pbe_bader_charge
 _atom_site_pbe_bader_spin_density
 _atom_site_pbe_cm5_charge
 _atom_site_pbe_ddec_charge
 _atom_site_pbe_ddec_spin_density
 _atom_site_pbe_ddec_sum_bond_order
 _atom_site_pbe_magmom
Al  Al0  1  0.40991278  0.39279131  0.51322822  1  2.496762  0  0.40409  1.680718  0  2.553533  0
Al  Al1  1  0.66015135  0.42505572  0.49414330  1  2.478789  0  0.506844  1.660447  0  2.512154  0
Al  Al2  1  0.42790430  0.65048110  0.49840103  1  2.481883  0  0.510943  1.662487  0  2.508434  0
Al  Al3  1  0.92071408  0.94685952  0.97733775  1  2.496852  0  0.405953  1.682389  0  2.551666  0
Al  Al4  1  0.91582543  0.68382663  0.99680469  1  2.480885  0  0.509569  1.66268  0  2.508827  0
Al  Al5  1  0.67727336  0.90163888  0.99334814  1  2.478814  0  0.50538  1.660613  0  2.517626  0
H  H6  1  0.50623234  0.34421498  0.19707109  1  0.064501  0  0.099476  0.086483  0  1.022532  0
H  H7  1  0.37217781  0.81021888  0.20957934  1  0.029934  0  0.090851  0.123733  0  1.010519  0
H  H8  1  0.37010837  0.72819177  0.16041232  1  0.033992  0  0.094027  0.129688  0  0.99403  0
H  H9  1  0.25749526  0.87660543  0.16616806  1  0.044421  0  0.098563  0.137014  0  0.987061  0
H  H10  1  0.94967164  0.11415763  0.22023950  1  0.064032  0  0.087289  0.126695  0  1.047018  0
H  H11  1  0.92603830  0.01749854  0.18295337  1  0.050103  0  0.092021  0.130469  0  0.999509  0
H  H12  1  0.88308237  0.17285395  0.16173970  1  0.041146  0  0.096326  0.135745  0  0.985294  0
H  H13  1  0.37010078  0.78278196  0.77405459  1  0.039888  0  0.095408  0.135627  0  0.994865  0
H  H14  1  0.42960567  0.67968524  0.82740951  1  0.042551  0  0.094122  0.131696  0  0.99417  0
H  H15  1  0.43006375  0.82626373  0.82078749  1  0.04555  0  0.096927  0.135113  0  1.000691  0
H  H16  1  0.51065503  0.96297320  0.78343368  1  0.037333  0  0.099338  0.096666  0  1.008209  0
H  H17  1  0.70491272  0.33802015  0.24451736  1  0.060847  0  0.101428  0.096937  0  0.986234  0
H  H18  1  0.39625548  0.17811466  0.75484045  1  0.047999  0  0.100598  0.097265  0  0.992642  0
H  H19  1  0.36743246  0.24230620  0.66350349  1  0.050256  0  0.101344  0.09933  0  0.997683  0
H  H20  1  0.45136712  0.08888176  0.60179587  1  0.079989  0  0.106002  0.111795  0  0.994318  0
H  H21  1  0.56341794  0.87155861  0.63051522  1  0.040588  0  0.092796  0.093552  0  1.05044  0
H  H22  1  0.85717849  0.35333091  0.70824646  1  0.022327  0  0.097939  0.098221  0  1.002506  0
H  H23  1  0.97452743  0.13708757  0.73546609  1  0.071382  0  0.098476  0.09433  0  0.996015  0
H  H24  1  0.99718649  0.06853107  0.82705119  1  0.110041  0  0.103735  0.104371  0  0.99175  0
H  H25  1  0.90258314  0.21620518  0.89023722  1  0.131104  0  0.105796  0.121077  0  1.000185  0
H  H26  1  0.78301530  0.43433275  0.86303895  1  0.076437  0  0.09189  0.091047  0  1.048565  0
H  H27  1  0.83157682  0.83458289  0.72138118  1  0.054456  0  0.097263  0.138681  0  0.984878  0
H  H28  1  0.56662926  0.53338950  0.73674370  1  0.064044  0  0.107455  0.108175  0  0.972406  0
H  H29  1  0.75428352  0.86963744  0.78163788  1  0.042255  0  0.090523  0.126494  0  1.024383  0
H  H30  1  0.89241750  0.73783108  0.77596179  1  0.049703  0  0.090902  0.129396  0  1.01279  0
H  H31  1  0.21187654  0.97911252  0.23920026  1  0.039883  0  0.098867  0.097716  0  1.033004  0
H  H32  1  0.13934478  0.16986802  0.27958830  1  0.063807  0  0.097957  0.091105  0  1.002979  0
H  H33  1  0.97781027  0.21191064  0.35072010  1  0.05543  0  0.104844  0.102539  0  0.990618  0
H  H34  1  0.89329478  0.05927154  0.38161061  1  0.081685  0  0.102945  0.100935  0  1.001026  0
H  H35  1  0.96811886  0.86685532  0.34208809  1  0.038696  0  0.102081  0.099796  0  0.996423  0
H  H36  1  0.47384183  0.52230940  0.22692586  1  0.010207  0  0.090374  0.120928  0  1.019502  0
H  H37  1  0.44924125  0.59730580  0.28188654  1  0.018733  0  0.09127  0.126158  0  1.015379  0
H  H38  1  0.43203325  0.45912386  0.28624670  1  0.028585  0  0.096521  0.139013  0  0.993654  0
H  H39  1  0.87784860  0.57166743  0.70166525  1  0.085235  0  0.108579  0.110789  0  0.969782  0
H  H40  1  0.26992677  0.37586516  0.24151764  1  0.041287  0  0.091541  0.123701  0  1.012618  0
H  H41  1  0.15352025  0.44492773  0.19920788  1  0.05195  0  0.097159  0.134657  0  0.98774  0
H  H42  1  0.30149677  0.43620377  0.17985458  1  0.039054  0  0.094288  0.128735  0  1.001397  0
H  H43  1  0.04497774  0.58002824  0.29661300  1  0.075795  0  0.103886  0.100317  0  0.981565  0
H  H44  1  0.95127433  0.80579216  0.23691472  1  0.094328  0  0.10184  0.095421  0  0.996653  0
H  H45  1  0.59353589  0.99547036  0.24356263  1  0.062223  0  0.099886  0.088933  0  0.996254  0
H  H46  1  0.79269046  0.98870233  0.29059443  1  0.059351  0  0.09724  0.090439  0  1.027328  0
H  H47  1  0.44404954  0.21715840  0.28507119  1  0.080682  0  0.103108  0.091986  0  0.993846  0
H  H48  1  0.27392856  0.31304974  0.55426926  1  0.574759  0  0.297291  0.387254  0  0.917988  0
H  H49  1  0.04422132  0.04414300  0.98903610  1  0.586869  0  0.298532  0.386758  0  0.91684  0
C  C50  1  0.61247310  0.28652952  0.43391054  1  1.643896  0  0.277702  0.707299  0  4.173216  0
C  C51  1  0.14625527  0.69635644  0.19805455  1  0.108292  0  0.002694  0.041828  0  3.80351  0
C  C52  1  0.09855612  0.62546593  0.27450735  1  -0.03405  0  -0.071572  -0.113248  0  3.648796  0
C  C53  1  0.61254895  0.62300094  0.41805554  1  1.663263  0  0.286197  0.696937  0  4.184042  0
C  C54  1  0.18472992  0.66759191  0.29777958  1  0.089752  0  0.006109  0.057756  0  3.813617  0
C  C55  1  0.19908403  0.57033233  0.23140521  1  0.027484  0  0.003838  0.110888  0  3.650056  0
C  C56  1  0.28593272  0.61420757  0.25355253  1  0.009473  0  0.005926  0.078326  0  3.623617  0
C  C57  1  0.12146333  0.71182853  0.14716422  1  -0.565724  0  -0.016038  0.000299  0  4.068681  0
C  C58  1  0.20884895  0.65141828  0.34861744  1  -0.1905  0  -0.016014  -0.006461  0  4.080564  0
C  C59  1  0.72864538  0.06716706  0.26935322  1  -0.007629  0  -0.068672  -0.111384  0  3.601072  0
C  C60  1  0.61810160  0.07177491  0.24423189  1  -0.023075  0  -0.069187  -0.069899  0  3.64221  0
C  C61  1  0.66055728  0.66638358  0.26885829  1  0.004682  0  0.00344  -0.005653  0  4.200048  0
C  C62  1  0.67425970  0.09812170  0.10127555  1  0.194777  0  -0.050129  -0.221722  0  3.98504  0
C  C63  1  0.63278962  0.24049070  0.38581470  1  0.278487  0  -0.044407  -0.213965  0  3.976041  0
C  C64  1  0.76410733  0.13892890  0.22172741  1  0.044897  0  0.006551  0.150158  0  3.650209  0
C  C65  1  0.28336481  0.60616234  0.44001332  1  1.653997  0  0.277559  0.71375  0  4.166079  0
C  C66  1  0.65255416  0.14295686  0.19545094  1  0.123189  0  0.002484  0.073237  0  3.805009  0
C  C67  1  0.68000984  0.26188750  0.24378486  1  -0.02332  0  -0.069508  -0.116523  0  3.606533  0
C  C68  1  0.64526788  0.19084295  0.29270725  1  0.092715  0  0.007553  0.117065  0  3.81023  0
C  C69  1  0.56966673  0.26607748  0.21863384  1  -0.027653  0  -0.070481  -0.080397  0  3.663227  0
C  C70  1  0.53498286  0.19453044  0.26623464  1  -0.034716  0  -0.069749  -0.080897  0  3.635553  0
C  C71  1  0.65944505  0.11966199  0.14510330  1  -0.488589  0  -0.018816  -0.012108  0  4.081468  0
C  C72  1  0.64947882  0.65882795  0.31918412  1  -0.397318  0  -0.002613  0.026374  0  4.252141  0
C  C73  1  0.64047814  0.21610129  0.34275187  1  -0.535068  0  -0.014443  -0.016798  0  4.064071  0
C  C74  1  0.61319616  0.77311563  0.72754744  1  0.024992  0  0.012577  -0.02553  0  3.611827  0
C  C75  1  0.56458278  0.70109393  0.77197680  1  0.032664  0  0.009208  0.128803  0  3.668674  0
C  C76  1  0.71064085  0.67253022  0.89106208  1  -0.123871  0  -0.049092  -0.24287  0  3.953217  0
C  C77  1  0.62795019  0.27595495  0.57537877  1  1.678252  0  0.278611  0.69025  0  4.186688  0
C  C78  1  0.64745474  0.63560854  0.60221143  1  0.161506  0  -0.04979  -0.238349  0  3.96392  0
C  C79  1  0.73896354  0.72227551  0.75189111  1  0.040107  0  0.016419  0.144228  0  3.64499  0
C  C80  1  0.68885524  0.65159828  0.79746241  1  0.119299  0  0.004851  -0.000903  0  3.764807  0
C  C81  1  0.78807685  0.60896741  0.72195289  1  -0.034437  0  -0.065249  -0.136998  0  3.610243  0
C  C82  1  0.66505857  0.65767201  0.69632734  1  0.101458  0  0.008413  0.085615  0  3.813638  0
C  C83  1  0.63784490  0.65019346  0.36529599  1  0.324223  0  0.011724  -0.118313  0  3.80263  0
C  C84  1  0.74088844  0.53693144  0.76595070  1  0.002032  0  0.014094  0.062397  0  3.672558  0
C  C85  1  0.61583098  0.58787038  0.74170429  1  -0.002311  0  -0.057098  -0.120551  0  3.571858  0
C  C86  1  0.70097342  0.65913611  0.84792799  1  -0.169169  0  0.007517  0.052169  0  4.040079  0
C  C87  1  0.65466609  0.64909285  0.64560973  1  -0.422839  0  0.003896  0.027927  0  4.042093  0
C  C88  1  0.10746410  0.70319383  0.86479441  1  -0.018928  0  0.009468  -0.121518  0  3.810097  0
C  C89  1  0.62352175  0.61040958  0.55571340  1  1.611284  0  0.2818  0.726987  0  4.154355  0
C  C90  1  0.13714709  0.68511621  0.82037514  1  -0.063711  0  -0.002425  0.027147  0  4.253466  0
C  C91  1  0.16619065  0.66725513  0.77157814  1  -0.202427  0  0.005066  -0.001746  0  4.194523  0
C  C92  1  0.18920097  0.65310228  0.72633865  1  0.151307  0  0.003309  -0.002044  0  4.187234  0
C  C93  1  0.21586737  0.63784883  0.67724911  1  -0.301622  0  -0.004897  0.027888  0  4.253366  0
C  C94  1  0.13328985  0.79470553  0.26434584  1  -0.009637  0  0.009916  0.008977  0  3.644685  0
C  C95  1  0.24216840  0.62386720  0.63234859  1  0.231968  0  0.00556  -0.127247  0  3.818725  0
C  C96  1  0.68548683  0.09896309  0.86103773  1  0.014644  0  0.005632  -0.134215  0  3.824508  0
C  C97  1  0.68174119  0.12484333  0.81550429  1  -0.13993  0  0.003208  0.039306  0  4.24812  0
C  C98  1  0.68010944  0.15062579  0.76572143  1  0.164776  0  0.010387  0.004961  0  4.18174  0
C  C99  1  0.68011269  0.17096351  0.71964350  1  -0.132484  0  0.010753  0.008422  0  4.177154  0
C  C100  1  0.67446753  0.19712633  0.67000148  1  0.011962  0  0.00224  0.037111  0  4.245728  0
C  C101  1  0.29145533  0.59931076  0.58159221  1  1.68372  0  0.277525  0.693317  0  4.188654  0
C  C102  1  0.66370118  0.22398968  0.62480244  1  -0.050889  0  0.004549  -0.132997  0  3.82352  0
C  C103  1  0.04931201  0.74240295  0.05576691  1  1.656274  0  0.275758  0.718929  0  4.158382  0
C  C104  1  0.71985323  0.71516078  0.07358644  1  1.694925  0  0.284636  0.697639  0  4.18318  0
C  C105  1  0.23422230  0.73912181  0.22074290  1  0.034312  0  0.006207  0.08348  0  3.633007  0
C  C106  1  0.70874702  0.05179552  0.05299687  1  1.624298  0  0.275103  0.715818  0  4.163344  0
C  C107  1  0.05307473  0.73612737  0.91421626  1  1.698824  0  0.278579  0.686804  0  4.192788  0
C  C108  1  0.73384654  0.70134535  0.93683500  1  1.60359  0  0.280467  0.725652  0  4.15646  0
C  C109  1  0.71044732  0.04923630  0.91171865  1  1.657961  0  0.282179  0.686487  0  4.192114  0
C  C110  1  0.69315831  0.68710327  0.12613127  1  0.193917  0  0.009878  -0.122782  0  3.805885  0
C  C111  1  0.68068451  0.67840006  0.17223194  1  -0.202819  0  -0.002677  0.028617  0  4.250821  0
C  C112  1  0.66922191  0.67102529  0.22254226  1  -0.07333  0  0.004432  -0.005006  0  4.197598  0
C  C113  1  0.31231104  0.79208978  0.18778843  1  -0.050661  0  -0.236893  -0.406109  0  3.990035  0
C  C114  1  0.88744170  0.10930282  0.19542223  1  -0.085861  0  -0.239686  -0.417398  0  3.978702  0
C  C115  1  0.44219145  0.75004578  0.80001291  1  -0.046964  0  -0.2366  -0.417615  0  3.988526  0
C  C116  1  0.09768402  0.72262193  0.10362408  1  0.238818  0  -0.05019  -0.225504  0  3.967591  0
C  C117  1  0.54515142  0.90122828  0.70898791  1  -0.024322  0  -0.017747  0.069627  0  4.012225  0
C  C118  1  0.49696458  0.98952737  0.74357722  1  -0.028344  0  -0.095435  -0.138325  0  3.994382  0
C  C119  1  0.43254223  0.11111171  0.72742597  1  -0.003468  0  -0.096614  -0.091302  0  4.061914  0
C  C120  1  0.41591597  0.14702492  0.67642882  1  -0.088165  0  -0.09367  -0.088726  0  4.025431  0
C  C121  1  0.46367786  0.06051736  0.64165749  1  0.001549  0  -0.090974  -0.074476  0  4.009911  0
C  C122  1  0.52746974  0.93852788  0.65786195  1  -0.076534  0  -0.097998  -0.142785  0  3.990703  0
C  C123  1  0.81140728  0.40879854  0.78389005  1  -0.03096  0  -0.021733  0.047318  0  4.040675  0
C  C124  1  0.86685738  0.32384347  0.74822733  1  -0.087674  0  -0.101314  -0.148429  0  4.019685  0
C  C125  1  0.93317901  0.20212762  0.76357908  1  -0.005673  0  -0.09764  -0.09147  0  4.069847  0
C  C126  1  0.94592878  0.16366048  0.81468049  1  -0.101562  0  -0.092018  -0.08638  0  4.009328  0
C  C127  1  0.23318946  0.63739616  0.39218357  1  -0.083984  0  -0.042897  -0.209662  0  3.957715  0
C  C128  1  0.89185610  0.24729687  0.85046602  1  -0.021676  0  -0.08828  -0.068339  0  3.985716  0
C  C129  1  0.82461203  0.36914893  0.83506235  1  -0.076413  0  -0.099158  -0.141823  0  3.998013  0
C  C130  1  0.80792681  0.79504165  0.75822247  1  -0.068805  0  -0.237186  -0.416863  0  3.984149  0
C  C131  1  0.09373464  0.91019424  0.28700967  1  0.032187  0  -0.012879  0.066216  0  4.02149  0
C  C132  1  0.14230050  0.99597819  0.27043860  1  -0.055565  0  -0.095351  -0.142192  0  4.005985  0
C  C133  1  0.10091594  0.10388568  0.29323562  1  -0.064442  0  -0.096492  -0.089104  0  4.0581  0
C  C134  1  0.01077254  0.12763223  0.33297680  1  -0.027745  0  -0.091466  -0.089673  0  4.017025  0
C  C135  1  0.96318356  0.04173343  0.35039972  1  -0.058941  0  -0.08701  -0.069664  0  4.018649  0
C  C136  1  0.00472848  0.93408193  0.32777605  1  -0.052943  0  -0.090123  -0.136268  0  3.996809  0
C  C137  1  0.41704880  0.54415317  0.26242606  1  0.024656  0  -0.237576  -0.401941  0  3.970934  0
C  C138  1  0.04695230  0.74990320  0.24244094  1  -0.046916  0  -0.065291  -0.095307  0  3.644418  0
C  C139  1  0.23302967  0.45041445  0.21207382  1  -0.076832  0  -0.234845  -0.406777  0  3.992996  0
O  O140  1  0.30878602  0.49948727  0.46015178  1  -1.218583  0  -0.207918  -0.557311  0  2.290959  0
O  O141  1  0.64299335  0.81326800  0.05314406  1  -1.234573  0  -0.21705  -0.566418  0  2.251447  0
O  O142  1  0.63074587  0.02636651  0.03408094  1  -1.254133  0  -0.247464  -0.614695  0  2.233141  0
O  O143  1  0.51647282  0.29521220  0.46071551  1  -1.226967  0  -0.200638  -0.534179  0  2.27582  0
O  O144  1  0.80712259  0.04274030  0.92669036  1  -1.210532  0  -0.191415  -0.524622  0  2.304022  0
O  O145  1  0.01876735  0.84558785  0.92194957  1  -1.19819  0  -0.197847  -0.532377  0  2.283554  0
O  O146  1  0.04029183  0.65133085  0.94548918  1  -1.252312  0  -0.236738  -0.596025  0  2.237714  0
O  O147  1  0.83677657  0.63518855  0.95458508  1  -1.252743  0  -0.232615  -0.599221  0  2.239333  0
O  O148  1  0.65270478  0.79500869  0.95650626  1  -1.249683  0  -0.234204  -0.604623  0  2.254973  0
O  O149  1  0.63362899  0.01088085  0.93678893  1  -1.2518  0  -0.23546  -0.592758  0  2.242518  0
O  O150  1  0.83725305  0.84272138  0.98961560  1  -1.60916  0  -0.390722  -1.273905  0  2.297713  0
O  O151  1  0.69689070  0.51053008  0.53806255  1  -1.249839  0  -0.23213  -0.598982  0  2.2458  0
O  O152  1  0.69364698  0.31956241  0.44511864  1  -1.250652  0  -0.245499  -0.611524  0  2.239019  0
O  O153  1  0.69174310  0.52788853  0.43925773  1  -1.227145  0  -0.217799  -0.569601  0  2.252825  0
O  O154  1  0.51041229  0.69229529  0.43801639  1  -1.234904  0  -0.213727  -0.561707  0  2.249157  0
O  O155  1  0.30306971  0.68894473  0.45788192  1  -1.25945  0  -0.245471  -0.611358  0  2.228571  0
O  O156  1  0.30684106  0.49898746  0.56759089  1  -1.211434  0  -0.20845  -0.559873  0  2.283458  0
O  O157  1  0.51949674  0.30134470  0.56779477  1  -1.204362  0  -0.198736  -0.542991  0  2.309172  0
O  O158  1  0.70767348  0.29689114  0.54366953  1  -1.252837  0  -0.239714  -0.60018  0  2.234355  0
O  O159  1  0.52718624  0.68645413  0.53540893  1  -1.253832  0  -0.232878  -0.600313  0  2.243079  0
O  O160  1  0.31987655  0.68191949  0.55561761  1  -1.240317  0  -0.231555  -0.586202  0  2.239341  0
O  O161  1  0.50002779  0.49094966  0.50172729  1  -1.605505  0  -0.390217  -1.273087  0  2.295189  0
O  O162  1  0.81410675  0.03499227  0.03345518  1  -1.21922  0  -0.211907  -0.565109  0  2.292043  0
O  O163  1  0.03133987  0.84150874  0.02924243  1  -1.231995  0  -0.216012  -0.577386  0  2.282037  0
O  O164  1  0.02347792  0.65663582  0.04444026  1  -1.25465  0  -0.244562  -0.608359  0  2.229991  0
O  O165  1  0.82032872  0.64394186  0.05312678  1  -1.23228  0  -0.216408  -0.56829  0  2.252542  0
O  O166  1  0.33124072  0.29919895  0.52494338  1  -1.35422  0  -0.568153  -0.983986  0  1.796279  0
O  O167  1  0.99584346  0.04370775  0.96340682  1  -1.366018  0  -0.560287  -0.980781  0  1.819133  0
