# generated using pymatgen
data_Zn4H11C24S4N4O13F
_symmetry_space_group_name_H-M   'P 1'
_cell_length_a   19.66921535
_cell_length_b   19.66559407
_cell_length_c   33.37396141
_cell_angle_alpha   79.23039828
_cell_angle_beta   79.21488745
_cell_angle_gamma   63.94063039
_symmetry_Int_Tables_number   1
_chemical_formula_structural   Zn4H11C24S4N4O13F
_chemical_formula_sum   'Zn16 H44 C96 S16 N16 O52 F4'
_cell_volume   11311.66593662
_cell_formula_units_Z   4
loop_
 _symmetry_equiv_pos_site_id
 _symmetry_equiv_pos_as_xyz
  1  'x, y, z'
loop_
 _atom_site_type_symbol
 _atom_site_label
 _atom_site_symmetry_multiplicity
 _atom_site_fract_x
 _atom_site_fract_y
 _atom_site_fract_z
 _atom_site_occupancy
 _atom_site_pbe_bader_charge
 _atom_site_pbe_bader_spin_density
 _atom_site_pbe_cm5_charge
 _atom_site_pbe_ddec_charge
 _atom_site_pbe_ddec_spin_density
 _atom_site_pbe_ddec_sum_bond_order
 _atom_site_pbe_magmom
Zn  Zn0  1  0.05512934  0.40084392  0.47814538  1  1.321696  0  0.67259  0.973713  0  2.363462  0
Zn  Zn1  1  0.98378268  0.48349792  0.56026940  1  1.301525  0  0.661895  0.947869  0  2.384763  0
Zn  Zn2  1  0.05952249  0.56006253  0.48230589  1  1.320132  0  0.669109  0.959035  0  2.394599  0
Zn  Zn3  1  0.90100745  0.55634324  0.47929296  1  1.317921  0  0.669149  0.958284  0  2.395906  0
Zn  Zn4  1  0.69336826  0.34927719  0.27164087  1  1.320819  0  0.672625  0.971131  0  2.376168  0
Zn  Zn5  1  0.68980545  0.18948141  0.26670562  1  1.314203  0  0.667083  0.959977  0  2.3758  0
Zn  Zn6  1  0.76795360  0.26737303  0.19036809  1  1.31441  0  0.669537  0.959458  0  2.39128  0
Zn  Zn7  1  0.84815854  0.19466179  0.27179029  1  1.314908  0  0.662176  0.945082  0  2.393073  0
Zn  Zn8  1  0.26681068  0.76714329  0.69039797  1  1.307821  0  0.661888  0.944728  0  2.395653  0
Zn  Zn9  1  0.34850872  0.69554062  0.77188399  1  1.317378  0  0.667266  0.959705  0  2.374675  0
Zn  Zn10  1  0.19240806  0.84956729  0.77127868  1  1.325595  0  0.675455  0.973823  0  2.378934  0
Zn  Zn11  1  0.19005692  0.68952882  0.76740746  1  1.315177  0  0.666631  0.956853  0  2.386921  0
Zn  Zn12  1  0.55973540  0.06006263  0.98302218  1  1.318235  0  0.667273  0.957925  0  2.385825  0
Zn  Zn13  1  0.40176474  0.05520534  0.97866903  1  1.30421  0  0.662413  0.945944  0  2.39466  0
Zn  Zn14  1  0.55617660  0.90040112  0.97863336  1  1.321423  0  0.672854  0.971076  0  2.374811  0
Zn  Zn15  1  0.48268618  0.98288043  0.06026918  1  1.309668  0  0.666813  0.957169  0  2.386864  0
H  H16  1  0.95479812  0.24885448  0.35154458  1  0.090059  0  0.106907  0.113888  0  0.99828  0
H  H17  1  0.74684455  0.45442808  0.35004691  1  0.09872  0  0.118797  0.147809  0  0.979157  0
H  H18  1  0.99949895  0.29986297  0.39996772  1  0.090548  0  0.112195  0.11953  0  0.98799  0
H  H19  1  0.09700027  0.59699368  0.70018127  1  0.10461  0  0.10838  0.116153  0  0.995588  0
H  H20  1  0.20212410  0.70064520  0.59794060  1  0.137982  0  0.11555  0.143138  0  0.985328  0
H  H21  1  0.05020464  0.55028453  0.65062321  1  0.108672  0  0.108667  0.114407  0  0.993889  0
H  H22  1  0.54996615  0.04982409  0.15328490  1  0.111457  0  0.108261  0.116044  0  0.995282  0
H  H23  1  0.65101332  0.15309308  0.04877922  1  0.097373  0  0.11779  0.146177  0  0.981237  0
H  H24  1  0.60003961  0.09899020  0.19993743  1  0.116915  0  0.110249  0.116557  0  0.991474  0
H  H25  1  0.50151481  0.79546985  0.89842884  1  0.09784  0  0.111421  0.120239  0  0.991345  0
H  H26  1  0.29605785  0.00353836  0.89942146  1  0.097059  0  0.114503  0.141576  0  0.98708  0
H  H27  1  0.45051493  0.75034131  0.85022506  1  0.084057  0  0.11109  0.117602  0  0.989347  0
H  H28  1  0.31530339  0.55478689  0.39548877  1  0.447829  0  0.315449  0.311149  0  0.932207  0
H  H29  1  0.23371075  0.55223637  0.42606971  1  0.50727  0  0.309551  0.323555  0  0.952411  0
H  H30  1  0.42541069  0.20266194  0.34497928  1  0.449204  0  0.314684  0.310693  0  0.933581  0
H  H31  1  0.51402085  0.19933115  0.32178861  1  0.491391  0  0.307281  0.32082  0  0.957171  0
H  H32  1  0.76518133  0.52332503  0.68562204  1  0.453263  0  0.313293  0.30847  0  0.935472  0
H  H33  1  0.83481782  0.51700172  0.64376991  1  0.492739  0  0.304719  0.316447  0  0.962563  0
H  H34  1  0.48432593  0.70374936  0.56455927  1  0.458833  0  0.314204  0.309878  0  0.933679  0
H  H35  1  0.41510366  0.72761120  0.60694459  1  0.492822  0  0.304631  0.316096  0  0.962003  0
H  H36  1  0.04646361  0.26600788  0.68564627  1  0.460372  0  0.312494  0.307801  0  0.93541  0
H  H37  1  0.02252079  0.33502223  0.64324718  1  0.492887  0  0.303264  0.314816  0  0.965189  0
H  H38  1  0.22562114  0.98512937  0.56449702  1  0.457968  0  0.314609  0.310238  0  0.933666  0
H  H39  1  0.23295836  0.91522856  0.60639607  1  0.493877  0  0.305342  0.317239  0  0.961954  0
H  H40  1  0.74337711  0.80431547  0.38492318  1  0.459288  0  0.315229  0.310431  0  0.932862  0
H  H41  1  0.79534802  0.72570519  0.41798954  1  0.499497  0  0.309561  0.323509  0  0.952566  0
H  H42  1  0.01522492  0.93490100  0.35504700  1  0.446827  0  0.314242  0.309233  0  0.934775  0
H  H43  1  0.95594784  0.02197173  0.33027160  1  0.489631  0  0.305184  0.316644  0  0.963678  0
H  H44  1  0.72378737  0.48473440  0.06466972  1  0.458711  0  0.316225  0.311765  0  0.932517  0
H  H45  1  0.73305600  0.41464005  0.10681851  1  0.499602  0  0.310083  0.324137  0  0.953187  0
H  H46  1  0.54386501  0.76618416  0.18596327  1  0.462258  0  0.314613  0.310228  0  0.934234  0
H  H47  1  0.52090509  0.83542987  0.14336722  1  0.495041  0  0.307427  0.319934  0  0.958427  0
H  H48  1  0.14573008  0.08633752  0.22614678  1  0.439669  0  0.313219  0.308554  0  0.934179  0
H  H49  1  0.04760114  0.11782117  0.23932796  1  0.493965  0  0.30401  0.31484  0  0.964593  0
H  H50  1  0.10419507  0.18476609  0.02502927  1  0.446049  0  0.31499  0.310909  0  0.933087  0
H  H51  1  0.20226920  0.13687452  0.01105612  1  0.495988  0  0.305953  0.317641  0  0.962106  0
H  H52  1  0.51579929  0.43522972  0.85522242  1  0.44732  0  0.315199  0.310527  0  0.934344  0
H  H53  1  0.45684528  0.52182314  0.82985594  1  0.491922  0  0.307996  0.320473  0  0.957049  0
H  H54  1  0.24489890  0.30366345  0.88405167  1  0.452188  0  0.313061  0.308674  0  0.934521  0
H  H55  1  0.29646617  0.22558982  0.91734460  1  0.490649  0  0.304183  0.315873  0  0.962867  0
H  H56  1  0.92442258  0.70284703  0.84507185  1  0.448  0  0.314582  0.309953  0  0.935724  0
H  H57  1  0.01323174  0.69902463  0.82204230  1  0.500908  0  0.306803  0.319415  0  0.959188  0
H  H58  1  0.81570015  0.05510331  0.89516965  1  0.443211  0  0.315864  0.311882  0  0.931763  0
H  H59  1  0.73399025  0.05286583  0.92571207  1  0.481248  0  0.308111  0.320824  0  0.956476  0
C  C60  1  0.06013763  0.31589455  0.56238607  1  1.500578  0  0.204845  0.614507  0  4.221166  0
C  C61  1  0.06945721  0.56961763  0.56894101  1  1.571505  0  0.227856  0.624837  0  4.16661  0
C  C62  1  0.18492938  0.43860820  0.43850598  1  1.509346  0  0.204121  0.6133  0  4.222914  0
C  C63  1  0.93711988  0.68515216  0.43832869  1  1.528921  0  0.203603  0.610785  0  4.229183  0
C  C64  1  0.92941257  0.43246387  0.43083607  1  1.587376  0  0.228537  0.623515  0  4.165581  0
C  C65  1  0.81592008  0.56232091  0.56304284  1  1.488625  0  0.204028  0.612172  0  4.224197  0
C  C66  1  0.56502644  0.31033730  0.31194505  1  1.504421  0  0.20459  0.614692  0  4.222398  0
C  C67  1  0.68202302  0.18046980  0.18055767  1  1.584978  0  0.228296  0.624245  0  4.164029  0
C  C68  1  0.68840889  0.43460469  0.18796078  1  1.508219  0  0.204246  0.611944  0  4.223371  0
C  C69  1  0.93613325  0.18775656  0.18939032  1  1.494452  0  0.204419  0.613451  0  4.224035  0
C  C70  1  0.82028611  0.31905038  0.31888741  1  1.578966  0  0.230044  0.606251  0  4.158342  0
C  C71  1  0.81242794  0.06509821  0.31192916  1  1.510608  0  0.203889  0.613025  0  4.220338  0
C  C72  1  0.43421647  0.68951025  0.68793756  1  1.495809  0  0.203658  0.613355  0  4.221432  0
C  C73  1  0.31824420  0.82041097  0.81898947  1  1.579064  0  0.229477  0.624726  0  4.164605  0
C  C74  1  0.18714958  0.93435007  0.68731048  1  1.481283  0  0.20407  0.611886  0  4.224862  0
C  C75  1  0.06443984  0.80994714  0.81177567  1  1.515833  0  0.203661  0.61017  0  4.228315  0
C  C76  1  0.18125705  0.67984901  0.68114457  1  1.553853  0  0.230146  0.608382  0  4.158481  0
C  C77  1  0.31302377  0.56511077  0.81178400  1  1.52928  0  0.204514  0.612458  0  4.222806  0
C  C78  1  0.43696676  0.18525271  0.93859498  1  1.529983  0  0.203994  0.612822  0  4.22316  0
C  C79  1  0.43129181  0.93082402  0.93048677  1  1.568518  0  0.230469  0.607308  0  4.159887  0
C  C80  1  0.68510951  0.93938211  0.93876718  1  1.493003  0  0.20376  0.611767  0  4.22796  0
C  C81  1  0.56053704  0.81538641  0.06237781  1  1.497872  0  0.204426  0.61375  0  4.224159  0
C  C82  1  0.56833051  0.06931745  0.06967868  1  1.563055  0  0.230844  0.606699  0  4.159387  0
C  C83  1  0.31420802  0.06170332  0.06108561  1  1.468859  0  0.203518  0.612019  0  4.222875  0
C  C84  1  0.89957385  0.40501295  0.40206098  1  0.072208  0  -0.019396  -0.143957  0  3.940396  0
C  C85  1  0.84836248  0.34842401  0.34764083  1  -0.045036  0  -0.008603  0.001173  0  3.975233  0
C  C86  1  0.82829145  0.44734095  0.38733785  1  0.421766  0  0.111505  0.288314  0  4.026955  0
C  C87  1  0.91973232  0.30468601  0.36177249  1  0.019267  0  -0.087252  -0.11297  0  3.987228  0
C  C88  1  0.80248812  0.42006652  0.36062319  1  0.063456  0  -0.089655  -0.222083  0  3.960785  0
C  C89  1  0.94437286  0.33294304  0.38855528  1  -0.028777  0  -0.076743  -0.066999  0  3.977476  0
C  C90  1  0.09908297  0.59884292  0.59692828  1  0.01312  0  -0.019345  -0.143478  0  3.941075  0
C  C91  1  0.15245986  0.65157890  0.65221892  1  -0.025331  0  -0.008695  0.001821  0  3.974422  0
C  C92  1  0.14224696  0.64164667  0.58298329  1  0.469613  0  0.112204  0.28857  0  4.025144  0
C  C93  1  0.10942650  0.60917607  0.66714678  1  -0.075789  0  -0.086521  -0.112795  0  3.984627  0
C  C94  1  0.16883719  0.66775778  0.60989139  1  0.053472  0  -0.091621  -0.223417  0  3.964047  0
C  C95  1  0.08357956  0.58343000  0.63970951  1  -0.004799  0  -0.077913  -0.067365  0  3.982357  0
C  C96  1  0.30411585  0.45421084  0.40158003  1  0.566731  0  0.107189  0.285892  0  4.122011  0
C  C97  1  0.44648440  0.29417274  0.34953381  1  0.519458  0  0.105642  0.284309  0  4.121838  0
C  C98  1  0.25876880  0.41336757  0.41436541  1  -0.118296  0  -0.050861  -0.264506  0  3.955099  0
C  C99  1  0.49186839  0.33492624  0.33680988  1  -0.104307  0  -0.050312  -0.263582  0  3.955253  0
C  C100  1  0.37761008  0.33871306  0.37299992  1  -0.112754  0  -0.031106  -0.111003  0  4.086735  0
C  C101  1  0.37245767  0.41008975  0.37757218  1  -0.174359  0  -0.03032  -0.108983  0  4.084242  0
C  C102  1  0.72649212  0.57682422  0.63022174  1  0.505353  0  0.104423  0.282173  0  4.117891  0
C  C103  1  0.52359456  0.67532969  0.62078879  1  0.510451  0  0.105261  0.283063  0  4.118142  0
C  C104  1  0.74201195  0.58741517  0.58722165  1  -0.080685  0  -0.04897  -0.261248  0  3.952618  0
C  C105  1  0.50809987  0.66513363  0.66381389  1  -0.09572  0  -0.04984  -0.261824  0  3.95728  0
C  C106  1  0.60380739  0.64206448  0.60883799  1  -0.138939  0  -0.03029  -0.109679  0  4.083407  0
C  C107  1  0.64625573  0.60862229  0.64211015  1  -0.129028  0  -0.030124  -0.107986  0  4.084066  0
C  C108  1  0.07433394  0.22651714  0.62954146  1  0.480936  0  0.10372  0.281216  0  4.115309  0
C  C109  1  0.17301291  0.02361579  0.62012010  1  0.479924  0  0.104851  0.283384  0  4.120624  0
C  C110  1  0.08448218  0.24195635  0.58652052  1  -0.088018  0  -0.048971  -0.261114  0  3.955626  0
C  C111  1  0.16224308  0.00817359  0.66313340  1  -0.073911  0  -0.049094  -0.261892  0  3.955244  0
C  C112  1  0.14111352  0.10385553  0.60823165  1  -0.129489  0  -0.030153  -0.109967  0  4.084332  0
C  C113  1  0.10755979  0.14634028  0.64150644  1  -0.134673  0  -0.031024  -0.110213  0  4.085688  0
C  C114  1  0.84289625  0.80077560  0.39791456  1  0.547323  0  0.106406  0.28388  0  4.122815  0
C  C115  1  0.90578265  0.95001337  0.35310856  1  0.564345  0  0.105497  0.284312  0  4.120402  0
C  C116  1  0.91275294  0.75894042  0.41418950  1  -0.115418  0  -0.049984  -0.261337  0  3.956102  0
C  C117  1  0.83602163  0.99196934  0.33676436  1  -0.137345  0  -0.049862  -0.262226  0  3.956005  0
C  C118  1  0.90799496  0.87964930  0.37497008  1  -0.160183  0  -0.030875  -0.110851  0  4.089868  0
C  C119  1  0.84149168  0.87027429  0.37514200  1  -0.155341  0  -0.029932  -0.107447  0  4.082998  0
C  C120  1  0.65347214  0.15293861  0.15116414  1  0.002325  0  -0.019946  -0.145321  0  3.940435  0
C  C121  1  0.59743564  0.09815764  0.09818819  1  -0.04543  0  -0.008438  0.003215  0  3.973625  0
C  C122  1  0.66678944  0.16734815  0.10818523  1  0.454478  0  0.111725  0.289751  0  4.022321  0
C  C123  1  0.58294990  0.08290737  0.14092444  1  0.028491  0  -0.086949  -0.113326  0  3.98366  0
C  C124  1  0.63952203  0.14071000  0.08187239  1  0.065783  0  -0.090199  -0.223315  0  3.961697  0
C  C125  1  0.61066529  0.11015155  0.16667804  1  -0.04761  0  -0.077376  -0.067749  0  3.980775  0
C  C126  1  0.67359709  0.52340389  0.12063334  1  0.548374  0  0.106244  0.284767  0  4.123995  0
C  C127  1  0.57445032  0.72654505  0.12964970  1  0.486738  0  0.10646  0.284837  0  4.120862  0
C  C128  1  0.66308068  0.50829152  0.16370463  1  -0.099109  0  -0.050282  -0.263749  0  3.955761  0
C  C129  1  0.58474868  0.74167406  0.08657714  1  -0.090791  0  -0.050173  -0.264066  0  3.958966  0
C  C130  1  0.60779737  0.64637261  0.14174912  1  -0.116846  0  -0.030509  -0.109576  0  4.085447  0
C  C131  1  0.64137277  0.60364946  0.10858974  1  -0.185217  0  -0.030107  -0.109242  0  4.083674  0
C  C132  1  0.08148124  0.12260219  0.17827742  1  0.495085  0  0.104016  0.280029  0  4.117554  0
C  C133  1  0.16875533  0.12472877  0.07215028  1  0.557531  0  0.105991  0.28405  0  4.119876  0
C  C134  1  0.00925341  0.16234418  0.16450332  1  -0.086012  0  -0.048796  -0.259386  0  3.955143  0
C  C135  1  0.24109048  0.08513291  0.08590897  1  -0.107023  0  -0.049692  -0.261042  0  3.952566  0
C  C136  1  0.11079785  0.13883684  0.10632540  1  -0.167207  0  -0.030234  -0.110062  0  4.083629  0
C  C137  1  0.13950575  0.10985147  0.14417606  1  -0.167407  0  -0.030317  -0.107503  0  4.083001  0
C  C138  1  0.34557963  0.85039939  0.84774639  1  0.045092  0  -0.019687  -0.145632  0  3.940981  0
C  C139  1  0.40215689  0.90228821  0.90186099  1  -0.01404  0  -0.008511  0.00056  0  3.977517  0
C  C140  1  0.30317674  0.92187042  0.86229332  1  0.453938  0  0.112301  0.289718  0  4.029478  0
C  C141  1  0.44584177  0.83059517  0.88805094  1  0.007798  0  -0.085697  -0.112203  0  3.977595  0
C  C142  1  0.33050822  0.94790561  0.88885197  1  0.058533  0  -0.091884  -0.223893  0  3.971278  0
C  C143  1  0.41752089  0.80568258  0.86141356  1  -0.037595  0  -0.075869  -0.064957  0  3.973868  0
C  C144  1  0.40649930  0.44996759  0.85296636  1  0.523787  0  0.106485  0.283945  0  4.122924  0
C  C145  1  0.34310969  0.30116609  0.89804063  1  0.514689  0  0.104679  0.281842  0  4.118302  0
C  C146  1  0.33677838  0.49188114  0.83658856  1  -0.141878  0  -0.049584  -0.261229  0  3.95411  0
C  C147  1  0.41275429  0.25917292  0.91446736  1  -0.104657  0  -0.049779  -0.260524  0  3.954637  0
C  C148  1  0.34183177  0.37056535  0.87525823  1  -0.1602  0  -0.030642  -0.10813  0  4.085376  0
C  C149  1  0.40841677  0.37980586  0.87508751  1  -0.125518  0  -0.030168  -0.108283  0  4.081919  0
C  C150  1  0.94590342  0.79408585  0.84961742  1  0.523589  0  0.105039  0.282061  0  4.124247  0
C  C151  1  0.80428182  0.95461396  0.90151758  1  0.536764  0  0.106418  0.284967  0  4.122714  0
C  C152  1  0.99139516  0.83468017  0.83669138  1  -0.124959  0  -0.049286  -0.261573  0  3.957967  0
C  C153  1  0.75875626  0.91403765  0.91448668  1  -0.104661  0  -0.050533  -0.263497  0  3.955989  0
C  C154  1  0.87238924  0.91026048  0.87747481  1  -0.143321  0  -0.030641  -0.110525  0  4.085863  0
C  C155  1  0.87720781  0.83890590  0.87307261  1  -0.140318  0  -0.030217  -0.108762  0  4.086402  0
S  S156  1  0.29986180  0.32289967  0.39771503  1  0.221555  0  0.040116  0.089784  0  2.781541  0
S  S157  1  0.45105546  0.42514626  0.35371444  1  0.228848  0  0.043264  0.09318  0  2.779977  0
S  S158  1  0.66000585  0.63599402  0.56222808  1  0.231702  0  0.046664  0.098371  0  2.777759  0
S  S159  1  0.59015008  0.61669157  0.68880018  1  0.221978  0  0.039087  0.087795  0  2.783284  0
S  S160  1  0.13294458  0.15991771  0.56154666  1  0.223796  0  0.045637  0.096575  0  2.780309  0
S  S161  1  0.11342533  0.09023182  0.68812382  1  0.23131  0  0.045552  0.097169  0  2.778051  0
S  S162  1  0.97428167  0.80444952  0.40227052  1  0.222263  0  0.041504  0.090796  0  2.7836  0
S  S163  1  0.77450440  0.94641251  0.34868157  1  0.204074  0  0.040927  0.089768  0  2.780465  0
S  S164  1  0.61406348  0.59059366  0.18848799  1  0.21677  0  0.042091  0.092057  0  2.779484  0
S  S165  1  0.63337366  0.65936407  0.06179450  1  0.230198  0  0.043088  0.093038  0  2.779678  0
S  S166  1  0.01272732  0.18238720  0.11102381  1  0.272839  0  0.044707  0.095117  0  2.779721  0
S  S167  1  0.23754144  0.06478850  0.13941660  1  0.221371  0  0.040878  0.089998  0  2.779288  0
S  S168  1  0.27501213  0.44661159  0.84866076  1  0.222841  0  0.040542  0.089309  0  2.782922  0
S  S169  1  0.47439010  0.30458583  0.90258644  1  0.219793  0  0.041355  0.090067  0  2.780716  0
S  S170  1  0.95102972  0.92499415  0.85341273  1  0.233467  0  0.045998  0.097117  0  2.779886  0
S  S171  1  0.79937228  0.82347999  0.89799499  1  0.219508  0  0.042047  0.091805  0  2.780772  0
N  N172  1  0.28678624  0.52438723  0.41154143  1  -1.281651  0  -0.579316  -0.591191  0  3.335016  0
N  N173  1  0.46627558  0.22193819  0.34175130  1  -1.257092  0  -0.581189  -0.593614  0  3.334285  0
N  N174  1  0.78016682  0.54352035  0.65682063  1  -1.280594  0  -0.584017  -0.594351  0  3.330041  0
N  N175  1  0.47009297  0.71363650  0.59432375  1  -1.279586  0  -0.583046  -0.593753  0  3.328848  0
N  N176  1  0.03588001  0.28016773  0.65599685  1  -1.272039  0  -0.585398  -0.596375  0  3.326904  0
N  N177  1  0.20658248  0.96999901  0.59353641  1  -1.270441  0  -0.582186  -0.592988  0  3.333669  0
N  N178  1  0.78435983  0.77940538  0.40395603  1  -1.27487  0  -0.57932  -0.59066  0  3.33295  0
N  N179  1  0.96217175  0.97384429  0.34979965  1  -1.252944  0  -0.581955  -0.591535  0  3.33572  0
N  N180  1  0.70739775  0.46968158  0.09423845  1  -1.271574  0  -0.579394  -0.591134  0  3.338082  0
N  N181  1  0.53623283  0.78025787  0.15590589  1  -1.272969  0  -0.581081  -0.59186  0  3.336122  0
N  N182  1  0.09425426  0.09762549  0.21829958  1  -1.248191  0  -0.5846  -0.594134  0  3.325835  0
N  N183  1  0.15567402  0.14461511  0.03209835  1  -1.268595  0  -0.580842  -0.591383  0  3.336553  0
N  N184  1  0.46292499  0.47374079  0.84940085  1  -1.253095  0  -0.580487  -0.590976  0  3.33683  0
N  N185  1  0.28425868  0.27997138  0.90406810  1  -1.259618  0  -0.583414  -0.594172  0  3.327139  0
N  N186  1  0.96552891  0.72175702  0.84201734  1  -1.270723  0  -0.581347  -0.592231  0  3.336973  0
N  N187  1  0.78722175  0.02480322  0.91141201  1  -1.241461  0  -0.580239  -0.591798  0  3.335433  0
O  O188  1  0.99999101  0.49949209  0.50040309  1  -1.228425  0  -0.571876  -1.021588  0  2.538281  0
O  O189  1  0.07597194  0.31748166  0.52327006  1  -1.163804  0  -0.327148  -0.554369  0  2.341  0
O  O190  1  0.03435341  0.52838066  0.58632035  1  -1.161629  0  -0.319553  -0.554554  0  2.327821  0
O  O191  1  0.15749591  0.50568483  0.45032999  1  -1.174127  0  -0.322145  -0.556808  0  2.326699  0
O  O192  1  0.02418685  0.37485641  0.58230703  1  -1.17515  0  -0.325071  -0.561884  0  2.324883  0
O  O193  1  0.15205961  0.39299797  0.44636526  1  -1.195282  0  -0.329876  -0.559196  0  2.337762  0
O  O194  1  0.08119900  0.58803519  0.53057590  1  -1.154154  0  -0.311088  -0.539397  0  2.369039  0
O  O195  1  0.00480243  0.65526015  0.44876213  1  -1.183799  0  -0.33041  -0.55732  0  2.346973  0
O  O196  1  0.88792410  0.49855136  0.44164829  1  -1.163184  0  -0.314283  -0.544251  0  2.37177  0
O  O197  1  0.88881946  0.65482705  0.44751599  1  -1.173321  0  -0.320463  -0.553819  0  2.326913  0
O  O198  1  0.99456335  0.38679362  0.44206587  1  -1.175686  0  -0.313748  -0.546271  0  2.324295  0
O  O199  1  0.87514740  0.52710685  0.58275826  1  -1.180744  0  -0.323116  -0.559874  0  2.321492  0
O  O200  1  0.81707334  0.57681738  0.52389462  1  -1.14655  0  -0.327313  -0.551998  0  2.345602  0
O  O201  1  0.74986898  0.24979828  0.25043175  1  -1.227988  0  -0.572036  -1.02085  0  2.537394  0
O  O202  1  0.59671825  0.35694958  0.30334621  1  -1.179613  0  -0.328735  -0.556358  0  2.343296  0
O  O203  1  0.66221149  0.16571884  0.21873216  1  -1.169247  0  -0.316464  -0.550575  0  2.325477  0
O  O204  1  0.72420899  0.37542578  0.16824019  1  -1.168493  0  -0.321699  -0.556069  0  2.323421  0
O  O205  1  0.59288229  0.24317025  0.30016962  1  -1.177586  0  -0.323179  -0.560287  0  2.323006  0
O  O206  1  0.67367960  0.43326854  0.22717822  1  -1.176387  0  -0.330127  -0.558075  0  2.341156  0
O  O207  1  0.72340912  0.21588203  0.16535671  1  -1.1572  0  -0.312479  -0.54106  0  2.368418  0
O  O208  1  0.87689441  0.22604251  0.17060377  1  -1.176878  0  -0.328454  -0.554803  0  2.345701  0
O  O209  1  0.86522803  0.25393813  0.30737713  1  -1.17742  0  -0.317318  -0.549284  0  2.334092  0
O  O210  1  0.93612799  0.17004470  0.22875771  1  -1.172297  0  -0.323831  -0.560201  0  2.325632  0
O  O211  1  0.75403442  0.36151622  0.30844040  1  -1.178755  0  -0.310175  -0.53887  0  2.334053  0
O  O212  1  0.74673767  0.09306451  0.29913208  1  -1.184027  0  -0.331112  -0.559191  0  2.340389  0
O  O213  1  0.85969360  0.09677547  0.30437603  1  -1.168625  0  -0.324243  -0.559249  0  2.324697  0
O  O214  1  0.24984806  0.74984305  0.75019611  1  -1.231692  0  -0.571446  -1.020538  0  2.536829  0
O  O215  1  0.37524213  0.72624963  0.66812757  1  -1.176794  0  -0.324361  -0.559464  0  2.325306  0
O  O216  1  0.36386076  0.75483627  0.80808183  1  -1.174747  0  -0.317626  -0.551131  0  2.325919  0
O  O217  1  0.17212536  0.93294364  0.72645147  1  -1.152397  0  -0.326235  -0.552004  0  2.344158  0
O  O218  1  0.43261015  0.67285838  0.72706634  1  -1.182408  0  -0.330761  -0.559483  0  2.342569  0
O  O219  1  0.22292501  0.87509897  0.66754433  1  -1.174421  0  -0.324973  -0.561367  0  2.324207  0
O  O220  1  0.25259402  0.86199573  0.80779806  1  -1.157941  0  -0.310394  -0.538961  0  2.368697  0
O  O221  1  0.09575927  0.85682456  0.80268177  1  -1.171434  0  -0.326632  -0.551979  0  2.344512  0
O  O222  1  0.16271031  0.66546910  0.71940011  1  -1.171347  0  -0.312389  -0.543741  0  2.333622  0
O  O223  1  0.09261735  0.74237915  0.80045345  1  -1.166634  0  -0.322937  -0.558034  0  2.324954  0
O  O224  1  0.22189655  0.71592391  0.66491181  1  -1.163161  0  -0.317082  -0.548205  0  2.337528  0
O  O225  1  0.36011216  0.59690453  0.80397137  1  -1.174418  0  -0.321733  -0.556868  0  2.319474  0
O  O226  1  0.24702262  0.59288874  0.79934984  1  -1.183787  0  -0.33122  -0.55818  0  2.344017  0
O  O227  1  0.49991937  0.99971919  0.00017373  1  -1.231411  0  -0.571665  -1.020496  0  2.53739  0
O  O228  1  0.50414556  0.15567249  0.94962683  1  -1.185016  0  -0.330395  -0.55803  0  2.344643  0
O  O229  1  0.38842261  0.99745534  0.94070042  1  -1.181582  0  -0.318334  -0.550155  0  2.337697  0
O  O230  1  0.65250180  0.89358942  0.94680300  1  -1.183277  0  -0.328728  -0.556033  0  2.347557  0
O  O231  1  0.38893785  0.15448276  0.94714658  1  -1.174964  0  -0.32406  -0.560296  0  2.325805  0
O  O232  1  0.65754853  0.00656920  0.95053205  1  -1.173679  0  -0.323626  -0.559168  0  2.324484  0
O  O233  1  0.49616667  0.88642781  0.94214267  1  -1.169693  0  -0.308668  -0.538081  0  2.332029  0
O  O234  1  0.57658148  0.81676798  0.02322832  1  -1.166282  0  -0.329564  -0.556738  0  2.344405  0
O  O235  1  0.53153409  0.02954394  0.08621580  1  -1.168949  0  -0.31277  -0.543812  0  2.333632  0
O  O236  1  0.52452336  0.87456184  0.08212219  1  -1.174116  0  -0.323228  -0.559336  0  2.325667  0
O  O237  1  0.58292710  0.08704695  0.03130983  1  -1.171834  0  -0.314449  -0.544278  0  2.335841  0
O  O238  1  0.31402643  0.07726439  0.02161614  1  -1.147886  0  -0.324458  -0.559823  0  2.323329  0
O  O239  1  0.37375504  0.02745209  0.07997530  1  -1.180316  0  -0.32982  -0.557251  0  2.345816  0
F  F240  1  0.78098416  0.51721677  0.39875991  1  -0.620948  0  -0.104048  -0.142621  0  1.346945  0
F  F241  1  0.16035581  0.65920647  0.54235192  1  -0.631353  0  -0.102475  -0.140242  0  1.346182  0
F  F242  1  0.70692289  0.20847886  0.09031370  1  -0.630821  0  -0.10246  -0.140673  0  1.344055  0
F  F243  1  0.23329691  0.96902970  0.85095152  1  -0.620865  0  -0.10186  -0.139586  0  1.347312  0
