# generated using pymatgen
data_CdH10C14(SN6)2
_symmetry_space_group_name_H-M   'P 1'
_cell_length_a   7.32483450
_cell_length_b   10.99397438
_cell_length_c   13.44981612
_cell_angle_alpha   114.25703567
_cell_angle_beta   105.82276516
_cell_angle_gamma   90.01480227
_symmetry_Int_Tables_number   1
_chemical_formula_structural   CdH10C14(SN6)2
_chemical_formula_sum   'Cd2 H20 C28 S4 N24'
_cell_volume   942.24494973
_cell_formula_units_Z   2
loop_
 _symmetry_equiv_pos_site_id
 _symmetry_equiv_pos_as_xyz
  1  'x, y, z'
loop_
 _atom_site_type_symbol
 _atom_site_label
 _atom_site_symmetry_multiplicity
 _atom_site_fract_x
 _atom_site_fract_y
 _atom_site_fract_z
 _atom_site_occupancy
 _atom_site_hle17_bader_spin_density
 _atom_site_hle17_ddec_charge
 _atom_site_hle17_ddec_spin_density
 _atom_site_hle17_ddec_sum_bond_order
 _atom_site_hle17_magmom
 _atom_site_hse06_10hf_bader_spin_density
 _atom_site_hse06_10hf_ddec_charge
 _atom_site_hse06_10hf_ddec_spin_density
 _atom_site_hse06_10hf_ddec_sum_bond_order
 _atom_site_hse06_10hf_magmom
 _atom_site_hse06_bader_spin_density
 _atom_site_hse06_ddec_charge
 _atom_site_hse06_ddec_spin_density
 _atom_site_hse06_ddec_sum_bond_order
 _atom_site_hse06_magmom
 _atom_site_pbe_bader_spin_density
 _atom_site_pbe_cm5_charge
 _atom_site_pbe_ddec_charge
 _atom_site_pbe_ddec_spin_density
 _atom_site_pbe_ddec_sum_bond_order
 _atom_site_pbe_magmom
Cd  Cd0  1  0.59100186  0.74987069  0.99990788  1  0  0.965802  0  2.013665  0  0  0.800002  0  2.47083  0  0  0.842365  0  2.436643  0  0  0.725027  0.769312  0  2.494451  0
Cd  Cd1  1  0.40897969  0.25011839  0.00008752  1  0  0.965846  0  2.01367  0  0  0.800054  0  2.470834  0  0  0.842416  0  2.436651  0  0  0.725098  0.769373  0  2.494457  0
H  H2  1  0.80463043  0.00762432  0.94225106  1  0  0.090875  0  0.948153  0  0  0.098854  0  1.013114  0  0  0.100134  0  1.012353  0  0  0.128028  0.097803  0  1.01376  0
H  H3  1  0.86310973  0.49231938  0.05766314  1  0  0.091591  0  0.94873  0  0  0.099245  0  1.013969  0  0  0.1006  0  1.013133  0  0  0.12806  0.098033  0  1.014876  0
H  H4  1  0.19536834  0.99237389  0.05775213  1  0  0.090816  0  0.948218  0  0  0.098817  0  1.013162  0  0  0.100097  0  1.012401  0  0  0.128051  0.097767  0  1.013801  0
H  H5  1  0.13690181  0.50767885  0.94234198  1  0  0.091541  0  0.948719  0  0  0.099166  0  1.014001  0  0  0.100528  0  1.01315  0  0  0.128021  0.097956  0  1.014899  0
H  H6  1  0.70829033  0.58700095  0.75279350  1  0  0.115687  0  0.937844  0  0  0.118288  0  1.013428  0  0  0.121574  0  1.007383  0  0  0.142882  0.115314  0  1.018109  0
H  H7  1  0.95566470  0.91289957  0.24725133  1  0  0.115889  0  0.937428  0  0  0.118447  0  1.013204  0  0  0.121714  0  1.007129  0  0  0.142994  0.115508  0  1.017819  0
H  H8  1  0.29170400  0.41299623  0.24720796  1  0  0.115607  0  0.93785  0  0  0.118204  0  1.013435  0  0  0.121489  0  1.007391  0  0  0.142867  0.11523  0  1.018118  0
H  H9  1  0.04433869  0.08710060  0.75274875  1  0  0.115904  0  0.937409  0  0  0.11843  0  1.013219  0  0  0.121697  0  1.007144  0  0  0.143008  0.115494  0  1.017834  0
H  H10  1  0.91609657  0.86425487  0.59886258  1  0  0.101236  0  0.961397  0  0  0.09859  0  1.040656  0  0  0.102728  0  1.03714  0  0  0.115676  0.09507  0  1.04425  0
H  H11  1  0.31705652  0.63582257  0.40149042  1  0  0.1013  0  0.961168  0  0  0.098757  0  1.040482  0  0  0.102985  0  1.036921  0  0  0.115678  0.095178  0  1.044083  0
H  H12  1  0.08390043  0.13574934  0.40114008  1  0  0.101279  0  0.961399  0  0  0.098639  0  1.040656  0  0  0.102779  0  1.037137  0  0  0.11572  0.095117  0  1.044244  0
H  H13  1  0.68294294  0.36417972  0.59851793  1  0  0.101263  0  0.961092  0  0  0.098777  0  1.04036  0  0  0.102997  0  1.036801  0  0  0.115665  0.095194  0  1.043963  0
H  H14  1  0.69180463  0.38416495  0.39700029  1  0  0.084385  0  0.953188  0  0  0.08405  0  1.028398  0  0  0.087361  0  1.026571  0  0  0.110129  0.08145  0  1.030188  0
H  H15  1  0.29537095  0.11597473  0.60306326  1  0  0.084854  0  0.953476  0  0  0.084902  0  1.028054  0  0  0.08813  0  1.026348  0  0  0.110468  0.082278  0  1.029948  0
H  H16  1  0.30820359  0.61583814  0.60299403  1  0  0.084423  0  0.953163  0  0  0.084084  0  1.028373  0  0  0.087394  0  1.026547  0  0  0.110107  0.081483  0  1.030164  0
H  H17  1  0.70463919  0.88403149  0.39693981  1  0  0.084851  0  0.953387  0  0  0.084896  0  1.02799  0  0  0.088127  0  1.026277  0  0  0.110478  0.082271  0  1.029886  0
H  H18  1  0.79906401  0.51184363  0.29909858  1  0  0.086201  0  0.967491  0  0  0.088734  0  1.040902  0  0  0.091447  0  1.039678  0  0  0.104542  0.086372  0  1.042671  0
H  H19  1  0.50038920  0.98834400  0.70109922  1  0  0.085659  0  0.969048  0  0  0.088412  0  1.042233  0  0  0.091105  0  1.041029  0  0  0.104494  0.08612  0  1.043921  0
H  H20  1  0.20093960  0.48816550  0.70089852  1  0  0.086252  0  0.967503  0  0  0.088749  0  1.040972  0  0  0.091457  0  1.039753  0  0  0.104552  0.086413  0  1.042718  0
H  H21  1  0.49962538  0.01166324  0.29890485  1  0  0.085687  0  0.968998  0  0  0.08846  0  1.042163  0  0  0.091138  0  1.041002  0  0  0.104456  0.086165  0  1.043854  0
C  C22  1  0.79224944  0.90778487  0.87425419  1  0  0.215785  0  3.680208  0  0  0.166144  0  3.965923  0  0  0.177781  0  3.976469  0  0  0.151376  0.158919  0  3.956414  0
C  C23  1  0.91855515  0.59218123  0.12568774  1  0  0.213898  0  3.68266  0  0  0.164346  0  3.968662  0  0  0.175917  0  3.979019  0  0  0.150904  0.157155  0  3.959319  0
C  C24  1  0.20775076  0.09221328  0.12574474  1  0  0.215798  0  3.680219  0  0  0.166129  0  3.965953  0  0  0.177765  0  3.976509  0  0  0.151319  0.158904  0  3.956442  0
C  C25  1  0.08145088  0.40781801  0.87431763  1  0  0.214042  0  3.682591  0  0  0.164515  0  3.968583  0  0  0.176087  0  3.978954  0  0  0.150978  0.157326  0  3.959237  0
C  C26  1  0.74069957  0.69406207  0.78021156  1  0  0.209625  0  3.60393  0  0  0.128757  0  3.878072  0  0  0.156495  0  3.888977  0  0  0.173103  0.117919  0  3.873448  0
C  C27  1  0.96071537  0.80584495  0.21976966  1  0  0.208799  0  3.60723  0  0  0.127406  0  3.880693  0  0  0.155721  0  3.891753  0  0  0.172166  0.116644  0  3.875961  0
C  C28  1  0.25929051  0.30593509  0.21978775  1  0  0.20961  0  3.60396  0  0  0.128803  0  3.878115  0  0  0.156497  0  3.889002  0  0  0.173075  0.11797  0  3.873491  0
C  C29  1  0.03928642  0.19415423  0.78023134  1  0  0.208864  0  3.607147  0  0  0.127522  0  3.880619  0  0  0.155809  0  3.891668  0  0  0.172214  0.116755  0  3.875896  0
C  C30  1  0.56616701  0.41450075  0.87004810  1  0  0.304338  0  4.00808  0  0  0.28298  0  4.313384  0  0  0.305021  0  4.328041  0  0  0.141993  0.268155  0  4.302244  0
C  C31  1  0.69611600  0.08537176  0.12994689  1  0  0.306249  0  4.008024  0  0  0.28507  0  4.313124  0  0  0.307144  0  4.327703  0  0  0.143011  0.27021  0  4.30202  0
C  C32  1  0.43383868  0.58548030  0.12994456  1  0  0.304254  0  4.008537  0  0  0.282897  0  4.313821  0  0  0.304934  0  4.328471  0  0  0.142048  0.268074  0  4.302689  0
C  C33  1  0.30386714  0.91461028  0.87004569  1  0  0.305823  0  4.007847  0  0  0.284623  0  4.313  0  0  0.306701  0  4.327587  0  0  0.142808  0.269764  0  4.30189  0
C  C34  1  0.80097950  0.68493663  0.60449914  1  0  0.276409  0  3.809026  0  0  0.241545  0  4.074732  0  0  0.261408  0  4.091725  0  0  0.234998  0.2354  0  4.063161  0
C  C35  1  0.19667394  0.81513321  0.39569022  1  0  0.277533  0  3.807416  0  0  0.240216  0  4.076005  0  0  0.260846  0  4.09273  0  0  0.234192  0.23404  0  4.064271  0
C  C36  1  0.19902159  0.31506656  0.39550232  1  0  0.276367  0  3.808989  0  0  0.241528  0  4.074724  0  0  0.261355  0  4.091705  0  0  0.234995  0.235333  0  4.063215  0
C  C37  1  0.80333033  0.18487203  0.60431462  1  0  0.277312  0  3.807383  0  0  0.240038  0  4.075972  0  0  0.260623  0  4.092734  0  0  0.234162  0.23386  0  4.064238  0
C  C38  1  0.86771370  0.75660617  0.55338961  1  0  0.00924  0  3.667514  0  0  -0.020611  0  3.932692  0  0  -0.02043  0  3.945288  0  0  0.052048  -0.020747  0  3.923305  0
C  C39  1  0.31422722  0.74346779  0.44691345  1  0  0.010231  0  3.663886  0  0  -0.019487  0  3.929895  0  0  -0.019488  0  3.942336  0  0  0.052698  -0.019397  0  3.92033  0
C  C40  1  0.13227923  0.24339900  0.44661053  1  0  0.009202  0  3.667412  0  0  -0.020684  0  3.932643  0  0  -0.020506  0  3.945243  0  0  0.051985  -0.020798  0  3.923262  0
C  C41  1  0.68577101  0.25653547  0.55309281  1  0  0.010319  0  3.663737  0  0  -0.019481  0  3.929762  0  0  -0.019472  0  3.942224  0  0  0.052693  -0.01939  0  3.920196  0
C  C42  1  0.74200639  0.49182085  0.44211626  1  0  0.084054  0  3.70188  0  0  0.062979  0  3.958873  0  0  0.064471  0  3.978363  0  0  0.049288  0.061966  0  3.946197  0
C  C43  1  0.30023801  0.00827879  0.55805781  1  0  0.083934  0  3.704019  0  0  0.062565  0  3.960636  0  0  0.064094  0  3.980212  0  0  0.049246  0.061483  0  3.94806  0
C  C44  1  0.25799347  0.50818328  0.55788086  1  0  0.083917  0  3.701959  0  0  0.062821  0  3.958932  0  0  0.064314  0  3.978422  0  0  0.049279  0.061808  0  3.946261  0
C  C45  1  0.69977337  0.99172644  0.44194587  1  0  0.083923  0  3.703947  0  0  0.062548  0  3.960572  0  0  0.064076  0  3.980148  0  0  0.049189  0.061466  0  3.947996  0
C  C46  1  0.80233104  0.56218192  0.38839370  1  0  0.055689  0  3.702943  0  0  0.030651  0  3.961824  0  0  0.030836  0  3.981192  0  0  0.040155  0.030399  0  3.94913  0
C  C47  1  0.41425842  0.93794275  0.61182208  1  0  0.056186  0  3.704352  0  0  0.030919  0  3.963122  0  0  0.031119  0  3.982524  0  0  0.039875  0.030605  0  3.950443  0
C  C48  1  0.19767344  0.43782424  0.61160553  1  0  0.055643  0  3.702893  0  0  0.030631  0  3.96174  0  0  0.030821  0  3.981107  0  0  0.040109  0.030355  0  3.949031  0
C  C49  1  0.58575101  0.06205943  0.38817882  1  0  0.056078  0  3.70428  0  0  0.03077  0  3.963068  0  0  0.030967  0  3.982456  0  0  0.039895  0.030457  0  3.950388  0
S  S50  1  0.61227318  0.26635127  0.86163257  1  0  -0.335726  0  2.188016  0  0  -0.308337  0  2.518887  0  0  -0.325118  0  2.513568  0  0  -0.143899  -0.295994  0  2.52187  0
S  S51  1  0.75086944  0.23375061  0.13884874  1  0  -0.336855  0  2.187744  0  0  -0.309507  0  2.518246  0  0  -0.326336  0  2.513055  0  0  -0.14443  -0.297171  0  2.521128  0
S  S52  1  0.38772896  0.73364188  0.13836651  1  0  -0.3358  0  2.187687  0  0  -0.308402  0  2.518548  0  0  -0.325184  0  2.513227  0  0  -0.143946  -0.296053  0  2.521525  0
S  S53  1  0.24912014  0.76623528  0.86113268  1  0  -0.336645  0  2.188099  0  0  -0.30928  0  2.518622  0  0  -0.326109  0  2.513436  0  0  -0.144369  -0.296949  0  2.521508  0
N  N54  1  0.74053771  0.79147814  0.88006550  1  0  -0.402944  0  3.183127  0  0  -0.331613  0  3.468059  0  0  -0.353545  0  3.479762  0  0  -0.34413  -0.316652  0  3.456911  0
N  N55  1  0.86086650  0.70842448  0.11982477  1  0  -0.401305  0  3.182437  0  0  -0.329863  0  3.467005  0  0  -0.351782  0  3.478582  0  0  -0.343121  -0.314821  0  3.455731  0
N  N56  1  0.25945130  0.20852100  0.11993282  1  0  -0.402919  0  3.183032  0  0  -0.331592  0  3.467954  0  0  -0.353523  0  3.479666  0  0  -0.344096  -0.316634  0  3.45681  0
N  N57  1  0.13913706  0.29157676  0.88018014  1  0  -0.401442  0  3.182444  0  0  -0.33001  0  3.467017  0  0  -0.35193  0  3.478602  0  0  -0.343181  -0.314968  0  3.455749  0
N  N58  1  0.53372916  0.52264200  0.87632476  1  0  -0.547438  0  2.861788  0  0  -0.491577  0  3.134998  0  0  -0.512742  0  3.143023  0  0  -0.39925  -0.476526  0  3.129457  0
N  N59  1  0.65727569  0.97706270  0.12331177  1  0  -0.548872  0  2.862677  0  0  -0.493126  0  3.136116  0  0  -0.514291  0  3.144079  0  0  -0.400286  -0.478044  0  3.130634  0
N  N60  1  0.46627497  0.47735403  0.12366589  1  0  -0.547212  0  2.862518  0  0  -0.491353  0  3.135742  0  0  -0.512512  0  3.143765  0  0  -0.399224  -0.47631  0  3.130205  0
N  N61  1  0.34270552  0.02294045  0.87668743  1  0  -0.548621  0  2.86211  0  0  -0.492857  0  3.135534  0  0  -0.51403  0  3.143505  0  0  -0.400166  -0.477775  0  3.13005  0
N  N62  1  0.79007668  0.75056002  0.71734517  1  0  -0.015757  0  3.611414  0  0  0.095896  0  3.796981  0  0  0.051656  0  3.859573  0  0  -0.113155  0.103381  0  3.781774  0
N  N63  1  0.07299838  0.74947425  0.28273642  1  0  -0.01804  0  3.613663  0  0  0.096192  0  3.797085  0  0  0.050217  0  3.861559  0  0  -0.112637  0.103738  0  3.781836  0
N  N64  1  0.20991375  0.24943913  0.28265337  1  0  -0.015528  0  3.611345  0  0  0.095966  0  3.797054  0  0  0.051862  0  3.859508  0  0  -0.113094  0.103461  0  3.781864  0
N  N65  1  0.92700979  0.25052898  0.71726836  1  0  -0.018076  0  3.61358  0  0  0.096053  0  3.797122  0  0  0.050169  0  3.861497  0  0  -0.112758  0.103608  0  3.78186  0
N  N66  1  0.82420862  0.88737475  0.77662697  1  0  -0.253721  0  2.84549  0  0  -0.251292  0  3.114565  0  0  -0.248972  0  3.133774  0  0  -0.210879  -0.245526  0  3.106153  0
N  N67  1  0.04801505  0.61267359  0.22341938  1  0  -0.252594  0  2.846616  0  0  -0.250654  0  3.11501  0  0  -0.247787  0  3.13455  0  0  -0.211173  -0.244922  0  3.106596  0
N  N68  1  0.17578466  0.11262441  0.22337274  1  0  -0.253779  0  2.845402  0  0  -0.251281  0  3.114506  0  0  -0.249003  0  3.133688  0  0  -0.21088  -0.245513  0  3.106089  0
N  N69  1  0.95198904  0.38733064  0.77658511  1  0  -0.252636  0  2.84645  0  0  -0.250651  0  3.114834  0  0  -0.247815  0  3.134362  0  0  -0.211163  -0.244921  0  3.106418  0
N  N70  1  0.74059874  0.55370268  0.55095294  1  0  -0.320946  0  3.068217  0  0  -0.289628  0  3.33943  0  0  -0.299728  0  3.351519  0  0  -0.294637  -0.28225  0  3.329264  0
N  N71  1  0.18997072  0.94636892  0.44918187  1  0  -0.322038  0  3.067589  0  0  -0.290097  0  3.33969  0  0  -0.300246  0  3.351486  0  0  -0.294879  -0.282702  0  3.329474  0
N  N72  1  0.25939952  0.44630046  0.44904511  1  0  -0.320924  0  3.068328  0  0  -0.289544  0  3.339484  0  0  -0.299651  0  3.351591  0  0  -0.29462  -0.282151  0  3.329335  0
N  N73  1  0.81003622  0.05363531  0.55082230  1  0  -0.32182  0  3.067604  0  0  -0.289861  0  3.339668  0  0  -0.300005  0  3.351483  0  0  -0.294787  -0.282467  0  3.329456  0
N  N74  1  0.86594939  0.69427054  0.44427843  1  0  -0.239539  0  3.078884  0  0  -0.204185  0  3.343777  0  0  -0.211293  0  3.361484  0  0  -0.300522  -0.198984  0  3.331962  0
N  N75  1  0.42168104  0.80579769  0.55603862  1  0  -0.239754  0  3.075469  0  0  -0.204045  0  3.340216  0  0  -0.211181  0  3.358041  0  0  -0.300059  -0.198795  0  3.328316  0
N  N76  1  0.13405064  0.30573466  0.55572353  1  0  -0.239484  0  3.078749  0  0  -0.204125  0  3.343638  0  0  -0.211234  0  3.361344  0  0  -0.300464  -0.198927  0  3.331829  0
N  N77  1  0.57832536  0.19420355  0.44396597  1  0  -0.239661  0  3.075291  0  0  -0.203921  0  3.340045  0  0  -0.211055  0  3.357864  0  0  -0.299996  -0.198671  0  3.328143  0
